MODEL 1
REMARK VINA RESULT:      -7.0      0.000      0.000
REMARK  Name = 56775724
REMARK  7 active torsions:
REMARK  status: ('A' for Active; 'I' for Inactive)
REMARK    1  A    between atoms: O_4  and  C_25
REMARK    2  A    between atoms: N_5  and  C_8
REMARK    3  A    between atoms: N_5  and  C_9
REMARK    4  A    between atoms: C_8  and  C_12
REMARK    5  A    between atoms: C_12  and  C_17
REMARK    6  A    between atoms: C_18  and  C_21
REMARK    7  A    between atoms: C_20  and  C_22
REMARK                            x       y       z     vdW  Elec       q    Type
REMARK                         _______ _______ _______ _____ _____    ______ ____
ROOT
ATOM      1  O   UNL     1      11.001   6.674  20.851  0.00  0.00    -0.376 OA
ATOM      8  C   UNL     1      12.409   8.273  20.968  0.00  0.00    +0.072 C 
ATOM     10  C   UNL     1      12.413   6.759  21.147  0.00  0.00    +0.184 C 
ATOM     11  C   UNL     1      10.948   8.091  20.574  0.00  0.00    +0.184 C 
ENDROOT
BRANCH   8   5
ATOM      5  N   UNL     1      12.467   8.905  22.290  0.00  0.00    -0.304 NA
ATOM     28  H   UNL     1      13.241   8.603  22.882  0.00  0.00    +0.123 HD
BRANCH   5   9
ATOM      3  O   UNL     1      13.168  14.438  24.877  0.00  0.00    -0.276 OA
ATOM      6  N   UNL     1      12.295  13.014  23.264  0.00  0.00    -0.302 N 
ATOM      9  C   UNL     1      12.486  10.357  22.130  0.00  0.00    +0.057 C 
ATOM     13  C   UNL     1      13.628  10.963  22.955  0.00  0.00    +0.037 C 
ATOM     14  C   UNL     1      11.139  10.952  22.560  0.00  0.00    +0.037 C 
ATOM     15  C   UNL     1      13.607  12.488  22.878  0.00  0.00    +0.109 C 
ATOM     16  C   UNL     1      11.167  12.478  22.492  0.00  0.00    +0.109 C 
ATOM     18  C   UNL     1      12.200  13.978  24.267  0.00  0.00    +0.212 C 
ATOM     21  C   UNL     1      10.815  14.465  24.607  0.00  0.00    +0.109 C 
ENDBRANCH   5   9
ENDBRANCH   8   5
BRANCH   8  12
ATOM     12  C   UNL     1      13.354   8.891  19.984  0.00  0.00    +0.085 C 
BRANCH  12  17
ATOM      2  O   UNL     1      16.198   6.761  19.326  0.00  0.00    -0.354 OA
ATOM      7  N   UNL     1      14.916   7.224  19.048  0.00  0.00    -0.083 NA
ATOM     17  C   UNL     1      14.679   8.157  19.975  0.00  0.00    +0.086 A 
ATOM     19  C   UNL     1      15.761   8.325  20.854  0.00  0.00    +0.076 A 
ATOM     20  C   UNL     1      16.690   7.424  20.403  0.00  0.00    +0.168 A 
BRANCH  20  22
ATOM     22  C   UNL     1      18.014   7.053  20.810  0.00  0.00    +0.023 A 
ATOM     23  C   UNL     1      18.697   6.045  20.128  0.00  0.00    +0.057 A 
ATOM     24  C   UNL     1      18.619   7.699  21.889  0.00  0.00    +0.012 A 
ATOM     25  C   UNL     1      19.984   5.684  20.525  0.00  0.00    +0.118 A 
ATOM     26  C   UNL     1      19.906   7.336  22.285  0.00  0.00    +0.004 A 
ATOM     27  C   UNL     1      20.589   6.329  21.604  0.00  0.00    +0.045 A 
BRANCH  25   4
ATOM      4  O   UNL     1      20.651   4.700  19.860  0.00  0.00    -0.507 OA
ATOM     29  H   UNL     1      20.413   4.740  18.919  0.00  0.00    +0.292 HD
ENDBRANCH  25   4
ENDBRANCH  20  22
ENDBRANCH  12  17
ENDBRANCH   8  12
TORSDOF 6
ENDMDL
MODEL 2
REMARK VINA RESULT:      -6.7      1.744      2.296
REMARK  Name = 56775724
REMARK  7 active torsions:
REMARK  status: ('A' for Active; 'I' for Inactive)
REMARK    1  A    between atoms: O_4  and  C_25
REMARK    2  A    between atoms: N_5  and  C_8
REMARK    3  A    between atoms: N_5  and  C_9
REMARK    4  A    between atoms: C_8  and  C_12
REMARK    5  A    between atoms: C_12  and  C_17
REMARK    6  A    between atoms: C_18  and  C_21
REMARK    7  A    between atoms: C_20  and  C_22
REMARK                            x       y       z     vdW  Elec       q    Type
REMARK                         _______ _______ _______ _____ _____    ______ ____
ROOT
ATOM      1  O   UNL     1      12.475   7.748  17.087  0.00  0.00    -0.376 OA
ATOM      8  C   UNL     1      13.192   7.973  19.085  0.00  0.00    +0.072 C 
ATOM     10  C   UNL     1      11.853   7.749  18.392  0.00  0.00    +0.184 C 
ATOM     11  C   UNL     1      13.786   7.865  17.685  0.00  0.00    +0.184 C 
ENDROOT
BRANCH   8   5
ATOM      5  N   UNL     1      13.268   9.371  19.524  0.00  0.00    -0.304 NA
ATOM     28  H   UNL     1      12.649  10.014  19.031  0.00  0.00    +0.123 HD
BRANCH   5   9
ATOM      3  O   UNL     1      10.258  11.984  24.205  0.00  0.00    -0.276 OA
ATOM      6  N   UNL     1      12.084  10.877  23.291  0.00  0.00    -0.302 N 
ATOM      9  C   UNL     1      13.029   9.438  20.964  0.00  0.00    +0.057 C 
ATOM     13  C   UNL     1      11.533   9.623  21.241  0.00  0.00    +0.037 C 
ATOM     14  C   UNL     1      13.836  10.589  21.578  0.00  0.00    +0.037 C 
ATOM     15  C   UNL     1      11.272   9.791  22.737  0.00  0.00    +0.109 C 
ATOM     16  C   UNL     1      13.529  10.739  23.067  0.00  0.00    +0.109 C 
ATOM     18  C   UNL     1      11.472  11.909  24.000  0.00  0.00    +0.212 C 
ATOM     21  C   UNL     1      12.377  12.990  24.536  0.00  0.00    +0.109 C 
ENDBRANCH   5   9
ENDBRANCH   8   5
BRANCH   8  12
ATOM     12  C   UNL     1      13.637   7.006  20.138  0.00  0.00    +0.085 C 
BRANCH  12  17
ATOM      2  O   UNL     1      17.008   6.127  19.179  0.00  0.00    -0.354 OA
ATOM      7  N   UNL     1      15.643   6.220  18.932  0.00  0.00    -0.083 NA
ATOM     17  C   UNL     1      15.127   6.754  20.043  0.00  0.00    +0.086 A 
ATOM     19  C   UNL     1      16.108   7.017  21.014  0.00  0.00    +0.076 A 
ATOM     20  C   UNL     1      17.272   6.605  20.422  0.00  0.00    +0.168 A 
BRANCH  20  22
ATOM     22  C   UNL     1      18.650   6.576  20.819  0.00  0.00    +0.023 A 
ATOM     23  C   UNL     1      19.535   5.691  20.204  0.00  0.00    +0.057 A 
ATOM     24  C   UNL     1      19.104   7.432  21.824  0.00  0.00    +0.012 A 
ATOM     25  C   UNL     1      20.874   5.663  20.592  0.00  0.00    +0.118 A 
ATOM     26  C   UNL     1      20.443   7.402  22.211  0.00  0.00    +0.004 A 
ATOM     27  C   UNL     1      21.329   6.517  21.596  0.00  0.00    +0.045 A 
BRANCH  25   4
ATOM      4  O   UNL     1      21.739   4.799  19.992  0.00  0.00    -0.507 OA
ATOM     29  H   UNL     1      21.270   4.324  19.285  0.00  0.00    +0.292 HD
ENDBRANCH  25   4
ENDBRANCH  20  22
ENDBRANCH  12  17
ENDBRANCH   8  12
TORSDOF 6
ENDMDL
MODEL 3
REMARK VINA RESULT:      -6.4     26.541     29.743
REMARK  Name = 56775724
REMARK  7 active torsions:
REMARK  status: ('A' for Active; 'I' for Inactive)
REMARK    1  A    between atoms: O_4  and  C_25
REMARK    2  A    between atoms: N_5  and  C_8
REMARK    3  A    between atoms: N_5  and  C_9
REMARK    4  A    between atoms: C_8  and  C_12
REMARK    5  A    between atoms: C_12  and  C_17
REMARK    6  A    between atoms: C_18  and  C_21
REMARK    7  A    between atoms: C_20  and  C_22
REMARK                            x       y       z     vdW  Elec       q    Type
REMARK                         _______ _______ _______ _____ _____    ______ ____
ROOT
ATOM      1  O   UNL     1      -9.093 -13.723  19.781  0.00  0.00    -0.376 OA
ATOM      8  C   UNL     1      -8.468 -11.826  19.029  0.00  0.00    +0.072 C 
ATOM     10  C   UNL     1      -9.497 -12.356  20.020  0.00  0.00    +0.184 C 
ATOM     11  C   UNL     1      -8.034 -13.282  18.901  0.00  0.00    +0.184 C 
ENDROOT
BRANCH   8   5
ATOM      5  N   UNL     1      -9.159 -11.430  17.797  0.00  0.00    -0.304 NA
ATOM     28  H   UNL     1      -9.834 -12.106  17.442  0.00  0.00    +0.123 HD
BRANCH   5   9
ATOM      3  O   UNL     1     -13.296  -7.292  15.909  0.00  0.00    -0.276 OA
ATOM      6  N   UNL     1     -11.322  -7.894  16.976  0.00  0.00    -0.302 N 
ATOM      9  C   UNL     1      -9.798 -10.132  17.999  0.00  0.00    +0.057 C 
ATOM     13  C   UNL     1     -11.304 -10.240  17.734  0.00  0.00    +0.037 C 
ATOM     14  C   UNL     1      -9.164  -9.083  17.077  0.00  0.00    +0.037 C 
ATOM     15  C   UNL     1     -11.977  -8.873  17.847  0.00  0.00    +0.109 C 
ATOM     16  C   UNL     1      -9.880  -7.739  17.201  0.00  0.00    +0.109 C 
ATOM     18  C   UNL     1     -12.077  -7.169  16.055  0.00  0.00    +0.212 C 
ATOM     21  C   UNL     1     -11.329  -6.183  15.194  0.00  0.00    +0.109 C 
ENDBRANCH   5   9
ENDBRANCH   8   5
BRANCH   8  12
ATOM     12  C   UNL     1      -7.470 -10.810  19.491  0.00  0.00    +0.085 C 
BRANCH  12  17
ATOM      2  O   UNL     1      -4.123 -11.566  18.357  0.00  0.00    -0.354 OA
ATOM      7  N   UNL     1      -5.145 -11.619  19.298  0.00  0.00    -0.083 NA
ATOM     17  C   UNL     1      -6.163 -10.958  18.740  0.00  0.00    +0.086 A 
ATOM     19  C   UNL     1      -5.846 -10.471  17.461  0.00  0.00    +0.076 A 
ATOM     20  C   UNL     1      -4.553 -10.879  17.268  0.00  0.00    +0.168 A 
BRANCH  20  22
ATOM     22  C   UNL     1      -3.601 -10.743  16.204  0.00  0.00    +0.023 A 
ATOM     23  C   UNL     1      -2.242 -10.622  16.494  0.00  0.00    +0.057 A 
ATOM     24  C   UNL     1      -4.035 -10.729  14.878  0.00  0.00    +0.012 A 
ATOM     25  C   UNL     1      -1.317 -10.488  15.459  0.00  0.00    +0.118 A 
ATOM     26  C   UNL     1      -3.109 -10.595  13.843  0.00  0.00    +0.004 A 
ATOM     27  C   UNL     1      -1.751 -10.474  14.133  0.00  0.00    +0.045 A 
BRANCH  25   4
ATOM      4  O   UNL     1       0.009 -10.370  15.742  0.00  0.00    -0.507 OA
ATOM     29  H   UNL     1       0.524 -10.699  14.986  0.00  0.00    +0.292 HD
ENDBRANCH  25   4
ENDBRANCH  20  22
ENDBRANCH  12  17
ENDBRANCH   8  12
TORSDOF 6
ENDMDL
MODEL 4
REMARK VINA RESULT:      -6.3     32.292     35.019
REMARK  Name = 56775724
REMARK  7 active torsions:
REMARK  status: ('A' for Active; 'I' for Inactive)
REMARK    1  A    between atoms: O_4  and  C_25
REMARK    2  A    between atoms: N_5  and  C_8
REMARK    3  A    between atoms: N_5  and  C_9
REMARK    4  A    between atoms: C_8  and  C_12
REMARK    5  A    between atoms: C_12  and  C_17
REMARK    6  A    between atoms: C_18  and  C_21
REMARK    7  A    between atoms: C_20  and  C_22
REMARK                            x       y       z     vdW  Elec       q    Type
REMARK                         _______ _______ _______ _____ _____    ______ ____
ROOT
ATOM      1  O   UNL     1      -5.555 -10.505  38.843  0.00  0.00    -0.376 OA
ATOM      8  C   UNL     1      -7.630 -10.005  38.790  0.00  0.00    +0.072 C 
ATOM     10  C   UNL     1      -6.782 -11.254  38.999  0.00  0.00    +0.184 C 
ATOM     11  C   UNL     1      -6.296  -9.269  38.731  0.00  0.00    +0.184 C 
ENDROOT
BRANCH   8   5
ATOM      5  N   UNL     1      -8.206 -10.046  37.442  0.00  0.00    -0.304 NA
ATOM     28  H   UNL     1      -7.553 -10.291  36.698  0.00  0.00    +0.123 HD
BRANCH   5   9
ATOM      3  O   UNL     1     -11.961 -13.690  34.214  0.00  0.00    -0.276 OA
ATOM      6  N   UNL     1     -11.483 -12.299  36.011  0.00  0.00    -0.302 N 
ATOM      9  C   UNL     1      -9.349 -10.955  37.434  0.00  0.00    +0.057 C 
ATOM     13  C   UNL     1      -9.072 -12.142  36.503  0.00  0.00    +0.037 C 
ATOM     14  C   UNL     1     -10.614 -10.208  36.990  0.00  0.00    +0.037 C 
ATOM     15  C   UNL     1     -10.292 -13.056  36.405  0.00  0.00    +0.109 C 
ATOM     16  C   UNL     1     -11.803 -11.161  36.882  0.00  0.00    +0.109 C 
ATOM     18  C   UNL     1     -12.232 -12.708  34.909  0.00  0.00    +0.212 C 
ATOM     21  C   UNL     1     -13.441 -11.875  34.567  0.00  0.00    +0.109 C 
ENDBRANCH   5   9
ENDBRANCH   8   5
BRANCH   8  12
ATOM     12  C   UNL     1      -8.626  -9.618  39.839  0.00  0.00    +0.085 C 
BRANCH  12  17
ATOM      2  O   UNL     1      -9.764  -6.273  39.082  0.00  0.00    -0.354 OA
ATOM      7  N   UNL     1      -9.720  -7.642  38.842  0.00  0.00    -0.083 NA
ATOM     17  C   UNL     1      -8.913  -8.132  39.788  0.00  0.00    +0.086 A 
ATOM     19  C   UNL     1      -8.425  -7.132  40.644  0.00  0.00    +0.076 A 
ATOM     20  C   UNL     1      -8.988  -5.982  40.157  0.00  0.00    +0.168 A 
BRANCH  20  22
ATOM     22  C   UNL     1      -8.937  -4.598  40.530  0.00  0.00    +0.023 A 
ATOM     23  C   UNL     1      -8.851  -3.613  39.546  0.00  0.00    +0.057 A 
ATOM     24  C   UNL     1      -8.969  -4.237  41.877  0.00  0.00    +0.012 A 
ATOM     25  C   UNL     1      -8.800  -2.268  39.909  0.00  0.00    +0.118 A 
ATOM     26  C   UNL     1      -8.917  -2.891  42.239  0.00  0.00    +0.004 A 
ATOM     27  C   UNL     1      -8.832  -1.906  41.255  0.00  0.00    +0.045 A 
BRANCH  25   4
ATOM      4  O   UNL     1      -8.716  -1.306  38.948  0.00  0.00    -0.507 OA
ATOM     29  H   UNL     1      -8.424  -1.716  38.117  0.00  0.00    +0.292 HD
ENDBRANCH  25   4
ENDBRANCH  20  22
ENDBRANCH  12  17
ENDBRANCH   8  12
TORSDOF 6
ENDMDL
MODEL 5
REMARK VINA RESULT:      -6.3     27.024     30.056
REMARK  Name = 56775724
REMARK  7 active torsions:
REMARK  status: ('A' for Active; 'I' for Inactive)
REMARK    1  A    between atoms: O_4  and  C_25
REMARK    2  A    between atoms: N_5  and  C_8
REMARK    3  A    between atoms: N_5  and  C_9
REMARK    4  A    between atoms: C_8  and  C_12
REMARK    5  A    between atoms: C_12  and  C_17
REMARK    6  A    between atoms: C_18  and  C_21
REMARK    7  A    between atoms: C_20  and  C_22
REMARK                            x       y       z     vdW  Elec       q    Type
REMARK                         _______ _______ _______ _____ _____    ______ ____
ROOT
ATOM      1  O   UNL     1      -8.999 -11.830  20.195  0.00  0.00    -0.376 OA
ATOM      8  C   UNL     1      -9.155 -10.861  18.299  0.00  0.00    +0.072 C 
ATOM     10  C   UNL     1      -8.118 -10.996  19.408  0.00  0.00    +0.184 C 
ATOM     11  C   UNL     1      -9.988 -11.821  19.141  0.00  0.00    +0.184 C 
ENDROOT
BRANCH   8   5
ATOM      5  N   UNL     1      -9.755  -9.525  18.374  0.00  0.00    -0.304 NA
ATOM     28  H   UNL     1      -9.095  -8.761  18.525  0.00  0.00    +0.123 HD
BRANCH   5   9
ATOM      3  O   UNL     1     -12.958  -5.560  14.936  0.00  0.00    -0.276 OA
ATOM      6  N   UNL     1     -12.475  -7.698  15.706  0.00  0.00    -0.302 N 
ATOM      9  C   UNL     1     -10.545  -9.282  17.170  0.00  0.00    +0.057 C 
ATOM     13  C   UNL     1     -10.173  -7.925  16.561  0.00  0.00    +0.037 C 
ATOM     14  C   UNL     1     -12.041  -9.331  17.503  0.00  0.00    +0.037 C 
ATOM     15  C   UNL     1     -11.056  -7.609  15.354  0.00  0.00    +0.109 C 
ATOM     16  C   UNL     1     -12.887  -8.986  16.278  0.00  0.00    +0.109 C 
ATOM     18  C   UNL     1     -13.322  -6.620  15.451  0.00  0.00    +0.212 C 
ATOM     21  C   UNL     1     -14.768  -6.789  15.844  0.00  0.00    +0.109 C 
ENDBRANCH   5   9
ENDBRANCH   8   5
BRANCH   8  12
ATOM     12  C   UNL     1      -8.783 -11.256  16.904  0.00  0.00    +0.085 C 
BRANCH  12  17
ATOM      2  O   UNL     1      -5.781  -9.347  16.273  0.00  0.00    -0.354 OA
ATOM      7  N   UNL     1      -7.110  -9.457  16.667  0.00  0.00    -0.083 NA
ATOM     17  C   UNL     1      -7.398 -10.756  16.553  0.00  0.00    +0.086 A 
ATOM     19  C   UNL     1      -6.302 -11.508  16.097  0.00  0.00    +0.076 A 
ATOM     20  C   UNL     1      -5.312 -10.575  15.936  0.00  0.00    +0.168 A 
BRANCH  20  22
ATOM     22  C   UNL     1      -3.943 -10.622  15.508  0.00  0.00    +0.023 A 
ATOM     23  C   UNL     1      -3.638 -10.662  14.148  0.00  0.00    +0.057 A 
ATOM     24  C   UNL     1      -2.917 -10.630  16.454  0.00  0.00    +0.012 A 
ATOM     25  C   UNL     1      -2.308 -10.709  13.732  0.00  0.00    +0.118 A 
ATOM     26  C   UNL     1      -1.587 -10.677  16.037  0.00  0.00    +0.004 A 
ATOM     27  C   UNL     1      -1.282 -10.717  14.677  0.00  0.00    +0.045 A 
BRANCH  25   4
ATOM      4  O   UNL     1      -2.010 -10.748  12.404  0.00  0.00    -0.507 OA
ATOM     29  H   UNL     1      -1.577 -11.594  12.203  0.00  0.00    +0.292 HD
ENDBRANCH  25   4
ENDBRANCH  20  22
ENDBRANCH  12  17
ENDBRANCH   8  12
TORSDOF 6
ENDMDL
MODEL 6
REMARK VINA RESULT:      -6.2     33.220     35.135
REMARK  Name = 56775724
REMARK  7 active torsions:
REMARK  status: ('A' for Active; 'I' for Inactive)
REMARK    1  A    between atoms: O_4  and  C_25
REMARK    2  A    between atoms: N_5  and  C_8
REMARK    3  A    between atoms: N_5  and  C_9
REMARK    4  A    between atoms: C_8  and  C_12
REMARK    5  A    between atoms: C_12  and  C_17
REMARK    6  A    between atoms: C_18  and  C_21
REMARK    7  A    between atoms: C_20  and  C_22
REMARK                            x       y       z     vdW  Elec       q    Type
REMARK                         _______ _______ _______ _____ _____    ______ ____
ROOT
ATOM      1  O   UNL     1       5.585 -16.234   1.504  0.00  0.00    -0.376 OA
ATOM      8  C   UNL     1       3.605 -15.856   0.804  0.00  0.00    +0.072 C 
ATOM     10  C   UNL     1       5.025 -15.453   0.425  0.00  0.00    +0.184 C 
ATOM     11  C   UNL     1       4.275 -16.730   1.858  0.00  0.00    +0.184 C 
ENDROOT
BRANCH   8   5
ATOM      5  N   UNL     1       2.955 -14.724   1.473  0.00  0.00    -0.304 NA
ATOM     28  H   UNL     1       3.055 -13.826   1.001  0.00  0.00    +0.123 HD
BRANCH   5   9
ATOM      3  O   UNL     1      -2.674 -12.721   2.925  0.00  0.00    -0.276 OA
ATOM      6  N   UNL     1      -1.037 -14.365   2.813  0.00  0.00    -0.302 N 
ATOM      9  C   UNL     1       1.542 -15.033   1.681  0.00  0.00    +0.057 C 
ATOM     13  C   UNL     1       0.667 -13.923   1.087  0.00  0.00    +0.037 C 
ATOM     14  C   UNL     1       1.255 -15.200   3.179  0.00  0.00    +0.037 C 
ATOM     15  C   UNL     1      -0.811 -14.179   1.377  0.00  0.00    +0.109 C 
ATOM     16  C   UNL     1      -0.235 -15.430   3.428  0.00  0.00    +0.109 C 
ATOM     18  C   UNL     1      -1.986 -13.586   3.473  0.00  0.00    +0.212 C 
ATOM     21  C   UNL     1      -2.158 -13.837   4.949  0.00  0.00    +0.109 C 
ENDBRANCH   5   9
ENDBRANCH   8   5
BRANCH   8  12
ATOM     12  C   UNL     1       2.733 -16.504  -0.227  0.00  0.00    +0.085 C 
BRANCH  12  17
ATOM      2  O   UNL     1       3.406 -15.363  -3.588  0.00  0.00    -0.354 OA
ATOM      7  N   UNL     1       3.539 -16.277  -2.549  0.00  0.00    -0.083 NA
ATOM     17  C   UNL     1       2.820 -15.766  -1.546  0.00  0.00    +0.086 A 
ATOM     19  C   UNL     1       2.215 -14.545  -1.890  0.00  0.00    +0.076 A 
ATOM     20  C   UNL     1       2.616 -14.337  -3.184  0.00  0.00    +0.168 A 
BRANCH  20  22
ATOM     22  C   UNL     1       2.383 -13.310  -4.158  0.00  0.00    +0.023 A 
ATOM     23  C   UNL     1       1.716 -12.140  -3.793  0.00  0.00    +0.057 A 
ATOM     24  C   UNL     1       2.822 -13.481  -5.471  0.00  0.00    +0.012 A 
ATOM     25  C   UNL     1       1.488 -11.143  -4.740  0.00  0.00    +0.118 A 
ATOM     26  C   UNL     1       2.594 -12.483  -6.418  0.00  0.00    +0.004 A 
ATOM     27  C   UNL     1       1.927 -11.314  -6.053  0.00  0.00    +0.045 A 
BRANCH  25   4
ATOM      4  O   UNL     1       0.836 -10.001  -4.385  0.00  0.00    -0.507 OA
ATOM     29  H   UNL     1      -0.101 -10.208  -4.235  0.00  0.00    +0.292 HD
ENDBRANCH  25   4
ENDBRANCH  20  22
ENDBRANCH  12  17
ENDBRANCH   8  12
TORSDOF 6
ENDMDL
MODEL 7
REMARK VINA RESULT:      -6.2     19.356     22.210
REMARK  Name = 56775724
REMARK  7 active torsions:
REMARK  status: ('A' for Active; 'I' for Inactive)
REMARK    1  A    between atoms: O_4  and  C_25
REMARK    2  A    between atoms: N_5  and  C_8
REMARK    3  A    between atoms: N_5  and  C_9
REMARK    4  A    between atoms: C_8  and  C_12
REMARK    5  A    between atoms: C_12  and  C_17
REMARK    6  A    between atoms: C_18  and  C_21
REMARK    7  A    between atoms: C_20  and  C_22
REMARK                            x       y       z     vdW  Elec       q    Type
REMARK                         _______ _______ _______ _____ _____    ______ ____
ROOT
ATOM      1  O   UNL     1      14.288   4.527   1.916  0.00  0.00    -0.376 OA
ATOM      8  C   UNL     1      12.383   4.394   0.961  0.00  0.00    +0.072 C 
ATOM     10  C   UNL     1      13.579   3.482   1.213  0.00  0.00    +0.184 C 
ATOM     11  C   UNL     1      13.152   5.413   1.794  0.00  0.00    +0.184 C 
ENDROOT
BRANCH   8   5
ATOM      5  N   UNL     1      12.402   4.820  -0.442  0.00  0.00    -0.304 NA
ATOM     28  H   UNL     1      13.262   4.609  -0.947  0.00  0.00    +0.123 HD
BRANCH   5   9
ATOM      3  O   UNL     1      10.007   2.632  -5.664  0.00  0.00    -0.276 OA
ATOM      6  N   UNL     1       9.831   3.659  -3.588  0.00  0.00    -0.302 N 
ATOM      9  C   UNL     1      11.251   4.247  -1.135  0.00  0.00    +0.057 C 
ATOM     13  C   UNL     1      11.709   3.130  -2.081  0.00  0.00    +0.037 C 
ATOM     14  C   UNL     1      10.508   5.339  -1.914  0.00  0.00    +0.037 C 
ATOM     15  C   UNL     1      10.533   2.581  -2.887  0.00  0.00    +0.109 C 
ATOM     16  C   UNL     1       9.356   4.747  -2.724  0.00  0.00    +0.109 C 
ATOM     18  C   UNL     1       9.628   3.574  -4.965  0.00  0.00    +0.212 C 
ATOM     21  C   UNL     1       8.900   4.725  -5.612  0.00  0.00    +0.109 C 
ENDBRANCH   5   9
ENDBRANCH   8   5
BRANCH   8  12
ATOM     12  C   UNL     1      11.027   3.957   1.421  0.00  0.00    +0.085 C 
BRANCH  12  17
ATOM      2  O   UNL     1       9.718   6.586   3.526  0.00  0.00    -0.354 OA
ATOM      7  N   UNL     1      10.085   6.068   2.289  0.00  0.00    -0.083 NA
ATOM     17  C   UNL     1      10.532   4.836   2.550  0.00  0.00    +0.086 A 
ATOM     19  C   UNL     1      10.470   4.524   3.919  0.00  0.00    +0.076 A 
ATOM     20  C   UNL     1       9.952   5.658   4.488  0.00  0.00    +0.168 A 
BRANCH  20  22
ATOM     22  C   UNL     1       9.617   6.051   5.826  0.00  0.00    +0.023 A 
ATOM     23  C   UNL     1       9.992   5.249   6.904  0.00  0.00    +0.057 A 
ATOM     24  C   UNL     1       8.913   7.234   6.050  0.00  0.00    +0.012 A 
ATOM     25  C   UNL     1       9.665   5.631   8.204  0.00  0.00    +0.118 A 
ATOM     26  C   UNL     1       8.586   7.615   7.351  0.00  0.00    +0.004 A 
ATOM     27  C   UNL     1       8.961   6.814   8.429  0.00  0.00    +0.045 A 
BRANCH  25   4
ATOM      4  O   UNL     1      10.032   4.847   9.256  0.00  0.00    -0.507 OA
ATOM     29  H   UNL     1      10.200   3.946   8.935  0.00  0.00    +0.292 HD
ENDBRANCH  25   4
ENDBRANCH  20  22
ENDBRANCH  12  17
ENDBRANCH   8  12
TORSDOF 6
ENDMDL
MODEL 8
REMARK VINA RESULT:      -6.0     32.509     34.347
REMARK  Name = 56775724
REMARK  7 active torsions:
REMARK  status: ('A' for Active; 'I' for Inactive)
REMARK    1  A    between atoms: O_4  and  C_25
REMARK    2  A    between atoms: N_5  and  C_8
REMARK    3  A    between atoms: N_5  and  C_9
REMARK    4  A    between atoms: C_8  and  C_12
REMARK    5  A    between atoms: C_12  and  C_17
REMARK    6  A    between atoms: C_18  and  C_21
REMARK    7  A    between atoms: C_20  and  C_22
REMARK                            x       y       z     vdW  Elec       q    Type
REMARK                         _______ _______ _______ _____ _____    ______ ____
ROOT
ATOM      1  O   UNL     1      -5.380  -9.256  42.006  0.00  0.00    -0.376 OA
ATOM      8  C   UNL     1      -6.210  -9.183  40.041  0.00  0.00    +0.072 C 
ATOM     10  C   UNL     1      -6.651  -8.838  41.459  0.00  0.00    +0.184 C 
ATOM     11  C   UNL     1      -4.866  -9.514  40.680  0.00  0.00    +0.184 C 
ENDROOT
BRANCH   8   5
ATOM      5  N   UNL     1      -6.860 -10.434  39.636  0.00  0.00    -0.304 NA
ATOM     28  H   UNL     1      -7.858 -10.490  39.842  0.00  0.00    +0.123 HD
BRANCH   5   9
ATOM      3  O   UNL     1      -8.157 -13.674  34.574  0.00  0.00    -0.276 OA
ATOM      6  N   UNL     1      -6.742 -12.382  35.888  0.00  0.00    -0.302 N 
ATOM      9  C   UNL     1      -6.622 -10.662  38.213  0.00  0.00    +0.057 C 
ATOM     13  C   UNL     1      -7.946 -10.954  37.497  0.00  0.00    +0.037 C 
ATOM     14  C   UNL     1      -5.641 -11.826  38.023  0.00  0.00    +0.037 C 
ATOM     15  C   UNL     1      -7.708 -11.290  36.025  0.00  0.00    +0.109 C 
ATOM     16  C   UNL     1      -5.449 -12.145  36.541  0.00  0.00    +0.109 C 
ATOM     18  C   UNL     1      -7.075 -13.514  35.144  0.00  0.00    +0.212 C 
ATOM     21  C   UNL     1      -6.028 -14.594  35.052  0.00  0.00    +0.109 C 
ENDBRANCH   5   9
ENDBRANCH   8   5
BRANCH   8  12
ATOM     12  C   UNL     1      -6.269  -8.125  38.983  0.00  0.00    +0.085 C 
BRANCH  12  17
ATOM      2  O   UNL     1      -9.599  -6.726  39.096  0.00  0.00    -0.354 OA
ATOM      7  N   UNL     1      -8.706  -7.757  38.827  0.00  0.00    -0.083 NA
ATOM     17  C   UNL     1      -7.506  -7.266  39.149  0.00  0.00    +0.086 A 
ATOM     19  C   UNL     1      -7.578  -5.946  39.623  0.00  0.00    +0.076 A 
ATOM     20  C   UNL     1      -8.915  -5.653  39.569  0.00  0.00    +0.168 A 
BRANCH  20  22
ATOM     22  C   UNL     1      -9.710  -4.505  39.896  0.00  0.00    +0.023 A 
ATOM     23  C   UNL     1      -9.178  -3.224  39.750  0.00  0.00    +0.057 A 
ATOM     24  C   UNL     1     -11.014  -4.669  40.362  0.00  0.00    +0.012 A 
ATOM     25  C   UNL     1      -9.950  -2.107  40.069  0.00  0.00    +0.118 A 
ATOM     26  C   UNL     1     -11.786  -3.552  40.682  0.00  0.00    +0.004 A 
ATOM     27  C   UNL     1     -11.254  -2.271  40.536  0.00  0.00    +0.045 A 
BRANCH  25   4
ATOM      4  O   UNL     1      -9.430  -0.857  39.927  0.00  0.00    -0.507 OA
ATOM     29  H   UNL     1      -9.640  -0.527  39.038  0.00  0.00    +0.292 HD
ENDBRANCH  25   4
ENDBRANCH  20  22
ENDBRANCH  12  17
ENDBRANCH   8  12
TORSDOF 6
ENDMDL
MODEL 9
REMARK VINA RESULT:      -5.9     28.224     30.064
REMARK  Name = 56775724
REMARK  7 active torsions:
REMARK  status: ('A' for Active; 'I' for Inactive)
REMARK    1  A    between atoms: O_4  and  C_25
REMARK    2  A    between atoms: N_5  and  C_8
REMARK    3  A    between atoms: N_5  and  C_9
REMARK    4  A    between atoms: C_8  and  C_12
REMARK    5  A    between atoms: C_12  and  C_17
REMARK    6  A    between atoms: C_18  and  C_21
REMARK    7  A    between atoms: C_20  and  C_22
REMARK                            x       y       z     vdW  Elec       q    Type
REMARK                         _______ _______ _______ _____ _____    ______ ____
ROOT
ATOM      1  O   UNL     1      -1.697 -13.636  13.101  0.00  0.00    -0.376 OA
ATOM      8  C   UNL     1      -3.093 -12.424  14.168  0.00  0.00    +0.072 C 
ATOM     10  C   UNL     1      -1.592 -12.438  13.903  0.00  0.00    +0.184 C 
ATOM     11  C   UNL     1      -3.137 -13.628  13.234  0.00  0.00    +0.184 C 
ENDROOT
BRANCH   8   5
ATOM      5  N   UNL     1      -3.335 -12.882  15.540  0.00  0.00    -0.304 NA
ATOM     28  H   UNL     1      -2.517 -12.875  16.149  0.00  0.00    +0.123 HD
BRANCH   5   9
ATOM      3  O   UNL     1      -6.309 -11.050  20.600  0.00  0.00    -0.276 OA
ATOM      6  N   UNL     1      -6.209 -11.534  18.330  0.00  0.00    -0.302 N 
ATOM      9  C   UNL     1      -4.414 -12.092  16.128  0.00  0.00    +0.057 C 
ATOM     13  C   UNL     1      -3.925 -11.405  17.409  0.00  0.00    +0.037 C 
ATOM     14  C   UNL     1      -5.621 -12.990  16.427  0.00  0.00    +0.037 C 
ATOM     15  C   UNL     1      -5.065 -10.651  18.092  0.00  0.00    +0.109 C 
ATOM     16  C   UNL     1      -6.727 -12.205  17.131  0.00  0.00    +0.109 C 
ATOM     18  C   UNL     1      -6.741 -11.651  19.613  0.00  0.00    +0.212 C 
ATOM     21  C   UNL     1      -7.915 -12.582  19.775  0.00  0.00    +0.109 C 
ENDBRANCH   5   9
ENDBRANCH   8   5
BRANCH   8  12
ATOM     12  C   UNL     1      -3.883 -11.202  13.812  0.00  0.00    +0.085 C 
BRANCH  12  17
ATOM      2  O   UNL     1      -3.062 -10.204  10.438  0.00  0.00    -0.354 OA
ATOM      7  N   UNL     1      -2.800 -10.263  11.802  0.00  0.00    -0.083 NA
ATOM     17  C   UNL     1      -3.828 -10.940  12.322  0.00  0.00    +0.086 A 
ATOM     19  C   UNL     1      -4.759 -11.331  11.345  0.00  0.00    +0.076 A 
ATOM     20  C   UNL     1      -4.231 -10.843  10.179  0.00  0.00    +0.168 A 
BRANCH  20  22
ATOM     22  C   UNL     1      -4.635 -10.867   8.802  0.00  0.00    +0.023 A 
ATOM     23  C   UNL     1      -5.349  -9.797   8.265  0.00  0.00    +0.057 A 
ATOM     24  C   UNL     1      -4.314 -11.964   8.001  0.00  0.00    +0.012 A 
ATOM     25  C   UNL     1      -5.742  -9.821   6.927  0.00  0.00    +0.118 A 
ATOM     26  C   UNL     1      -4.708 -11.988   6.663  0.00  0.00    +0.004 A 
ATOM     27  C   UNL     1      -5.422 -10.917   6.126  0.00  0.00    +0.045 A 
BRANCH  25   4
ATOM      4  O   UNL     1      -6.440  -8.776   6.403  0.00  0.00    -0.507 OA
ATOM     29  H   UNL     1      -6.783  -8.230   7.130  0.00  0.00    +0.292 HD
ENDBRANCH  25   4
ENDBRANCH  20  22
ENDBRANCH  12  17
ENDBRANCH   8  12
TORSDOF 6
ENDMDL
MODEL 10
REMARK VINA RESULT:      -5.8     28.574     30.337
REMARK  Name = 56775724
REMARK  7 active torsions:
REMARK  status: ('A' for Active; 'I' for Inactive)
REMARK    1  A    between atoms: O_4  and  C_25
REMARK    2  A    between atoms: N_5  and  C_8
REMARK    3  A    between atoms: N_5  and  C_9
REMARK    4  A    between atoms: C_8  and  C_12
REMARK    5  A    between atoms: C_12  and  C_17
REMARK    6  A    between atoms: C_18  and  C_21
REMARK    7  A    between atoms: C_20  and  C_22
REMARK                            x       y       z     vdW  Elec       q    Type
REMARK                         _______ _______ _______ _____ _____    ______ ____
ROOT
ATOM      1  O   UNL     1      -4.624 -11.870  18.855  0.00  0.00    -0.376 OA
ATOM      8  C   UNL     1      -6.240 -11.546  17.499  0.00  0.00    +0.072 C 
ATOM     10  C   UNL     1      -4.802 -11.068  17.666  0.00  0.00    +0.184 C 
ATOM     11  C   UNL     1      -5.946 -12.435  18.701  0.00  0.00    +0.184 C 
ENDROOT
BRANCH   8   5
ATOM      5  N   UNL     1      -7.146 -10.471  17.916  0.00  0.00    -0.304 NA
ATOM     28  H   UNL     1      -7.156  -9.652  17.308  0.00  0.00    +0.123 HD
BRANCH   5   9
ATOM      3  O   UNL     1     -13.181  -9.390  18.371  0.00  0.00    -0.276 OA
ATOM      6  N   UNL     1     -11.278 -10.655  18.785  0.00  0.00    -0.302 N 
ATOM      9  C   UNL     1      -8.496 -11.009  18.066  0.00  0.00    +0.057 C 
ATOM     13  C   UNL     1      -9.469 -10.249  17.158  0.00  0.00    +0.037 C 
ATOM     14  C   UNL     1      -8.941 -10.913  19.531  0.00  0.00    +0.037 C 
ATOM     15  C   UNL     1     -10.903 -10.732  17.370  0.00  0.00    +0.109 C 
ATOM     16  C   UNL     1     -10.385 -11.382  19.697  0.00  0.00    +0.109 C 
ATOM     18  C   UNL     1     -12.428  -9.963  19.162  0.00  0.00    +0.212 C 
ATOM     21  C   UNL     1     -12.742  -9.928  20.636  0.00  0.00    +0.109 C 
ENDBRANCH   5   9
ENDBRANCH   8   5
BRANCH   8  12
ATOM     12  C   UNL     1      -6.649 -12.185  16.207  0.00  0.00    +0.085 C 
BRANCH  12  17
ATOM      2  O   UNL     1      -6.472  -9.583  13.706  0.00  0.00    -0.354 OA
ATOM      7  N   UNL     1      -7.018 -10.156  14.849  0.00  0.00    -0.083 NA
ATOM     17  C   UNL     1      -6.325 -11.284  15.034  0.00  0.00    +0.086 A 
ATOM     19  C   UNL     1      -5.340 -11.473  14.051  0.00  0.00    +0.076 A 
ATOM     20  C   UNL     1      -5.474 -10.377  13.240  0.00  0.00    +0.168 A 
BRANCH  20  22
ATOM     22  C   UNL     1      -4.810  -9.911  12.057  0.00  0.00    +0.023 A 
ATOM     23  C   UNL     1      -5.483  -9.083  11.159  0.00  0.00    +0.057 A 
ATOM     24  C   UNL     1      -3.491 -10.287  11.804  0.00  0.00    +0.012 A 
ATOM     25  C   UNL     1      -4.838  -8.631  10.008  0.00  0.00    +0.118 A 
ATOM     26  C   UNL     1      -2.846  -9.835  10.653  0.00  0.00    +0.004 A 
ATOM     27  C   UNL     1      -3.519  -9.007   9.755  0.00  0.00    +0.045 A 
BRANCH  25   4
ATOM      4  O   UNL     1      -5.496  -7.823   9.131  0.00  0.00    -0.507 OA
ATOM     29  H   UNL     1      -5.070  -6.950   9.127  0.00  0.00    +0.292 HD
ENDBRANCH  25   4
ENDBRANCH  20  22
ENDBRANCH  12  17
ENDBRANCH   8  12
TORSDOF 6
ENDMDL
