REMARK  Name = 7155405
REMARK  7 active torsions:
REMARK  status: ('A' for Active; 'I' for Inactive)
REMARK    1  A    between atoms: S_1  and  C_28
REMARK    2  A    between atoms: S_1  and  C_30
REMARK    3  A    between atoms: O_4  and  C_29
REMARK    4  A    between atoms: N_5  and  C_14
REMARK    5  A    between atoms: C_14  and  C_19
REMARK    6  A    between atoms: C_15  and  C_20
REMARK    7  A    between atoms: C_24  and  C_29
REMARK                            x       y       z     vdW  Elec       q    Type
REMARK                         _______ _______ _______ _____ _____    ______ ____
ROOT
ATOM      2  O   UNL     1       3.372   2.722  -2.016  0.00  0.00    -0.268 OA
ATOM      5  N   UNL     1       2.016  -0.453   1.581  0.00  0.00    -0.294 NA
ATOM      6  N   UNL     1       1.867   2.078  -0.341  0.00  0.00    -0.311 N 
ATOM      7  C   UNL     1       2.573   1.925   2.121  0.00  0.00    +0.024 C 
ATOM      8  C   UNL     1       0.285   1.351   1.470  0.00  0.00    +0.051 C 
ATOM      9  C   UNL     1       1.112   2.234   2.401  0.00  0.00    +0.017 C 
ATOM     10  C   UNL     1       2.866   0.434   2.383  0.00  0.00    +0.090 C 
ATOM     11  C   UNL     1       0.593  -0.137   1.767  0.00  0.00    +0.094 C 
ATOM     12  C   UNL     1       2.890   2.339   0.682  0.00  0.00    +0.130 C 
ATOM     13  C   UNL     1       0.559   1.681   0.000  0.00  0.00    +0.034 A 
ATOM     15  C   UNL     1      -0.393   1.587  -0.964  0.00  0.00    +0.002 A 
ATOM     16  C   UNL     1       2.249   2.358  -1.665  0.00  0.00    +0.252 A 
ATOM     17  C   UNL     1      -0.035   1.864  -2.342  0.00  0.00    +0.015 A 
ATOM     18  C   UNL     1       1.200   2.215  -2.700  0.00  0.00    +0.071 A 
ENDROOT
BRANCH  15  20
ATOM     20  C   UNL     1      -1.784   1.194  -0.649  0.00  0.00    -0.016 A 
ATOM     22  C   UNL     1      -2.140  -0.151  -0.660  0.00  0.00    +0.009 A 
ATOM     23  C   UNL     1      -2.726   2.171  -0.345  0.00  0.00    +0.009 A 
ATOM     26  C   UNL     1      -3.452  -0.522  -0.363  0.00  0.00    +0.015 A 
ATOM     27  C   UNL     1      -4.037   1.800  -0.048  0.00  0.00    +0.015 A 
ATOM     28  C   UNL     1      -4.400   0.454  -0.058  0.00  0.00    +0.008 A 
BRANCH  28   1
ATOM      1  S   UNL     1      -6.076  -0.020   0.322  0.00  0.00    -0.129 S 
ATOM     30  C   UNL     1      -5.840  -1.082   1.775  0.00  0.00    +0.090 C 
ENDBRANCH  28   1
ENDBRANCH  15  20
BRANCH   5  14
ATOM     14  C   UNL     1       2.285  -1.855   1.889  0.00  0.00    +0.158 C 
BRANCH  14  19
ATOM      3  O   UNL     1       1.495  -2.461  -0.298  0.00  0.00    -0.461 OA
ATOM     19  C   UNL     1       1.501  -2.784   1.008  0.00  0.00    +0.119 A 
ATOM     21  C   UNL     1       0.785  -3.902   1.275  0.00  0.00    +0.046 A 
ATOM     24  C   UNL     1       0.741  -3.416  -0.902  0.00  0.00    +0.131 A 
ATOM     25  C   UNL     1       0.281  -4.326   0.022  0.00  0.00    +0.047 A 
BRANCH  24  29
ATOM     29  C   UNL     1       0.575  -3.290  -2.357  0.00  0.00    +0.230 C 
BRANCH  29   4
ATOM      4  O   UNL     1       1.637  -4.009  -2.988  0.00  0.00    -0.387 OA
ATOM     31  H   UNL     1       2.468  -3.551  -2.773  0.00  0.00    +0.210 HD
ENDBRANCH  29   4
ENDBRANCH  24  29
ENDBRANCH  14  19
ENDBRANCH   5  14
TORSDOF 6
