MODEL 1
REMARK VINA RESULT:      -7.1      0.000      0.000
REMARK  Name = 44716868
REMARK  13 active torsions:
REMARK  status: ('A' for Active; 'I' for Inactive)
REMARK    1  A    between atoms: O_3  and  C_16
REMARK    2  A    between atoms: O_3  and  C_25
REMARK    3  A    between atoms: O_4  and  C_17
REMARK    4  A    between atoms: O_5  and  C_21
REMARK    5  A    between atoms: N_8  and  C_26
REMARK    6  A    between atoms: N_9  and  C_27
REMARK    7  A    between atoms: C_10  and  C_20
REMARK    8  A    between atoms: C_12  and  C_21
REMARK    9  A    between atoms: C_12  and  C_22
REMARK   10  A    between atoms: C_13  and  C_23
REMARK   11  A    between atoms: C_23  and  C_24
REMARK   12  A    between atoms: C_26  and  C_28
REMARK   13  A    between atoms: C_27  and  C_29
REMARK                            x       y       z     vdW  Elec       q    Type
REMARK                         _______ _______ _______ _____ _____    ______ ____
ROOT
ATOM     10  C   UNL     1      17.079   7.224  20.670  0.00  0.00    -0.023 C 
ATOM     11  C   UNL     1      16.568   8.717  20.640  0.00  0.00    +0.007 C 
ATOM     12  C   UNL     1      15.026   8.933  20.387  0.00  0.00    +0.031 C 
ATOM     13  C   UNL     1      18.662   7.277  20.613  0.00  0.00    +0.032 C 
ATOM     14  C   UNL     1      16.545   6.499  19.405  0.00  0.00    +0.011 C 
ATOM     15  C   UNL     1      17.145   9.521  21.828  0.00  0.00    +0.007 C 
ATOM     16  C   UNL     1      14.598   8.094  19.147  0.00  0.00    +0.186 C 
ATOM     17  C   UNL     1      19.290   8.143  21.729  0.00  0.00    +0.119 C 
ATOM     18  C   UNL     1      15.041   6.636  19.206  0.00  0.00    +0.046 C 
ATOM     19  C   UNL     1      18.673   9.538  21.795  0.00  0.00    +0.032 C 
ATOM     20  C   UNL     1      16.606   6.432  21.912  0.00  0.00    +0.012 C 
ATOM     22  C   UNL     1      14.771  10.430  20.047  0.00  0.00    +0.017 C 
ENDROOT
BRANCH  17   4
ATOM      4  O   UNL     1      19.173   7.505  22.996  0.00  0.00    -0.391 OA
ATOM     35  H   UNL     1      18.269   7.156  23.070  0.00  0.00    +0.210 HD
ENDBRANCH  17   4
BRANCH  16   3
ATOM      3  O   UNL     1      13.181   8.094  18.970  0.00  0.00    -0.446 OA
BRANCH   3  25
ATOM      7  O   UNL     1      11.739   7.657  17.235  0.00  0.00    -0.226 OA
ATOM      9  N   UNL     1      13.578   9.049  16.972  0.00  0.00    -0.281 N 
ATOM     25  C   UNL     1      12.737   8.215  17.681  0.00  0.00    +0.401 C 
ATOM     38  H   UNL     1      14.370   9.454  17.460  0.00  0.00    +0.152 HD
BRANCH   9  27
ATOM     27  C   UNL     1      13.388   9.383  15.580  0.00  0.00    +0.104 C 
ATOM     29  C   UNL     1      13.730  10.833  15.306  0.00  0.00    +0.024 C 
ENDBRANCH   9  27
ENDBRANCH   3  25
ENDBRANCH  16   3
BRANCH  12  21
ATOM     21  C   UNL     1      14.138   8.624  21.610  0.00  0.00    +0.166 C 
BRANCH  21   5
ATOM      5  O   UNL     1      13.011   9.470  21.551  0.00  0.00    -0.394 OA
ATOM     36  H   UNL     1      12.528   9.252  20.736  0.00  0.00    +0.209 HD
ENDBRANCH  21   5
ENDBRANCH  12  21
BRANCH  13  23
ATOM     23  C   UNL     1      19.352   5.904  20.567  0.00  0.00    +0.102 C 
BRANCH  23  24
ATOM      6  O   UNL     1      21.612   6.667  20.156  0.00  0.00    -0.276 OA
ATOM      8  N   UNL     1      21.184   5.264  21.958  0.00  0.00    -0.311 N 
ATOM     24  C   UNL     1      20.834   6.008  20.842  0.00  0.00    +0.214 C 
ATOM     37  H   UNL     1      20.473   4.724  22.442  0.00  0.00    +0.149 HD
BRANCH   8  26
ATOM     26  C   UNL     1      22.537   5.175  22.456  0.00  0.00    +0.139 C 
BRANCH  26  28
ATOM      1  F   UNL     1      24.039   0.596  23.201  0.00  0.00    -0.205 F 
ATOM      2  F   UNL     1      24.955   2.667  19.043  0.00  0.00    -0.205 F 
ATOM     28  C   UNL     1      23.228   3.928  21.987  0.00  0.00    -0.025 A 
ATOM     30  C   UNL     1      23.782   3.877  20.708  0.00  0.00    +0.043 A 
ATOM     31  C   UNL     1      23.315   2.819  22.828  0.00  0.00    +0.043 A 
ATOM     32  C   UNL     1      23.956   1.659  22.392  0.00  0.00    +0.126 A 
ATOM     33  C   UNL     1      24.423   2.717  20.271  0.00  0.00    +0.126 A 
ATOM     34  C   UNL     1      24.510   1.609  21.114  0.00  0.00    +0.076 A 
ENDBRANCH  26  28
ENDBRANCH   8  26
ENDBRANCH  23  24
ENDBRANCH  13  23
TORSDOF 10
ENDMDL
MODEL 2
REMARK VINA RESULT:      -7.1      7.051      9.952
REMARK  Name = 44716868
REMARK  13 active torsions:
REMARK  status: ('A' for Active; 'I' for Inactive)
REMARK    1  A    between atoms: O_3  and  C_16
REMARK    2  A    between atoms: O_3  and  C_25
REMARK    3  A    between atoms: O_4  and  C_17
REMARK    4  A    between atoms: O_5  and  C_21
REMARK    5  A    between atoms: N_8  and  C_26
REMARK    6  A    between atoms: N_9  and  C_27
REMARK    7  A    between atoms: C_10  and  C_20
REMARK    8  A    between atoms: C_12  and  C_21
REMARK    9  A    between atoms: C_12  and  C_22
REMARK   10  A    between atoms: C_13  and  C_23
REMARK   11  A    between atoms: C_23  and  C_24
REMARK   12  A    between atoms: C_26  and  C_28
REMARK   13  A    between atoms: C_27  and  C_29
REMARK                            x       y       z     vdW  Elec       q    Type
REMARK                         _______ _______ _______ _____ _____    ______ ____
ROOT
ATOM     10  C   UNL     1      14.242   9.006  19.665  0.00  0.00    -0.023 C 
ATOM     11  C   UNL     1      13.026   8.750  18.691  0.00  0.00    +0.007 C 
ATOM     12  C   UNL     1      13.195   9.246  17.204  0.00  0.00    +0.031 C 
ATOM     13  C   UNL     1      13.723   8.726  21.135  0.00  0.00    +0.032 C 
ATOM     14  C   UNL     1      14.660  10.497  19.545  0.00  0.00    +0.011 C 
ATOM     15  C   UNL     1      12.501   7.304  18.834  0.00  0.00    +0.007 C 
ATOM     16  C   UNL     1      13.693  10.722  17.218  0.00  0.00    +0.186 C 
ATOM     17  C   UNL     1      13.104   7.320  21.313  0.00  0.00    +0.119 C 
ATOM     18  C   UNL     1      14.906  10.954  18.112  0.00  0.00    +0.046 C 
ATOM     19  C   UNL     1      12.038   7.021  20.262  0.00  0.00    +0.032 C 
ATOM     20  C   UNL     1      15.482   8.134  19.350  0.00  0.00    +0.012 C 
ATOM     22  C   UNL     1      11.805   9.230  16.502  0.00  0.00    +0.017 C 
ENDROOT
BRANCH  17   4
ATOM      4  O   UNL     1      14.110   6.313  21.278  0.00  0.00    -0.391 OA
ATOM     35  H   UNL     1      14.917   6.686  21.668  0.00  0.00    +0.210 HD
ENDBRANCH  17   4
BRANCH  16   3
ATOM      3  O   UNL     1      14.044  11.176  15.910  0.00  0.00    -0.446 OA
BRANCH   3  25
ATOM      7  O   UNL     1      15.564  12.795  15.326  0.00  0.00    -0.226 OA
ATOM      9  N   UNL     1      13.564  13.323  16.377  0.00  0.00    -0.281 N 
ATOM     25  C   UNL     1      14.493  12.465  15.823  0.00  0.00    +0.401 C 
ATOM     38  H   UNL     1      12.710  12.923  16.752  0.00  0.00    +0.152 HD
BRANCH   9  27
ATOM     27  C   UNL     1      13.735  14.756  16.443  0.00  0.00    +0.104 C 
ATOM     29  C   UNL     1      14.518  15.164  17.674  0.00  0.00    +0.024 C 
ENDBRANCH   9  27
ENDBRANCH   3  25
ENDBRANCH  16   3
BRANCH  12  21
ATOM     21  C   UNL     1      14.109   8.351  16.341  0.00  0.00    +0.166 C 
BRANCH  21   5
ATOM      5  O   UNL     1      13.684   8.463  15.001  0.00  0.00    -0.394 OA
ATOM     36  H   UNL     1      14.439   8.222  14.437  0.00  0.00    +0.209 HD
ENDBRANCH  21   5
ENDBRANCH  12  21
BRANCH  13  23
ATOM     23  C   UNL     1      14.755   8.985  22.245  0.00  0.00    +0.102 C 
BRANCH  23  24
ATOM      6  O   UNL     1      15.362  11.049  23.352  0.00  0.00    -0.276 OA
ATOM      8  N   UNL     1      13.121  10.460  23.170  0.00  0.00    -0.311 N 
ATOM     24  C   UNL     1      14.483  10.277  22.979  0.00  0.00    +0.214 C 
ATOM     37  H   UNL     1      12.472   9.747  22.853  0.00  0.00    +0.149 HD
BRANCH   8  26
ATOM     26  C   UNL     1      12.567  11.610  23.847  0.00  0.00    +0.139 C 
BRANCH  26  28
ATOM      1  F   UNL     1      12.144  13.709  19.465  0.00  0.00    -0.205 F 
ATOM      2  F   UNL     1       8.988  14.764  22.834  0.00  0.00    -0.205 F 
ATOM     28  C   UNL     1      11.863  12.535  22.897  0.00  0.00    -0.025 A 
ATOM     30  C   UNL     1      10.731  13.234  23.315  0.00  0.00    +0.043 A 
ATOM     31  C   UNL     1      12.340  12.696  21.596  0.00  0.00    +0.043 A 
ATOM     32  C   UNL     1      11.686  13.556  20.714  0.00  0.00    +0.126 A 
ATOM     33  C   UNL     1      10.076  14.093  22.433  0.00  0.00    +0.126 A 
ATOM     34  C   UNL     1      10.554  14.254  21.132  0.00  0.00    +0.076 A 
ENDBRANCH  26  28
ENDBRANCH   8  26
ENDBRANCH  23  24
ENDBRANCH  13  23
TORSDOF 10
ENDMDL
MODEL 3
REMARK VINA RESULT:      -6.8     28.272     31.122
REMARK  Name = 44716868
REMARK  13 active torsions:
REMARK  status: ('A' for Active; 'I' for Inactive)
REMARK    1  A    between atoms: O_3  and  C_16
REMARK    2  A    between atoms: O_3  and  C_25
REMARK    3  A    between atoms: O_4  and  C_17
REMARK    4  A    between atoms: O_5  and  C_21
REMARK    5  A    between atoms: N_8  and  C_26
REMARK    6  A    between atoms: N_9  and  C_27
REMARK    7  A    between atoms: C_10  and  C_20
REMARK    8  A    between atoms: C_12  and  C_21
REMARK    9  A    between atoms: C_12  and  C_22
REMARK   10  A    between atoms: C_13  and  C_23
REMARK   11  A    between atoms: C_23  and  C_24
REMARK   12  A    between atoms: C_26  and  C_28
REMARK   13  A    between atoms: C_27  and  C_29
REMARK                            x       y       z     vdW  Elec       q    Type
REMARK                         _______ _______ _______ _____ _____    ______ ____
ROOT
ATOM     10  C   UNL     1      -4.819 -11.634  15.082  0.00  0.00    -0.023 C 
ATOM     11  C   UNL     1      -4.677 -11.015  16.527  0.00  0.00    +0.007 C 
ATOM     12  C   UNL     1      -5.878 -11.256  17.521  0.00  0.00    +0.031 C 
ATOM     13  C   UNL     1      -3.672 -10.997  14.193  0.00  0.00    +0.032 C 
ATOM     14  C   UNL     1      -6.201 -11.222  14.506  0.00  0.00    +0.011 C 
ATOM     15  C   UNL     1      -3.281 -11.310  17.119  0.00  0.00    +0.007 C 
ATOM     16  C   UNL     1      -7.209 -10.885  16.802  0.00  0.00    +0.186 C 
ATOM     17  C   UNL     1      -2.256 -11.187  14.785  0.00  0.00    +0.119 C 
ATOM     18  C   UNL     1      -7.371 -11.533  15.432  0.00  0.00    +0.046 C 
ATOM     19  C   UNL     1      -2.173 -10.731  16.240  0.00  0.00    +0.032 C 
ATOM     20  C   UNL     1      -4.731 -13.179  15.058  0.00  0.00    +0.012 C 
ATOM     22  C   UNL     1      -5.726 -10.303  18.742  0.00  0.00    +0.017 C 
ENDROOT
BRANCH  17   4
ATOM      4  O   UNL     1      -1.838 -12.543  14.681  0.00  0.00    -0.391 OA
ATOM     35  H   UNL     1      -0.965 -12.553  14.254  0.00  0.00    +0.210 HD
ENDBRANCH  17   4
BRANCH  16   3
ATOM      3  O   UNL     1      -8.351 -11.253  17.577  0.00  0.00    -0.446 OA
BRANCH   3  25
ATOM      7  O   UNL     1     -10.586 -10.851  17.237  0.00  0.00    -0.226 OA
ATOM      9  N   UNL     1      -9.077  -9.125  17.593  0.00  0.00    -0.281 N 
ATOM     25  C   UNL     1      -9.448 -10.446  17.449  0.00  0.00    +0.401 C 
ATOM     38  H   UNL     1      -8.099  -8.921  17.772  0.00  0.00    +0.152 HD
BRANCH   9  27
ATOM     27  C   UNL     1     -10.003  -8.019  17.511  0.00  0.00    +0.104 C 
ATOM     29  C   UNL     1     -10.062  -7.446  16.110  0.00  0.00    +0.024 C 
ENDBRANCH   9  27
ENDBRANCH   3  25
ENDBRANCH  16   3
BRANCH  12  21
ATOM     21  C   UNL     1      -5.933 -12.682  18.107  0.00  0.00    +0.166 C 
BRANCH  21   5
ATOM      5  O   UNL     1      -6.663 -12.626  19.313  0.00  0.00    -0.394 OA
ATOM     36  H   UNL     1      -6.517 -13.467  19.779  0.00  0.00    +0.209 HD
ENDBRANCH  21   5
ENDBRANCH  12  21
BRANCH  13  23
ATOM     23  C   UNL     1      -3.682 -11.431  12.718  0.00  0.00    +0.102 C 
BRANCH  23  24
ATOM      6  O   UNL     1      -2.383  -9.926  11.339  0.00  0.00    -0.276 OA
ATOM      8  N   UNL     1      -4.682  -9.632  11.509  0.00  0.00    -0.311 N 
ATOM     24  C   UNL     1      -3.477 -10.262  11.784  0.00  0.00    +0.214 C 
ATOM     37  H   UNL     1      -5.533  -9.964  11.952  0.00  0.00    +0.149 HD
BRANCH   8  26
ATOM     26  C   UNL     1      -4.790  -8.479  10.644  0.00  0.00    +0.139 C 
BRANCH  26  28
ATOM      1  F   UNL     1      -8.598  -8.115   7.620  0.00  0.00    -0.205 F 
ATOM      2  F   UNL     1      -4.864 -10.716   6.312  0.00  0.00    -0.205 F 
ATOM     28  C   UNL     1      -5.473  -8.809   9.350  0.00  0.00    -0.025 A 
ATOM     30  C   UNL     1      -4.839  -9.625   8.414  0.00  0.00    +0.043 A 
ATOM     31  C   UNL     1      -6.744  -8.299   9.081  0.00  0.00    +0.043 A 
ATOM     32  C   UNL     1      -7.379  -8.606   7.877  0.00  0.00    +0.126 A 
ATOM     33  C   UNL     1      -5.473  -9.932   7.210  0.00  0.00    +0.126 A 
ATOM     34  C   UNL     1      -6.744  -9.422   6.942  0.00  0.00    +0.076 A 
ENDBRANCH  26  28
ENDBRANCH   8  26
ENDBRANCH  23  24
ENDBRANCH  13  23
TORSDOF 10
ENDMDL
MODEL 4
REMARK VINA RESULT:      -6.7     32.640     35.404
REMARK  Name = 44716868
REMARK  13 active torsions:
REMARK  status: ('A' for Active; 'I' for Inactive)
REMARK    1  A    between atoms: O_3  and  C_16
REMARK    2  A    between atoms: O_3  and  C_25
REMARK    3  A    between atoms: O_4  and  C_17
REMARK    4  A    between atoms: O_5  and  C_21
REMARK    5  A    between atoms: N_8  and  C_26
REMARK    6  A    between atoms: N_9  and  C_27
REMARK    7  A    between atoms: C_10  and  C_20
REMARK    8  A    between atoms: C_12  and  C_21
REMARK    9  A    between atoms: C_12  and  C_22
REMARK   10  A    between atoms: C_13  and  C_23
REMARK   11  A    between atoms: C_23  and  C_24
REMARK   12  A    between atoms: C_26  and  C_28
REMARK   13  A    between atoms: C_27  and  C_29
REMARK                            x       y       z     vdW  Elec       q    Type
REMARK                         _______ _______ _______ _____ _____    ______ ____
ROOT
ATOM     10  C   UNL     1     -16.399   4.254  29.872  0.00  0.00    -0.023 C 
ATOM     11  C   UNL     1     -15.291   3.726  30.864  0.00  0.00    +0.007 C 
ATOM     12  C   UNL     1     -15.212   4.428  32.275  0.00  0.00    +0.031 C 
ATOM     13  C   UNL     1     -16.075   3.638  28.448  0.00  0.00    +0.032 C 
ATOM     14  C   UNL     1     -16.292   5.802  29.796  0.00  0.00    +0.011 C 
ATOM     15  C   UNL     1     -15.284   2.182  30.911  0.00  0.00    +0.007 C 
ATOM     16  C   UNL     1     -15.192   5.972  32.069  0.00  0.00    +0.186 C 
ATOM     17  C   UNL     1     -15.969   2.096  28.454  0.00  0.00    +0.119 C 
ATOM     18  C   UNL     1     -16.301   6.486  31.158  0.00  0.00    +0.046 C 
ATOM     19  C   UNL     1     -15.011   1.587  29.530  0.00  0.00    +0.032 C 
ATOM     20  C   UNL     1     -17.841   3.895  30.305  0.00  0.00    +0.012 C 
ATOM     22  C   UNL     1     -13.874   4.032  32.965  0.00  0.00    +0.017 C 
ENDROOT
BRANCH  17   4
ATOM      4  O   UNL     1     -17.248   1.497  28.627  0.00  0.00    -0.391 OA
ATOM     35  H   UNL     1     -17.147   0.539  28.498  0.00  0.00    +0.210 HD
ENDBRANCH  17   4
BRANCH  16   3
ATOM      3  O   UNL     1     -15.307   6.673  33.307  0.00  0.00    -0.446 OA
BRANCH   3  25
ATOM      7  O   UNL     1     -15.174   8.946  33.611  0.00  0.00    -0.226 OA
ATOM      9  N   UNL     1     -13.291   7.662  33.172  0.00  0.00    -0.281 N 
ATOM     25  C   UNL     1     -14.639   7.865  33.386  0.00  0.00    +0.401 C 
ATOM     38  H   UNL     1     -12.973   6.714  33.001  0.00  0.00    +0.152 HD
BRANCH   9  27
ATOM     27  C   UNL     1     -12.309   8.721  33.189  0.00  0.00    +0.104 C 
ATOM     29  C   UNL     1     -11.477   8.725  31.923  0.00  0.00    +0.024 C 
ENDBRANCH   9  27
ENDBRANCH   3  25
ENDBRANCH  16   3
BRANCH  12  21
ATOM     21  C   UNL     1     -16.328   4.004  33.252  0.00  0.00    +0.166 C 
BRANCH  21   5
ATOM      5  O   UNL     1     -15.888   4.291  34.561  0.00  0.00    -0.394 OA
ATOM     36  H   UNL     1     -16.187   5.191  34.777  0.00  0.00    +0.209 HD
ENDBRANCH  21   5
ENDBRANCH  12  21
BRANCH  13  23
ATOM     23  C   UNL     1     -17.016   4.091  27.320  0.00  0.00    +0.102 C 
BRANCH  23  24
ATOM      6  O   UNL     1     -17.125   2.389  25.604  0.00  0.00    -0.276 OA
ATOM      8  N   UNL     1     -15.742   4.232  25.306  0.00  0.00    -0.311 N 
ATOM     24  C   UNL     1     -16.658   3.454  25.997  0.00  0.00    +0.214 C 
ATOM     37  H   UNL     1     -15.388   5.084  25.729  0.00  0.00    +0.149 HD
BRANCH   8  26
ATOM     26  C   UNL     1     -15.217   3.868  24.009  0.00  0.00    +0.139 C 
BRANCH  26  28
ATOM      1  F   UNL     1     -12.052   6.059  21.015  0.00  0.00    -0.205 F 
ATOM      2  F   UNL     1     -15.803   8.492  22.574  0.00  0.00    -0.205 F 
ATOM     28  C   UNL     1     -14.763   5.067  23.230  0.00  0.00    -0.025 A 
ATOM     30  C   UNL     1     -15.509   6.245  23.265  0.00  0.00    +0.043 A 
ATOM     31  C   UNL     1     -13.595   5.005  22.469  0.00  0.00    +0.043 A 
ATOM     32  C   UNL     1     -13.173   6.120  21.745  0.00  0.00    +0.126 A 
ATOM     33  C   UNL     1     -15.087   7.360  22.541  0.00  0.00    +0.126 A 
ATOM     34  C   UNL     1     -13.919   7.297  21.780  0.00  0.00    +0.076 A 
ENDBRANCH  26  28
ENDBRANCH   8  26
ENDBRANCH  23  24
ENDBRANCH  13  23
TORSDOF 10
ENDMDL
MODEL 5
REMARK VINA RESULT:      -6.7     29.858     32.571
REMARK  Name = 44716868
REMARK  13 active torsions:
REMARK  status: ('A' for Active; 'I' for Inactive)
REMARK    1  A    between atoms: O_3  and  C_16
REMARK    2  A    between atoms: O_3  and  C_25
REMARK    3  A    between atoms: O_4  and  C_17
REMARK    4  A    between atoms: O_5  and  C_21
REMARK    5  A    between atoms: N_8  and  C_26
REMARK    6  A    between atoms: N_9  and  C_27
REMARK    7  A    between atoms: C_10  and  C_20
REMARK    8  A    between atoms: C_12  and  C_21
REMARK    9  A    between atoms: C_12  and  C_22
REMARK   10  A    between atoms: C_13  and  C_23
REMARK   11  A    between atoms: C_23  and  C_24
REMARK   12  A    between atoms: C_26  and  C_28
REMARK   13  A    between atoms: C_27  and  C_29
REMARK                            x       y       z     vdW  Elec       q    Type
REMARK                         _______ _______ _______ _____ _____    ______ ____
ROOT
ATOM     10  C   UNL     1     -12.416   7.973  19.714  0.00  0.00    -0.023 C 
ATOM     11  C   UNL     1     -13.982   7.954  19.911  0.00  0.00    +0.007 C 
ATOM     12  C   UNL     1     -14.512   7.496  21.324  0.00  0.00    +0.031 C 
ATOM     13  C   UNL     1     -12.148   8.145  18.162  0.00  0.00    +0.032 C 
ATOM     14  C   UNL     1     -11.847   6.606  20.183  0.00  0.00    +0.011 C 
ATOM     15  C   UNL     1     -14.620   9.255  19.374  0.00  0.00    +0.007 C 
ATOM     16  C   UNL     1     -13.810   6.162  21.717  0.00  0.00    +0.186 C 
ATOM     17  C   UNL     1     -12.839   9.386  17.552  0.00  0.00    +0.119 C 
ATOM     18  C   UNL     1     -12.292   6.202  21.583  0.00  0.00    +0.046 C 
ATOM     19  C   UNL     1     -14.327   9.442  17.886  0.00  0.00    +0.032 C 
ATOM     20  C   UNL     1     -11.703   9.088  20.516  0.00  0.00    +0.012 C 
ATOM     22  C   UNL     1     -16.039   7.208  21.225  0.00  0.00    +0.017 C 
ENDROOT
BRANCH  17   4
ATOM      4  O   UNL     1     -12.204  10.586  17.982  0.00  0.00    -0.391 OA
ATOM     35  H   UNL     1     -12.213  11.210  17.237  0.00  0.00    +0.210 HD
ENDBRANCH  17   4
BRANCH  16   3
ATOM      3  O   UNL     1     -14.103   5.785  23.063  0.00  0.00    -0.446 OA
BRANCH   3  25
ATOM      7  O   UNL     1     -15.306   3.986  22.292  0.00  0.00    -0.226 OA
ATOM      9  N   UNL     1     -15.089   4.426  24.560  0.00  0.00    -0.281 N 
ATOM     25  C   UNL     1     -14.875   4.665  23.218  0.00  0.00    +0.401 C 
ATOM     38  H   UNL     1     -14.670   5.063  25.230  0.00  0.00    +0.152 HD
BRANCH   9  27
ATOM     27  C   UNL     1     -15.867   3.317  25.062  0.00  0.00    +0.104 C 
ATOM     29  C   UNL     1     -16.182   3.483  26.534  0.00  0.00    +0.024 C 
ENDBRANCH   9  27
ENDBRANCH   3  25
ENDBRANCH  16   3
BRANCH  12  21
ATOM     21  C   UNL     1     -14.358   8.560  22.430  0.00  0.00    +0.166 C 
BRANCH  21   5
ATOM      5  O   UNL     1     -15.216   8.208  23.493  0.00  0.00    -0.394 OA
ATOM     36  H   UNL     1     -15.992   7.769  23.105  0.00  0.00    +0.209 HD
ENDBRANCH  21   5
ENDBRANCH  12  21
BRANCH  13  23
ATOM     23  C   UNL     1     -10.665   8.121  17.756  0.00  0.00    +0.102 C 
BRANCH  23  24
ATOM      6  O   UNL     1     -10.264   9.730  15.994  0.00  0.00    -0.276 OA
ATOM      8  N   UNL     1     -10.539   7.486  15.458  0.00  0.00    -0.311 N 
ATOM     24  C   UNL     1     -10.464   8.565  16.326  0.00  0.00    +0.214 C 
ATOM     37  H   UNL     1     -10.741   6.561  15.826  0.00  0.00    +0.149 HD
BRANCH   8  26
ATOM     26  C   UNL     1     -10.387   7.612  14.027  0.00  0.00    +0.139 C 
BRANCH  26  28
ATOM      1  F   UNL     1     -15.142   7.029  13.114  0.00  0.00    -0.205 F 
ATOM      2  F   UNL     1     -12.861  10.695  11.170  0.00  0.00    -0.205 F 
ATOM     28  C   UNL     1     -11.659   8.051  13.363  0.00  0.00    -0.025 A 
ATOM     30  C   UNL     1     -11.669   9.191  12.559  0.00  0.00    +0.043 A 
ATOM     31  C   UNL     1     -12.834   7.322  13.550  0.00  0.00    +0.043 A 
ATOM     32  C   UNL     1     -14.016   7.730  12.934  0.00  0.00    +0.126 A 
ATOM     33  C   UNL     1     -12.851   9.601  11.942  0.00  0.00    +0.126 A 
ATOM     34  C   UNL     1     -14.025   8.870  12.130  0.00  0.00    +0.076 A 
ENDBRANCH  26  28
ENDBRANCH   8  26
ENDBRANCH  23  24
ENDBRANCH  13  23
TORSDOF 10
ENDMDL
MODEL 6
REMARK VINA RESULT:      -6.7     28.055     31.434
REMARK  Name = 44716868
REMARK  13 active torsions:
REMARK  status: ('A' for Active; 'I' for Inactive)
REMARK    1  A    between atoms: O_3  and  C_16
REMARK    2  A    between atoms: O_3  and  C_25
REMARK    3  A    between atoms: O_4  and  C_17
REMARK    4  A    between atoms: O_5  and  C_21
REMARK    5  A    between atoms: N_8  and  C_26
REMARK    6  A    between atoms: N_9  and  C_27
REMARK    7  A    between atoms: C_10  and  C_20
REMARK    8  A    between atoms: C_12  and  C_21
REMARK    9  A    between atoms: C_12  and  C_22
REMARK   10  A    between atoms: C_13  and  C_23
REMARK   11  A    between atoms: C_23  and  C_24
REMARK   12  A    between atoms: C_26  and  C_28
REMARK   13  A    between atoms: C_27  and  C_29
REMARK                            x       y       z     vdW  Elec       q    Type
REMARK                         _______ _______ _______ _____ _____    ______ ____
ROOT
ATOM     10  C   UNL     1      -7.165 -10.534  17.557  0.00  0.00    -0.023 C 
ATOM     11  C   UNL     1      -6.627 -12.018  17.546  0.00  0.00    +0.007 C 
ATOM     12  C   UNL     1      -5.067 -12.206  17.694  0.00  0.00    +0.031 C 
ATOM     13  C   UNL     1      -8.675 -10.588  17.079  0.00  0.00    +0.032 C 
ATOM     14  C   UNL     1      -6.335  -9.705  16.540  0.00  0.00    +0.011 C 
ATOM     15  C   UNL     1      -7.475 -12.919  18.472  0.00  0.00    +0.007 C 
ATOM     16  C   UNL     1      -4.348 -11.265  16.682  0.00  0.00    +0.186 C 
ATOM     17  C   UNL     1      -9.553 -11.545  17.917  0.00  0.00    +0.119 C 
ATOM     18  C   UNL     1      -4.828  -9.819  16.736  0.00  0.00    +0.046 C 
ATOM     19  C   UNL     1      -8.939 -12.939  18.034  0.00  0.00    +0.032 C 
ATOM     20  C   UNL     1      -7.056  -9.845  18.939  0.00  0.00    +0.012 C 
ATOM     22  C   UNL     1      -4.694 -13.669  17.318  0.00  0.00    +0.017 C 
ENDROOT
BRANCH  17   4
ATOM      4  O   UNL     1      -9.790 -11.013  19.216  0.00  0.00    -0.391 OA
ATOM     35  H   UNL     1      -9.042 -10.436  19.441  0.00  0.00    +0.210 HD
ENDBRANCH  17   4
BRANCH  16   3
ATOM      3  O   UNL     1      -2.935 -11.246  16.887  0.00  0.00    -0.446 OA
BRANCH   3  25
ATOM      7  O   UNL     1      -1.557 -10.132  15.426  0.00  0.00    -0.226 OA
ATOM      9  N   UNL     1      -2.188 -12.336  15.067  0.00  0.00    -0.281 N 
ATOM     25  C   UNL     1      -2.167 -11.143  15.760  0.00  0.00    +0.401 C 
ATOM     38  H   UNL     1      -2.730 -13.102  15.454  0.00  0.00    +0.152 HD
BRANCH   9  27
ATOM     27  C   UNL     1      -1.476 -12.557  13.829  0.00  0.00    +0.104 C 
ATOM     29  C   UNL     1      -2.409 -12.513  12.637  0.00  0.00    +0.024 C 
ENDBRANCH   9  27
ENDBRANCH   3  25
ENDBRANCH  16   3
BRANCH  12  21
ATOM     21  C   UNL     1      -4.541 -11.996  19.129  0.00  0.00    +0.166 C 
BRANCH  21   5
ATOM      5  O   UNL     1      -3.315 -12.684  19.246  0.00  0.00    -0.394 OA
ATOM     36  H   UNL     1      -2.634 -12.136  18.820  0.00  0.00    +0.209 HD
ENDBRANCH  21   5
ENDBRANCH  12  21
BRANCH  13  23
ATOM     23  C   UNL     1      -9.363  -9.219  16.960  0.00  0.00    +0.102 C 
BRANCH  23  24
ATOM      6  O   UNL     1     -10.121  -7.772  15.175  0.00  0.00    -0.276 OA
ATOM      8  N   UNL     1      -9.202  -9.843  14.662  0.00  0.00    -0.311 N 
ATOM     24  C   UNL     1      -9.615  -8.836  15.521  0.00  0.00    +0.214 C 
ATOM     37  H   UNL     1      -8.824 -10.704  15.045  0.00  0.00    +0.149 HD
BRANCH   8  26
ATOM     26  C   UNL     1      -9.323  -9.754  13.224  0.00  0.00    +0.139 C 
BRANCH  26  28
ATOM      1  F   UNL     1      -6.571  -9.064   9.257  0.00  0.00    -0.205 F 
ATOM      2  F   UNL     1      -4.461 -10.112  13.365  0.00  0.00    -0.205 F 
ATOM     28  C   UNL     1      -7.983  -9.696  12.550  0.00  0.00    -0.025 A 
ATOM     30  C   UNL     1      -6.822  -9.936  13.285  0.00  0.00    +0.043 A 
ATOM     31  C   UNL     1      -7.897  -9.401  11.189  0.00  0.00    +0.043 A 
ATOM     32  C   UNL     1      -6.652  -9.347  10.563  0.00  0.00    +0.126 A 
ATOM     33  C   UNL     1      -5.576  -9.881  12.660  0.00  0.00    +0.126 A 
ATOM     34  C   UNL     1      -5.492  -9.587  11.299  0.00  0.00    +0.076 A 
ENDBRANCH  26  28
ENDBRANCH   8  26
ENDBRANCH  23  24
ENDBRANCH  13  23
TORSDOF 10
ENDMDL
MODEL 7
REMARK VINA RESULT:      -6.6     28.556     30.952
REMARK  Name = 44716868
REMARK  13 active torsions:
REMARK  status: ('A' for Active; 'I' for Inactive)
REMARK    1  A    between atoms: O_3  and  C_16
REMARK    2  A    between atoms: O_3  and  C_25
REMARK    3  A    between atoms: O_4  and  C_17
REMARK    4  A    between atoms: O_5  and  C_21
REMARK    5  A    between atoms: N_8  and  C_26
REMARK    6  A    between atoms: N_9  and  C_27
REMARK    7  A    between atoms: C_10  and  C_20
REMARK    8  A    between atoms: C_12  and  C_21
REMARK    9  A    between atoms: C_12  and  C_22
REMARK   10  A    between atoms: C_13  and  C_23
REMARK   11  A    between atoms: C_23  and  C_24
REMARK   12  A    between atoms: C_26  and  C_28
REMARK   13  A    between atoms: C_27  and  C_29
REMARK                            x       y       z     vdW  Elec       q    Type
REMARK                         _______ _______ _______ _____ _____    ______ ____
ROOT
ATOM     10  C   UNL     1      -4.556 -10.454  10.825  0.00  0.00    -0.023 C 
ATOM     11  C   UNL     1      -5.875 -11.229  10.438  0.00  0.00    +0.007 C 
ATOM     12  C   UNL     1      -6.767 -10.586   9.306  0.00  0.00    +0.031 C 
ATOM     13  C   UNL     1      -4.018 -11.101  12.168  0.00  0.00    +0.032 C 
ATOM     14  C   UNL     1      -4.919  -8.967  11.084  0.00  0.00    +0.011 C 
ATOM     15  C   UNL     1      -5.596 -12.738  10.259  0.00  0.00    +0.007 C 
ATOM     16  C   UNL     1      -6.992  -9.081   9.637  0.00  0.00    +0.186 C 
ATOM     17  C   UNL     1      -3.804 -12.629  12.073  0.00  0.00    +0.119 C 
ATOM     18  C   UNL     1      -5.708  -8.320   9.951  0.00  0.00    +0.046 C 
ATOM     19  C   UNL     1      -5.039 -13.354  11.543  0.00  0.00    +0.032 C 
ATOM     20  C   UNL     1      -3.466 -10.497   9.726  0.00  0.00    +0.012 C 
ATOM     22  C   UNL     1      -8.162 -11.277   9.305  0.00  0.00    +0.017 C 
ENDROOT
BRANCH  17   4
ATOM      4  O   UNL     1      -2.679 -12.937  11.258  0.00  0.00    -0.391 OA
ATOM     35  H   UNL     1      -2.820 -13.821  10.879  0.00  0.00    +0.210 HD
ENDBRANCH  17   4
BRANCH  16   3
ATOM      3  O   UNL     1      -7.634  -8.393   8.563  0.00  0.00    -0.446 OA
BRANCH   3  25
ATOM      7  O   UNL     1      -9.583  -8.127   9.749  0.00  0.00    -0.226 OA
ATOM      9  N   UNL     1      -8.976  -6.661   8.055  0.00  0.00    -0.281 N 
ATOM     25  C   UNL     1      -8.807  -7.759   8.873  0.00  0.00    +0.401 C 
ATOM     38  H   UNL     1      -8.255  -6.460   7.370  0.00  0.00    +0.152 HD
BRANCH   9  27
ATOM     27  C   UNL     1     -10.117  -5.777   8.126  0.00  0.00    +0.104 C 
ATOM     29  C   UNL     1      -9.757  -4.459   8.780  0.00  0.00    +0.024 C 
ENDBRANCH   9  27
ENDBRANCH   3  25
ENDBRANCH  16   3
BRANCH  12  21
ATOM     21  C   UNL     1      -6.206 -10.773   7.881  0.00  0.00    +0.166 C 
BRANCH  21   5
ATOM      5  O   UNL     1      -7.299 -10.911   7.001  0.00  0.00    -0.394 OA
ATOM     36  H   UNL     1      -7.056 -10.476   6.166  0.00  0.00    +0.209 HD
ENDBRANCH  21   5
ENDBRANCH  12  21
BRANCH  13  23
ATOM     23  C   UNL     1      -2.760 -10.434  12.748  0.00  0.00    +0.102 C 
BRANCH  23  24
ATOM      6  O   UNL     1      -1.502 -11.702  14.380  0.00  0.00    -0.276 OA
ATOM      8  N   UNL     1      -3.333 -10.447  15.065  0.00  0.00    -0.311 N 
ATOM     24  C   UNL     1      -2.437 -10.945  14.132  0.00  0.00    +0.214 C 
ATOM     37  H   UNL     1      -4.096  -9.851  14.758  0.00  0.00    +0.149 HD
BRANCH   8  26
ATOM     26  C   UNL     1      -3.269 -10.770  16.472  0.00  0.00    +0.139 C 
BRANCH  26  28
ATOM      1  F   UNL     1      -6.223 -11.368  20.307  0.00  0.00    -0.205 F 
ATOM      2  F   UNL     1      -7.808  -8.990  16.531  0.00  0.00    -0.205 F 
ATOM     28  C   UNL     1      -4.588 -10.563  17.158  0.00  0.00    -0.025 A 
ATOM     30  C   UNL     1      -5.605  -9.859  16.513  0.00  0.00    +0.043 A 
ATOM     31  C   UNL     1      -4.797 -11.072  18.440  0.00  0.00    +0.043 A 
ATOM     32  C   UNL     1      -6.023 -10.879  19.076  0.00  0.00    +0.126 A 
ATOM     33  C   UNL     1      -6.831  -9.665  17.150  0.00  0.00    +0.126 A 
ATOM     34  C   UNL     1      -7.040 -10.175  18.432  0.00  0.00    +0.076 A 
ENDBRANCH  26  28
ENDBRANCH   8  26
ENDBRANCH  23  24
ENDBRANCH  13  23
TORSDOF 10
ENDMDL
MODEL 8
REMARK VINA RESULT:      -6.6     27.512     31.577
REMARK  Name = 44716868
REMARK  13 active torsions:
REMARK  status: ('A' for Active; 'I' for Inactive)
REMARK    1  A    between atoms: O_3  and  C_16
REMARK    2  A    between atoms: O_3  and  C_25
REMARK    3  A    between atoms: O_4  and  C_17
REMARK    4  A    between atoms: O_5  and  C_21
REMARK    5  A    between atoms: N_8  and  C_26
REMARK    6  A    between atoms: N_9  and  C_27
REMARK    7  A    between atoms: C_10  and  C_20
REMARK    8  A    between atoms: C_12  and  C_21
REMARK    9  A    between atoms: C_12  and  C_22
REMARK   10  A    between atoms: C_13  and  C_23
REMARK   11  A    between atoms: C_23  and  C_24
REMARK   12  A    between atoms: C_26  and  C_28
REMARK   13  A    between atoms: C_27  and  C_29
REMARK                            x       y       z     vdW  Elec       q    Type
REMARK                         _______ _______ _______ _____ _____    ______ ____
ROOT
ATOM     10  C   UNL     1     -13.029   8.641  20.280  0.00  0.00    -0.023 C 
ATOM     11  C   UNL     1     -13.311   8.956  18.759  0.00  0.00    +0.007 C 
ATOM     12  C   UNL     1     -12.066   9.355  17.877  0.00  0.00    +0.031 C 
ATOM     13  C   UNL     1     -14.435   8.588  21.009  0.00  0.00    +0.032 C 
ATOM     14  C   UNL     1     -12.189   9.804  20.874  0.00  0.00    +0.011 C 
ATOM     15  C   UNL     1     -14.225   7.878  18.134  0.00  0.00    +0.007 C 
ATOM     16  C   UNL     1     -11.263  10.468  18.614  0.00  0.00    +0.186 C 
ATOM     17  C   UNL     1     -15.424   7.587  20.368  0.00  0.00    +0.119 C 
ATOM     18  C   UNL     1     -10.939  10.135  20.066  0.00  0.00    +0.046 C 
ATOM     19  C   UNL     1     -15.567   7.799  18.862  0.00  0.00    +0.032 C 
ATOM     20  C   UNL     1     -12.249   7.323  20.506  0.00  0.00    +0.012 C 
ATOM     22  C   UNL     1     -12.569   9.956  16.532  0.00  0.00    +0.017 C 
ENDROOT
BRANCH  17   4
ATOM      4  O   UNL     1     -15.031   6.244  20.629  0.00  0.00    -0.391 OA
ATOM     35  H   UNL     1     -14.061   6.225  20.688  0.00  0.00    +0.210 HD
ENDBRANCH  17   4
BRANCH  16   3
ATOM      3  O   UNL     1     -10.024  10.747  17.962  0.00  0.00    -0.446 OA
BRANCH   3  25
ATOM      7  O   UNL     1     -10.436  13.004  18.081  0.00  0.00    -0.226 OA
ATOM      9  N   UNL     1      -8.777  12.138  16.709  0.00  0.00    -0.281 N 
ATOM     25  C   UNL     1      -9.804  12.056  17.626  0.00  0.00    +0.401 C 
ATOM     38  H   UNL     1      -8.329  11.276  16.416  0.00  0.00    +0.152 HD
BRANCH   9  27
ATOM     27  C   UNL     1      -8.298  13.382  16.151  0.00  0.00    +0.104 C 
ATOM     29  C   UNL     1      -6.921  13.731  16.676  0.00  0.00    +0.024 C 
ENDBRANCH   9  27
ENDBRANCH   3  25
ENDBRANCH  16   3
BRANCH  12  21
ATOM     21  C   UNL     1     -11.160   8.167  17.492  0.00  0.00    +0.166 C 
BRANCH  21   5
ATOM      5  O   UNL     1     -10.470   8.514  16.312  0.00  0.00    -0.394 OA
ATOM     36  H   UNL     1     -11.020   9.157  15.832  0.00  0.00    +0.209 HD
ENDBRANCH  21   5
ENDBRANCH  12  21
BRANCH  13  23
ATOM     23  C   UNL     1     -14.368   8.354  22.526  0.00  0.00    +0.102 C 
BRANCH  23  24
ATOM      6  O   UNL     1     -15.089  10.645  22.823  0.00  0.00    -0.276 OA
ATOM      8  N   UNL     1     -14.173   9.488  24.618  0.00  0.00    -0.311 N 
ATOM     24  C   UNL     1     -14.596   9.628  23.305  0.00  0.00    +0.214 C 
ATOM     37  H   UNL     1     -13.746   8.616  24.916  0.00  0.00    +0.149 HD
BRANCH   8  26
ATOM     26  C   UNL     1     -14.267  10.549  25.595  0.00  0.00    +0.139 C 
BRANCH  26  28
ATOM      1  F   UNL     1      -9.492  10.381  26.574  0.00  0.00    -0.205 F 
ATOM      2  F   UNL     1     -12.571  10.526  30.168  0.00  0.00    -0.205 F 
ATOM     28  C   UNL     1     -13.128  10.515  26.572  0.00  0.00    -0.025 A 
ATOM     30  C   UNL     1     -13.384  10.536  27.943  0.00  0.00    +0.043 A 
ATOM     31  C   UNL     1     -11.812  10.463  26.110  0.00  0.00    +0.043 A 
ATOM     32  C   UNL     1     -10.754  10.431  27.018  0.00  0.00    +0.126 A 
ATOM     33  C   UNL     1     -12.326  10.506  28.852  0.00  0.00    +0.126 A 
ATOM     34  C   UNL     1     -11.011  10.453  28.389  0.00  0.00    +0.076 A 
ENDBRANCH  26  28
ENDBRANCH   8  26
ENDBRANCH  23  24
ENDBRANCH  13  23
TORSDOF 10
ENDMDL
MODEL 9
REMARK VINA RESULT:      -6.5      5.611     11.423
REMARK  Name = 44716868
REMARK  13 active torsions:
REMARK  status: ('A' for Active; 'I' for Inactive)
REMARK    1  A    between atoms: O_3  and  C_16
REMARK    2  A    between atoms: O_3  and  C_25
REMARK    3  A    between atoms: O_4  and  C_17
REMARK    4  A    between atoms: O_5  and  C_21
REMARK    5  A    between atoms: N_8  and  C_26
REMARK    6  A    between atoms: N_9  and  C_27
REMARK    7  A    between atoms: C_10  and  C_20
REMARK    8  A    between atoms: C_12  and  C_21
REMARK    9  A    between atoms: C_12  and  C_22
REMARK   10  A    between atoms: C_13  and  C_23
REMARK   11  A    between atoms: C_23  and  C_24
REMARK   12  A    between atoms: C_26  and  C_28
REMARK   13  A    between atoms: C_27  and  C_29
REMARK                            x       y       z     vdW  Elec       q    Type
REMARK                         _______ _______ _______ _____ _____    ______ ____
ROOT
ATOM     10  C   UNL     1      14.573   9.943  18.661  0.00  0.00    -0.023 C 
ATOM     11  C   UNL     1      14.959   8.420  18.811  0.00  0.00    +0.007 C 
ATOM     12  C   UNL     1      15.587   7.982  20.190  0.00  0.00    +0.031 C 
ATOM     13  C   UNL     1      14.277  10.195  17.125  0.00  0.00    +0.032 C 
ATOM     14  C   UNL     1      15.792  10.802  19.095  0.00  0.00    +0.011 C 
ATOM     15  C   UNL     1      13.818   7.510  18.304  0.00  0.00    +0.007 C 
ATOM     16  C   UNL     1      16.740   8.964  20.553  0.00  0.00    +0.186 C 
ATOM     17  C   UNL     1      13.203   9.249  16.541  0.00  0.00    +0.119 C 
ATOM     18  C   UNL     1      16.346  10.435  20.466  0.00  0.00    +0.046 C 
ATOM     19  C   UNL     1      13.505   7.781  16.833  0.00  0.00    +0.032 C 
ATOM     20  C   UNL     1      13.359  10.363  19.525  0.00  0.00    +0.012 C 
ATOM     22  C   UNL     1      16.213   6.565  20.036  0.00  0.00    +0.017 C 
ENDROOT
BRANCH  17   4
ATOM      4  O   UNL     1      11.909   9.581  17.034  0.00  0.00    -0.391 OA
ATOM     35  H   UNL     1      11.470   8.754  17.293  0.00  0.00    +0.210 HD
ENDBRANCH  17   4
BRANCH  16   3
ATOM      3  O   UNL     1      17.231   8.740  21.875  0.00  0.00    -0.446 OA
BRANCH   3  25
ATOM      7  O   UNL     1      19.447   9.335  21.768  0.00  0.00    -0.226 OA
ATOM      9  N   UNL     1      18.788   7.192  22.364  0.00  0.00    -0.281 N 
ATOM     25  C   UNL     1      18.574   8.500  21.983  0.00  0.00    +0.401 C 
ATOM     38  H   UNL     1      17.977   6.601  22.516  0.00  0.00    +0.152 HD
BRANCH   9  27
ATOM     27  C   UNL     1      20.099   6.619  22.566  0.00  0.00    +0.104 C 
ATOM     29  C   UNL     1      20.559   5.844  21.349  0.00  0.00    +0.024 C 
ENDBRANCH   9  27
ENDBRANCH   3  25
ENDBRANCH  16   3
BRANCH  12  21
ATOM     21  C   UNL     1      14.564   7.864  21.339  0.00  0.00    +0.166 C 
BRANCH  21   5
ATOM      5  O   UNL     1      15.097   6.985  22.305  0.00  0.00    -0.394 OA
ATOM     36  H   UNL     1      15.042   7.434  23.166  0.00  0.00    +0.209 HD
ENDBRANCH  21   5
ENDBRANCH  12  21
BRANCH  13  23
ATOM     23  C   UNL     1      13.942  11.651  16.762  0.00  0.00    +0.102 C 
BRANCH  23  24
ATOM      6  O   UNL     1      15.570  11.905  14.990  0.00  0.00    -0.276 OA
ATOM      8  N   UNL     1      13.349  12.460  14.596  0.00  0.00    -0.311 N 
ATOM     24  C   UNL     1      14.407  12.007  15.369  0.00  0.00    +0.214 C 
ATOM     37  H   UNL     1      12.425  12.540  15.010  0.00  0.00    +0.149 HD
BRANCH   8  26
ATOM     26  C   UNL     1      13.498  12.874  13.220  0.00  0.00    +0.139 C 
BRANCH  26  28
ATOM      1  F   UNL     1       8.714  12.071  12.716  0.00  0.00    -0.205 F 
ATOM      2  F   UNL     1      11.552  11.469   8.974  0.00  0.00    -0.205 F 
ATOM     28  C   UNL     1      12.313  12.485  12.384  0.00  0.00    -0.025 A 
ATOM     30  C   UNL     1      12.487  12.151  11.041  0.00  0.00    +0.043 A 
ATOM     31  C   UNL     1      11.038  12.458  12.949  0.00  0.00    +0.043 A 
ATOM     32  C   UNL     1       9.937  12.097  12.173  0.00  0.00    +0.126 A 
ATOM     33  C   UNL     1      11.386  11.790  10.264  0.00  0.00    +0.126 A 
ATOM     34  C   UNL     1      10.111  11.763  10.830  0.00  0.00    +0.076 A 
ENDBRANCH  26  28
ENDBRANCH   8  26
ENDBRANCH  23  24
ENDBRANCH  13  23
TORSDOF 10
ENDMDL
MODEL 10
REMARK VINA RESULT:      -6.4      4.108      8.714
REMARK  Name = 44716868
REMARK  13 active torsions:
REMARK  status: ('A' for Active; 'I' for Inactive)
REMARK    1  A    between atoms: O_3  and  C_16
REMARK    2  A    between atoms: O_3  and  C_25
REMARK    3  A    between atoms: O_4  and  C_17
REMARK    4  A    between atoms: O_5  and  C_21
REMARK    5  A    between atoms: N_8  and  C_26
REMARK    6  A    between atoms: N_9  and  C_27
REMARK    7  A    between atoms: C_10  and  C_20
REMARK    8  A    between atoms: C_12  and  C_21
REMARK    9  A    between atoms: C_12  and  C_22
REMARK   10  A    between atoms: C_13  and  C_23
REMARK   11  A    between atoms: C_23  and  C_24
REMARK   12  A    between atoms: C_26  and  C_28
REMARK   13  A    between atoms: C_27  and  C_29
REMARK                            x       y       z     vdW  Elec       q    Type
REMARK                         _______ _______ _______ _____ _____    ______ ____
ROOT
ATOM     10  C   UNL     1      14.808   9.739  19.091  0.00  0.00    -0.023 C 
ATOM     11  C   UNL     1      15.369   8.268  18.974  0.00  0.00    +0.007 C 
ATOM     12  C   UNL     1      16.117   7.693  20.238  0.00  0.00    +0.031 C 
ATOM     13  C   UNL     1      14.402  10.196  17.628  0.00  0.00    +0.032 C 
ATOM     14  C   UNL     1      15.946  10.656  19.615  0.00  0.00    +0.011 C 
ATOM     15  C   UNL     1      14.309   7.321  18.365  0.00  0.00    +0.007 C 
ATOM     16  C   UNL     1      17.171   8.735  20.716  0.00  0.00    +0.186 C 
ATOM     17  C   UNL     1      13.409   9.234  16.936  0.00  0.00    +0.119 C 
ATOM     18  C   UNL     1      16.613  10.144  20.886  0.00  0.00    +0.046 C 
ATOM     19  C   UNL     1      13.888   7.785  16.971  0.00  0.00    +0.032 C 
ATOM     20  C   UNL     1      13.605   9.869  20.055  0.00  0.00    +0.012 C 
ATOM     22  C   UNL     1      16.887   6.404  19.830  0.00  0.00    +0.017 C 
ENDROOT
BRANCH  17   4
ATOM      4  O   UNL     1      12.116   9.327  17.524  0.00  0.00    -0.391 OA
ATOM     35  H   UNL     1      12.159   8.915  18.403  0.00  0.00    +0.210 HD
ENDBRANCH  17   4
BRANCH  16   3
ATOM      3  O   UNL     1      17.757   8.363  21.964  0.00  0.00    -0.446 OA
BRANCH   3  25
ATOM      7  O   UNL     1      19.950   8.778  21.423  0.00  0.00    -0.226 OA
ATOM      9  N   UNL     1      19.318   6.858  22.562  0.00  0.00    -0.281 N 
ATOM     25  C   UNL     1      19.093   8.066  21.935  0.00  0.00    +0.401 C 
ATOM     38  H   UNL     1      18.520   6.367  22.952  0.00  0.00    +0.152 HD
BRANCH   9  27
ATOM     27  C   UNL     1      20.626   6.260  22.702  0.00  0.00    +0.104 C 
ATOM     29  C   UNL     1      21.002   5.456  21.475  0.00  0.00    +0.024 C 
ENDBRANCH   9  27
ENDBRANCH   3  25
ENDBRANCH  16   3
BRANCH  12  21
ATOM     21  C   UNL     1      15.178   7.274  21.388  0.00  0.00    +0.166 C 
BRANCH  21   5
ATOM      5  O   UNL     1      15.793   6.211  22.083  0.00  0.00    -0.394 OA
ATOM     36  H   UNL     1      16.131   5.587  21.418  0.00  0.00    +0.209 HD
ENDBRANCH  21   5
ENDBRANCH  12  21
BRANCH  13  23
ATOM     23  C   UNL     1      13.888  11.640  17.523  0.00  0.00    +0.102 C 
BRANCH  23  24
ATOM      6  O   UNL     1      13.998  13.339  15.803  0.00  0.00    -0.276 OA
ATOM      8  N   UNL     1      15.751  11.832  16.041  0.00  0.00    -0.311 N 
ATOM     24  C   UNL     1      14.520  12.381  16.367  0.00  0.00    +0.214 C 
ATOM     37  H   UNL     1      16.085  11.017  16.546  0.00  0.00    +0.149 HD
BRANCH   8  26
ATOM     26  C   UNL     1      16.582  12.336  14.972  0.00  0.00    +0.139 C 
BRANCH  26  28
ATOM      1  F   UNL     1      20.437  13.349  17.782  0.00  0.00    -0.205 F 
ATOM      2  F   UNL     1      21.030  10.608  13.966  0.00  0.00    -0.205 F 
ATOM     28  C   UNL     1      18.043  12.211  15.289  0.00  0.00    -0.025 A 
ATOM     30  C   UNL     1      18.874  11.453  14.464  0.00  0.00    +0.043 A 
ATOM     31  C   UNL     1      18.572  12.851  16.411  0.00  0.00    +0.043 A 
ATOM     32  C   UNL     1      19.930  12.734  16.706  0.00  0.00    +0.126 A 
ATOM     33  C   UNL     1      20.232  11.336  14.759  0.00  0.00    +0.126 A 
ATOM     34  C   UNL     1      20.760  11.976  15.880  0.00  0.00    +0.076 A 
ENDBRANCH  26  28
ENDBRANCH   8  26
ENDBRANCH  23  24
ENDBRANCH  13  23
TORSDOF 10
ENDMDL
