MODEL 1
REMARK VINA RESULT:      -6.9      0.000      0.000
REMARK  Name = 38027289
REMARK  10 active torsions:
REMARK  status: ('A' for Active; 'I' for Inactive)
REMARK    1  A    between atoms: N_3  and  C_14
REMARK    2  A    between atoms: N_4  and  C_13
REMARK    3  A    between atoms: C_5  and  C_9
REMARK    4  A    between atoms: C_6  and  C_13
REMARK    5  A    between atoms: C_8  and  C_12
REMARK    6  A    between atoms: C_9  and  C_15
REMARK    7  A    between atoms: C_9  and  C_16
REMARK    8  A    between atoms: C_10  and  C_20
REMARK    9  A    between atoms: C_12  and  C_19
REMARK   10  A    between atoms: C_23  and  C_24
REMARK                            x       y       z     vdW  Elec       q    Type
REMARK                         _______ _______ _______ _____ _____    ______ ____
ROOT
ATOM      5  C   UNL     1      13.304   8.295  19.020  0.00  0.00    +0.000 C 
ATOM      6  C   UNL     1      14.850   8.354  19.122  0.00  0.00    +0.032 C 
ATOM      7  C   UNL     1      12.680   9.581  19.582  0.00  0.00    +0.012 C 
ATOM      8  C   UNL     1      13.064   9.820  21.055  0.00  0.00    +0.023 C 
ATOM     10  C   UNL     1      14.550   9.632  21.287  0.00  0.00    -0.073 C 
ATOM     11  C   UNL     1      15.333   8.986  20.406  0.00  0.00    -0.022 C 
ATOM     20  C   UNL     1      15.122  10.244  22.535  0.00  0.00    +0.039 C 
ENDROOT
BRANCH   5   9
ATOM      9  C   UNL     1      12.837   8.078  17.578  0.00  0.00    -0.013 C 
ATOM     15  C   UNL     1      11.367   8.457  17.432  0.00  0.00    +0.007 C 
ATOM     16  C   UNL     1      13.701   8.881  16.612  0.00  0.00    +0.007 C 
ENDBRANCH   5   9
BRANCH   8  12
ATOM     12  C   UNL     1      12.244   8.927  21.991  0.00  0.00    +0.103 C 
BRANCH  12  19
ATOM      1  O   UNL     1       9.938   9.278  22.635  0.00  0.00    -0.276 OA
ATOM      3  N   UNL     1      11.540  10.860  23.210  0.00  0.00    -0.312 N 
ATOM     19  C   UNL     1      11.099   9.677  22.634  0.00  0.00    +0.214 C 
ATOM     30  H   UNL     1      12.531  11.079  23.190  0.00  0.00    +0.149 HD
BRANCH   3  14
ATOM     14  C   UNL     1      10.662  11.779  23.892  0.00  0.00    +0.073 C 
ATOM     17  C   UNL     1      10.749  13.181  23.305  0.00  0.00    +0.022 C 
ATOM     18  C   UNL     1      11.081  11.994  25.342  0.00  0.00    +0.022 C 
ATOM     21  C   UNL     1      11.986  13.794  23.955  0.00  0.00    +0.002 C 
ATOM     22  C   UNL     1      12.173  13.060  25.283  0.00  0.00    +0.002 C 
ENDBRANCH   3  14
ENDBRANCH  12  19
ENDBRANCH   8  12
BRANCH   6  13
ATOM     13  C   UNL     1      15.467   6.959  18.973  0.00  0.00    +0.112 C 
BRANCH  13   4
ATOM      2  O   UNL     1      17.804   5.390  18.410  0.00  0.00    -0.270 OA
ATOM      4  N   UNL     1      16.625   6.826  19.800  0.00  0.00    -0.311 N 
ATOM     23  C   UNL     1      17.722   6.040  19.449  0.00  0.00    +0.244 C 
ATOM     31  H   UNL     1      16.622   7.329  20.680  0.00  0.00    +0.149 HD
BRANCH  23  24
ATOM     24  C   UNL     1      18.836   5.985  20.430  0.00  0.00    +0.037 A 
ATOM     25  C   UNL     1      18.786   6.762  21.588  0.00  0.00    +0.013 A 
ATOM     26  C   UNL     1      19.931   5.155  20.194  0.00  0.00    +0.013 A 
ATOM     27  C   UNL     1      19.831   6.709  22.510  0.00  0.00    +0.001 A 
ATOM     28  C   UNL     1      20.977   5.100  21.116  0.00  0.00    +0.001 A 
ATOM     29  C   UNL     1      20.927   5.878  22.273  0.00  0.00    +0.000 A 
ENDBRANCH  23  24
ENDBRANCH  13   4
ENDBRANCH   6  13
TORSDOF 7
ENDMDL
MODEL 2
REMARK VINA RESULT:      -6.9      2.791      4.948
REMARK  Name = 38027289
REMARK  10 active torsions:
REMARK  status: ('A' for Active; 'I' for Inactive)
REMARK    1  A    between atoms: N_3  and  C_14
REMARK    2  A    between atoms: N_4  and  C_13
REMARK    3  A    between atoms: C_5  and  C_9
REMARK    4  A    between atoms: C_6  and  C_13
REMARK    5  A    between atoms: C_8  and  C_12
REMARK    6  A    between atoms: C_9  and  C_15
REMARK    7  A    between atoms: C_9  and  C_16
REMARK    8  A    between atoms: C_10  and  C_20
REMARK    9  A    between atoms: C_12  and  C_19
REMARK   10  A    between atoms: C_23  and  C_24
REMARK                            x       y       z     vdW  Elec       q    Type
REMARK                         _______ _______ _______ _____ _____    ______ ____
ROOT
ATOM      5  C   UNL     1      12.992   9.072  20.214  0.00  0.00    +0.000 C 
ATOM      6  C   UNL     1      12.088   8.063  19.462  0.00  0.00    +0.032 C 
ATOM      7  C   UNL     1      12.821  10.483  19.631  0.00  0.00    +0.012 C 
ATOM      8  C   UNL     1      13.168  10.540  18.131  0.00  0.00    +0.023 C 
ATOM     10  C   UNL     1      12.522   9.406  17.360  0.00  0.00    -0.073 C 
ATOM     11  C   UNL     1      12.033   8.314  17.973  0.00  0.00    -0.022 C 
ATOM     20  C   UNL     1      12.409   9.578  15.871  0.00  0.00    +0.039 C 
ENDROOT
BRANCH   5   9
ATOM      9  C   UNL     1      12.696   9.092  21.716  0.00  0.00    -0.013 C 
ATOM     15  C   UNL     1      13.516  10.178  22.407  0.00  0.00    +0.007 C 
ATOM     16  C   UNL     1      11.205   9.302  21.962  0.00  0.00    +0.007 C 
ENDBRANCH   5   9
BRANCH   8  12
ATOM     12  C   UNL     1      14.685  10.556  17.915  0.00  0.00    +0.103 C 
BRANCH  12  19
ATOM      1  O   UNL     1      15.184  12.894  18.285  0.00  0.00    -0.276 OA
ATOM      3  N   UNL     1      16.148  11.287  19.659  0.00  0.00    -0.312 N 
ATOM     19  C   UNL     1      15.346  11.723  18.613  0.00  0.00    +0.214 C 
ATOM     30  H   UNL     1      16.182  10.296  19.876  0.00  0.00    +0.149 HD
BRANCH   3  14
ATOM     14  C   UNL     1      16.903  12.185  20.498  0.00  0.00    +0.073 C 
ATOM     17  C   UNL     1      18.382  12.186  20.134  0.00  0.00    +0.022 C 
ATOM     18  C   UNL     1      16.916  11.726  21.953  0.00  0.00    +0.022 C 
ATOM     21  C   UNL     1      18.953  10.958  20.838  0.00  0.00    +0.002 C 
ATOM     22  C   UNL     1      18.034  10.690  22.031  0.00  0.00    +0.002 C 
ENDBRANCH   3  14
ENDBRANCH  12  19
ENDBRANCH   8  12
BRANCH   6  13
ATOM     13  C   UNL     1      12.536   6.620  19.722  0.00  0.00    +0.112 C 
BRANCH  13   4
ATOM      2  O   UNL     1      14.833   6.860  18.016  0.00  0.00    -0.270 OA
ATOM      4  N   UNL     1      13.907   6.579  20.125  0.00  0.00    -0.311 N 
ATOM     23  C   UNL     1      14.966   6.704  19.227  0.00  0.00    +0.244 C 
ATOM     31  H   UNL     1      14.092   6.443  21.112  0.00  0.00    +0.149 HD
BRANCH  23  24
ATOM     24  C   UNL     1      16.332   6.613  19.801  0.00  0.00    +0.037 A 
ATOM     25  C   UNL     1      16.648   7.309  20.968  0.00  0.00    +0.013 A 
ATOM     26  C   UNL     1      17.301   5.829  19.174  0.00  0.00    +0.013 A 
ATOM     27  C   UNL     1      17.931   7.223  21.508  0.00  0.00    +0.001 A 
ATOM     28  C   UNL     1      18.584   5.740  19.714  0.00  0.00    +0.001 A 
ATOM     29  C   UNL     1      18.899   6.438  20.881  0.00  0.00    +0.000 A 
ENDBRANCH  23  24
ENDBRANCH  13   4
ENDBRANCH   6  13
TORSDOF 7
ENDMDL
MODEL 3
REMARK VINA RESULT:      -6.8     26.708     29.858
REMARK  Name = 38027289
REMARK  10 active torsions:
REMARK  status: ('A' for Active; 'I' for Inactive)
REMARK    1  A    between atoms: N_3  and  C_14
REMARK    2  A    between atoms: N_4  and  C_13
REMARK    3  A    between atoms: C_5  and  C_9
REMARK    4  A    between atoms: C_6  and  C_13
REMARK    5  A    between atoms: C_8  and  C_12
REMARK    6  A    between atoms: C_9  and  C_15
REMARK    7  A    between atoms: C_9  and  C_16
REMARK    8  A    between atoms: C_10  and  C_20
REMARK    9  A    between atoms: C_12  and  C_19
REMARK   10  A    between atoms: C_23  and  C_24
REMARK                            x       y       z     vdW  Elec       q    Type
REMARK                         _______ _______ _______ _____ _____    ______ ____
ROOT
ATOM      5  C   UNL     1      -3.095 -12.231  12.667  0.00  0.00    +0.000 C 
ATOM      6  C   UNL     1      -2.021 -11.123  12.531  0.00  0.00    +0.032 C 
ATOM      7  C   UNL     1      -3.654 -12.608  11.287  0.00  0.00    +0.012 C 
ATOM      8  C   UNL     1      -4.285 -11.402  10.565  0.00  0.00    +0.023 C 
ATOM     10  C   UNL     1      -3.391 -10.180  10.622  0.00  0.00    -0.073 C 
ATOM     11  C   UNL     1      -2.376 -10.080  11.497  0.00  0.00    -0.022 C 
ATOM     20  C   UNL     1      -3.662  -9.097   9.616  0.00  0.00    +0.039 C 
ENDROOT
BRANCH   5   9
ATOM      9  C   UNL     1      -2.541 -13.479  13.361  0.00  0.00    -0.013 C 
ATOM     15  C   UNL     1      -3.470 -13.920  14.486  0.00  0.00    +0.007 C 
ATOM     16  C   UNL     1      -2.342 -14.605  12.351  0.00  0.00    +0.007 C 
ENDBRANCH   5   9
BRANCH   8  12
ATOM     12  C   UNL     1      -5.677 -11.090  11.124  0.00  0.00    +0.103 C 
BRANCH  12  19
ATOM      1  O   UNL     1      -7.956 -11.136  10.312  0.00  0.00    -0.276 OA
ATOM      3  N   UNL     1      -6.202 -11.438   8.818  0.00  0.00    -0.312 N 
ATOM     19  C   UNL     1      -6.755 -11.218  10.071  0.00  0.00    +0.214 C 
ATOM     30  H   UNL     1      -5.191 -11.448   8.718  0.00  0.00    +0.149 HD
BRANCH   3  14
ATOM     14  C   UNL     1      -6.996 -11.601   7.625  0.00  0.00    +0.073 C 
ATOM     17  C   UNL     1      -6.190 -12.226   6.494  0.00  0.00    +0.022 C 
ATOM     18  C   UNL     1      -7.419 -10.260   7.036  0.00  0.00    +0.022 C 
ATOM     21  C   UNL     1      -5.415 -11.061   5.884  0.00  0.00    +0.002 C 
ATOM     22  C   UNL     1      -6.227  -9.804   6.197  0.00  0.00    +0.002 C 
ENDBRANCH   3  14
ENDBRANCH  12  19
ENDBRANCH   8  12
BRANCH   6  13
ATOM     13  C   UNL     1      -1.758 -10.440  13.878  0.00  0.00    +0.112 C 
BRANCH  13   4
ATOM      2  O   UNL     1      -2.088 -10.929  16.687  0.00  0.00    -0.270 OA
ATOM      4  N   UNL     1      -2.967 -10.316  14.629  0.00  0.00    -0.311 N 
ATOM     23  C   UNL     1      -3.040 -10.574  15.997  0.00  0.00    +0.244 C 
ATOM     31  H   UNL     1      -3.798 -10.035  14.121  0.00  0.00    +0.149 HD
BRANCH  23  24
ATOM     24  C   UNL     1      -4.377 -10.426  16.627  0.00  0.00    +0.037 A 
ATOM     25  C   UNL     1      -4.601 -10.915  17.914  0.00  0.00    +0.013 A 
ATOM     26  C   UNL     1      -5.409  -9.795  15.932  0.00  0.00    +0.013 A 
ATOM     27  C   UNL     1      -5.856 -10.774  18.506  0.00  0.00    +0.001 A 
ATOM     28  C   UNL     1      -6.664  -9.653  16.523  0.00  0.00    +0.001 A 
ATOM     29  C   UNL     1      -6.887 -10.143  17.810  0.00  0.00    +0.000 A 
ENDBRANCH  23  24
ENDBRANCH  13   4
ENDBRANCH   6  13
TORSDOF 7
ENDMDL
MODEL 4
REMARK VINA RESULT:      -6.8      1.685      2.444
REMARK  Name = 38027289
REMARK  10 active torsions:
REMARK  status: ('A' for Active; 'I' for Inactive)
REMARK    1  A    between atoms: N_3  and  C_14
REMARK    2  A    between atoms: N_4  and  C_13
REMARK    3  A    between atoms: C_5  and  C_9
REMARK    4  A    between atoms: C_6  and  C_13
REMARK    5  A    between atoms: C_8  and  C_12
REMARK    6  A    between atoms: C_9  and  C_15
REMARK    7  A    between atoms: C_9  and  C_16
REMARK    8  A    between atoms: C_10  and  C_20
REMARK    9  A    between atoms: C_12  and  C_19
REMARK   10  A    between atoms: C_23  and  C_24
REMARK                            x       y       z     vdW  Elec       q    Type
REMARK                         _______ _______ _______ _____ _____    ______ ____
ROOT
ATOM      5  C   UNL     1      13.051   8.628  20.372  0.00  0.00    +0.000 C 
ATOM      6  C   UNL     1      14.176   8.442  19.322  0.00  0.00    +0.032 C 
ATOM      7  C   UNL     1      12.838  10.120  20.671  0.00  0.00    +0.012 C 
ATOM      8  C   UNL     1      14.117  10.797  21.200  0.00  0.00    +0.023 C 
ATOM     10  C   UNL     1      15.330  10.440  20.364  0.00  0.00    -0.073 C 
ATOM     11  C   UNL     1      15.332   9.393  19.521  0.00  0.00    -0.022 C 
ATOM     20  C   UNL     1      16.524  11.345  20.485  0.00  0.00    +0.039 C 
ENDROOT
BRANCH   5   9
ATOM      9  C   UNL     1      11.733   7.998  19.912  0.00  0.00    -0.013 C 
ATOM     15  C   UNL     1      10.674   8.123  21.002  0.00  0.00    +0.007 C 
ATOM     16  C   UNL     1      11.256   8.647  18.617  0.00  0.00    +0.007 C 
ENDBRANCH   5   9
BRANCH   8  12
ATOM     12  C   UNL     1      14.350  10.459  22.676  0.00  0.00    +0.103 C 
BRANCH  12  19
ATOM      1  O   UNL     1      15.273  12.100  24.197  0.00  0.00    -0.276 OA
ATOM      3  N   UNL     1      13.054  12.279  23.529  0.00  0.00    -0.312 N 
ATOM     19  C   UNL     1      14.311  11.690  23.554  0.00  0.00    +0.214 C 
ATOM     30  H   UNL     1      12.336  11.884  22.930  0.00  0.00    +0.149 HD
BRANCH   3  14
ATOM     14  C   UNL     1      12.727  13.468  24.277  0.00  0.00    +0.073 C 
ATOM     17  C   UNL     1      12.236  13.134  25.679  0.00  0.00    +0.022 C 
ATOM     18  C   UNL     1      11.540  14.210  23.672  0.00  0.00    +0.022 C 
ATOM     21  C   UNL     1      10.763  12.777  25.495  0.00  0.00    +0.002 C 
ATOM     22  C   UNL     1      10.307  13.504  24.230  0.00  0.00    +0.002 C 
ENDBRANCH   3  14
ENDBRANCH  12  19
ENDBRANCH   8  12
BRANCH   6  13
ATOM     13  C   UNL     1      14.694   7.000  19.318  0.00  0.00    +0.112 C 
BRANCH  13   4
ATOM      2  O   UNL     1      16.935   5.454  18.406  0.00  0.00    -0.270 OA
ATOM      4  N   UNL     1      15.983   6.921  19.930  0.00  0.00    -0.311 N 
ATOM     23  C   UNL     1      17.020   6.143  19.419  0.00  0.00    +0.244 C 
ATOM     31  H   UNL     1      16.122   7.459  20.778  0.00  0.00    +0.149 HD
BRANCH  23  24
ATOM     24  C   UNL     1      18.290   6.148  20.188  0.00  0.00    +0.037 A 
ATOM     25  C   UNL     1      19.267   5.185  19.931  0.00  0.00    +0.013 A 
ATOM     26  C   UNL     1      18.509   7.117  21.167  0.00  0.00    +0.013 A 
ATOM     27  C   UNL     1      20.460   5.190  20.652  0.00  0.00    +0.001 A 
ATOM     28  C   UNL     1      19.703   7.124  21.888  0.00  0.00    +0.001 A 
ATOM     29  C   UNL     1      20.679   6.161  21.630  0.00  0.00    +0.000 A 
ENDBRANCH  23  24
ENDBRANCH  13   4
ENDBRANCH   6  13
TORSDOF 7
ENDMDL
MODEL 5
REMARK VINA RESULT:      -6.7     26.611     29.652
REMARK  Name = 38027289
REMARK  10 active torsions:
REMARK  status: ('A' for Active; 'I' for Inactive)
REMARK    1  A    between atoms: N_3  and  C_14
REMARK    2  A    between atoms: N_4  and  C_13
REMARK    3  A    between atoms: C_5  and  C_9
REMARK    4  A    between atoms: C_6  and  C_13
REMARK    5  A    between atoms: C_8  and  C_12
REMARK    6  A    between atoms: C_9  and  C_15
REMARK    7  A    between atoms: C_9  and  C_16
REMARK    8  A    between atoms: C_10  and  C_20
REMARK    9  A    between atoms: C_12  and  C_19
REMARK   10  A    between atoms: C_23  and  C_24
REMARK                            x       y       z     vdW  Elec       q    Type
REMARK                         _______ _______ _______ _____ _____    ______ ____
ROOT
ATOM      5  C   UNL     1      -2.928 -12.177  12.540  0.00  0.00    +0.000 C 
ATOM      6  C   UNL     1      -1.919 -11.010  12.397  0.00  0.00    +0.032 C 
ATOM      7  C   UNL     1      -3.506 -12.558  11.168  0.00  0.00    +0.012 C 
ATOM      8  C   UNL     1      -4.220 -11.374  10.489  0.00  0.00    +0.023 C 
ATOM     10  C   UNL     1      -3.391 -10.107  10.546  0.00  0.00    -0.073 C 
ATOM     11  C   UNL     1      -2.358  -9.968  11.396  0.00  0.00    -0.022 C 
ATOM     20  C   UNL     1      -3.748  -9.021   9.571  0.00  0.00    +0.039 C 
ENDROOT
BRANCH   5   9
ATOM      9  C   UNL     1      -2.288 -13.406  13.193  0.00  0.00    -0.013 C 
ATOM     15  C   UNL     1      -3.016 -13.763  14.485  0.00  0.00    +0.007 C 
ATOM     16  C   UNL     1      -2.295 -14.586  12.226  0.00  0.00    +0.007 C 
ENDBRANCH   5   9
BRANCH   8  12
ATOM     12  C   UNL     1      -5.610 -11.147  11.093  0.00  0.00    +0.103 C 
BRANCH  12  19
ATOM      1  O   UNL     1      -6.665 -13.249  10.522  0.00  0.00    -0.276 OA
ATOM      3  N   UNL     1      -6.526 -12.607  12.751  0.00  0.00    -0.312 N 
ATOM     19  C   UNL     1      -6.321 -12.449  11.388  0.00  0.00    +0.214 C 
ATOM     30  H   UNL     1      -6.165 -11.904  13.389  0.00  0.00    +0.149 HD
BRANCH   3  14
ATOM     14  C   UNL     1      -7.184 -13.757  13.321  0.00  0.00    +0.073 C 
ATOM     17  C   UNL     1      -8.550 -13.398  13.890  0.00  0.00    +0.022 C 
ATOM     18  C   UNL     1      -6.441 -14.290  14.540  0.00  0.00    +0.022 C 
ATOM     21  C   UNL     1      -8.252 -12.817  15.269  0.00  0.00    +0.002 C 
ATOM     22  C   UNL     1      -6.918 -13.424  15.704  0.00  0.00    +0.002 C 
ENDBRANCH   3  14
ENDBRANCH  12  19
ENDBRANCH   8  12
BRANCH   6  13
ATOM     13  C   UNL     1      -1.654 -10.340  13.750  0.00  0.00    +0.112 C 
BRANCH  13   4
ATOM      2  O   UNL     1      -1.935 -10.923  16.547  0.00  0.00    -0.270 OA
ATOM      4  N   UNL     1      -2.854 -10.262  14.522  0.00  0.00    -0.311 N 
ATOM     23  C   UNL     1      -2.903 -10.563  15.882  0.00  0.00    +0.244 C 
ATOM     31  H   UNL     1      -3.697  -9.980  14.034  0.00  0.00    +0.149 HD
BRANCH  23  24
ATOM     24  C   UNL     1      -4.233 -10.459  16.534  0.00  0.00    +0.037 A 
ATOM     25  C   UNL     1      -4.424 -10.971  17.818  0.00  0.00    +0.013 A 
ATOM     26  C   UNL     1      -5.292  -9.847  15.864  0.00  0.00    +0.013 A 
ATOM     27  C   UNL     1      -5.672 -10.872  18.431  0.00  0.00    +0.001 A 
ATOM     28  C   UNL     1      -6.542  -9.747  16.477  0.00  0.00    +0.001 A 
ATOM     29  C   UNL     1      -6.731 -10.260  17.760  0.00  0.00    +0.000 A 
ENDBRANCH  23  24
ENDBRANCH  13   4
ENDBRANCH   6  13
TORSDOF 7
ENDMDL
MODEL 6
REMARK VINA RESULT:      -6.7     26.879     30.420
REMARK  Name = 38027289
REMARK  10 active torsions:
REMARK  status: ('A' for Active; 'I' for Inactive)
REMARK    1  A    between atoms: N_3  and  C_14
REMARK    2  A    between atoms: N_4  and  C_13
REMARK    3  A    between atoms: C_5  and  C_9
REMARK    4  A    between atoms: C_6  and  C_13
REMARK    5  A    between atoms: C_8  and  C_12
REMARK    6  A    between atoms: C_9  and  C_15
REMARK    7  A    between atoms: C_9  and  C_16
REMARK    8  A    between atoms: C_10  and  C_20
REMARK    9  A    between atoms: C_12  and  C_19
REMARK   10  A    between atoms: C_23  and  C_24
REMARK                            x       y       z     vdW  Elec       q    Type
REMARK                         _______ _______ _______ _____ _____    ______ ____
ROOT
ATOM      5  C   UNL     1      -6.291 -10.389  15.657  0.00  0.00    +0.000 C 
ATOM      6  C   UNL     1      -6.961 -10.526  17.048  0.00  0.00    +0.032 C 
ATOM      7  C   UNL     1      -5.303 -11.542  15.422  0.00  0.00    +0.012 C 
ATOM      8  C   UNL     1      -4.198 -11.590  16.495  0.00  0.00    +0.023 C 
ATOM     10  C   UNL     1      -4.765 -11.459  17.894  0.00  0.00    -0.073 C 
ATOM     11  C   UNL     1      -6.006 -10.995  18.120  0.00  0.00    -0.022 C 
ATOM     20  C   UNL     1      -3.888 -11.919  19.024  0.00  0.00    +0.039 C 
ENDROOT
BRANCH   5   9
ATOM      9  C   UNL     1      -7.325 -10.353  14.528  0.00  0.00    -0.013 C 
ATOM     15  C   UNL     1      -6.631 -10.338  13.170  0.00  0.00    +0.007 C 
ATOM     16  C   UNL     1      -8.274 -11.543  14.637  0.00  0.00    +0.007 C 
ENDBRANCH   5   9
BRANCH   8  12
ATOM     12  C   UNL     1      -3.129 -10.523  16.234  0.00  0.00    +0.103 C 
BRANCH  12  19
ATOM      1  O   UNL     1      -1.009 -11.379  15.441  0.00  0.00    -0.276 OA
ATOM      3  N   UNL     1      -2.665 -10.823  13.908  0.00  0.00    -0.312 N 
ATOM     19  C   UNL     1      -2.134 -10.961  15.183  0.00  0.00    +0.214 C 
ATOM     30  H   UNL     1      -3.624 -10.505  13.803  0.00  0.00    +0.149 HD
BRANCH   3  14
ATOM     14  C   UNL     1      -1.936 -11.163  12.710  0.00  0.00    +0.073 C 
ATOM     17  C   UNL     1      -1.822  -9.974  11.765  0.00  0.00    +0.022 C 
ATOM     18  C   UNL     1      -2.677 -12.194  11.868  0.00  0.00    +0.022 C 
ATOM     21  C   UNL     1      -3.151  -9.952  11.015  0.00  0.00    +0.002 C 
ATOM     22  C   UNL     1      -3.679 -11.386  11.045  0.00  0.00    +0.002 C 
ENDBRANCH   3  14
ENDBRANCH  12  19
ENDBRANCH   8  12
BRANCH   6  13
ATOM     13  C   UNL     1      -7.610  -9.206  17.481  0.00  0.00    +0.112 C 
BRANCH  13   4
ATOM      2  O   UNL     1     -10.224  -8.831  16.356  0.00  0.00    -0.270 OA
ATOM      4  N   UNL     1      -8.861  -9.445  18.130  0.00  0.00    -0.311 N 
ATOM     23  C   UNL     1     -10.090  -9.236  17.508  0.00  0.00    +0.244 C 
ATOM     31  H   UNL     1      -8.826  -9.772  19.089  0.00  0.00    +0.149 HD
BRANCH  23  24
ATOM     24  C   UNL     1     -11.299  -9.504  18.327  0.00  0.00    +0.037 A 
ATOM     25  C   UNL     1     -11.167  -9.907  19.656  0.00  0.00    +0.013 A 
ATOM     26  C   UNL     1     -12.568  -9.352  17.768  0.00  0.00    +0.013 A 
ATOM     27  C   UNL     1     -12.303 -10.157  20.427  0.00  0.00    +0.001 A 
ATOM     28  C   UNL     1     -13.705  -9.602  18.538  0.00  0.00    +0.001 A 
ATOM     29  C   UNL     1     -13.571 -10.005  19.867  0.00  0.00    +0.000 A 
ENDBRANCH  23  24
ENDBRANCH  13   4
ENDBRANCH   6  13
TORSDOF 7
ENDMDL
MODEL 7
REMARK VINA RESULT:      -6.6     25.724     28.305
REMARK  Name = 38027289
REMARK  10 active torsions:
REMARK  status: ('A' for Active; 'I' for Inactive)
REMARK    1  A    between atoms: N_3  and  C_14
REMARK    2  A    between atoms: N_4  and  C_13
REMARK    3  A    between atoms: C_5  and  C_9
REMARK    4  A    between atoms: C_6  and  C_13
REMARK    5  A    between atoms: C_8  and  C_12
REMARK    6  A    between atoms: C_9  and  C_15
REMARK    7  A    between atoms: C_9  and  C_16
REMARK    8  A    between atoms: C_10  and  C_20
REMARK    9  A    between atoms: C_12  and  C_19
REMARK   10  A    between atoms: C_23  and  C_24
REMARK                            x       y       z     vdW  Elec       q    Type
REMARK                         _______ _______ _______ _____ _____    ______ ____
ROOT
ATOM      5  C   UNL     1     -12.894   8.047  20.436  0.00  0.00    +0.000 C 
ATOM      6  C   UNL     1     -12.260   9.252  21.176  0.00  0.00    +0.032 C 
ATOM      7  C   UNL     1     -11.891   7.441  19.441  0.00  0.00    +0.012 C 
ATOM      8  C   UNL     1     -11.419   8.467  18.393  0.00  0.00    +0.023 C 
ATOM     10  C   UNL     1     -11.028   9.785  19.030  0.00  0.00    -0.073 C 
ATOM     11  C   UNL     1     -11.401  10.112  20.279  0.00  0.00    -0.022 C 
ATOM     20  C   UNL     1     -10.157  10.698  18.213  0.00  0.00    +0.039 C 
ENDROOT
BRANCH   5   9
ATOM      9  C   UNL     1     -13.374   6.968  21.411  0.00  0.00    -0.013 C 
ATOM     15  C   UNL     1     -14.727   6.419  20.972  0.00  0.00    +0.007 C 
ATOM     16  C   UNL     1     -12.343   5.848  21.514  0.00  0.00    +0.007 C 
ENDBRANCH   5   9
BRANCH   8  12
ATOM     12  C   UNL     1     -12.480   8.675  17.308  0.00  0.00    +0.103 C 
BRANCH  12  19
ATOM      1  O   UNL     1     -10.760   8.404  15.628  0.00  0.00    -0.276 OA
ATOM      3  N   UNL     1     -12.983   8.033  15.060  0.00  0.00    -0.312 N 
ATOM     19  C   UNL     1     -11.950   8.364  15.926  0.00  0.00    +0.214 C 
ATOM     30  H   UNL     1     -13.932   7.989  15.417  0.00  0.00    +0.149 HD
BRANCH   3  14
ATOM     14  C   UNL     1     -12.769   7.692  13.674  0.00  0.00    +0.073 C 
ATOM     17  C   UNL     1     -12.786   8.926  12.782  0.00  0.00    +0.022 C 
ATOM     18  C   UNL     1     -13.914   6.856  13.113  0.00  0.00    +0.022 C 
ATOM     21  C   UNL     1     -14.266   9.208  12.542  0.00  0.00    +0.002 C 
ATOM     22  C   UNL     1     -14.984   7.869  12.713  0.00  0.00    +0.002 C 
ENDBRANCH   3  14
ENDBRANCH  12  19
ENDBRANCH   8  12
BRANCH   6  13
ATOM     13  C   UNL     1     -13.335  10.120  21.841  0.00  0.00    +0.112 C 
BRANCH  13   4
ATOM      2  O   UNL     1     -11.585  11.718  23.461  0.00  0.00    -0.270 OA
ATOM      4  N   UNL     1     -13.213  10.077  23.264  0.00  0.00    -0.311 N 
ATOM     23  C   UNL     1     -12.335  10.892  23.976  0.00  0.00    +0.244 C 
ATOM     31  H   UNL     1     -13.797   9.409  23.756  0.00  0.00    +0.149 HD
BRANCH  23  24
ATOM     24  C   UNL     1     -12.308  10.707  25.449  0.00  0.00    +0.037 A 
ATOM     25  C   UNL     1     -13.502  10.656  26.169  0.00  0.00    +0.013 A 
ATOM     26  C   UNL     1     -11.088  10.581  26.114  0.00  0.00    +0.013 A 
ATOM     27  C   UNL     1     -13.477  10.481  27.552  0.00  0.00    +0.001 A 
ATOM     28  C   UNL     1     -11.062  10.405  27.497  0.00  0.00    +0.001 A 
ATOM     29  C   UNL     1     -12.257  10.355  28.216  0.00  0.00    +0.000 A 
ENDBRANCH  23  24
ENDBRANCH  13   4
ENDBRANCH   6  13
TORSDOF 7
ENDMDL
MODEL 8
REMARK VINA RESULT:      -6.5      2.102      3.182
REMARK  Name = 38027289
REMARK  10 active torsions:
REMARK  status: ('A' for Active; 'I' for Inactive)
REMARK    1  A    between atoms: N_3  and  C_14
REMARK    2  A    between atoms: N_4  and  C_13
REMARK    3  A    between atoms: C_5  and  C_9
REMARK    4  A    between atoms: C_6  and  C_13
REMARK    5  A    between atoms: C_8  and  C_12
REMARK    6  A    between atoms: C_9  and  C_15
REMARK    7  A    between atoms: C_9  and  C_16
REMARK    8  A    between atoms: C_10  and  C_20
REMARK    9  A    between atoms: C_12  and  C_19
REMARK   10  A    between atoms: C_23  and  C_24
REMARK                            x       y       z     vdW  Elec       q    Type
REMARK                         _______ _______ _______ _____ _____    ______ ____
ROOT
ATOM      5  C   UNL     1      12.411   8.954  20.702  0.00  0.00    +0.000 C 
ATOM      6  C   UNL     1      12.636   9.366  19.226  0.00  0.00    +0.032 C 
ATOM      7  C   UNL     1      11.764  10.106  21.488  0.00  0.00    +0.012 C 
ATOM      8  C   UNL     1      12.626  11.383  21.462  0.00  0.00    +0.023 C 
ATOM     10  C   UNL     1      13.113  11.707  20.064  0.00  0.00    -0.073 C 
ATOM     11  C   UNL     1      13.097  10.797  19.075  0.00  0.00    -0.022 C 
ATOM     20  C   UNL     1      13.576  13.115  19.819  0.00  0.00    +0.039 C 
ENDROOT
BRANCH   5   9
ATOM      9  C   UNL     1      11.543   7.697  20.817  0.00  0.00    -0.013 C 
ATOM     15  C   UNL     1      12.414   6.468  21.057  0.00  0.00    +0.007 C 
ATOM     16  C   UNL     1      10.517   7.859  21.934  0.00  0.00    +0.007 C 
ENDBRANCH   5   9
BRANCH   8  12
ATOM     12  C   UNL     1      13.800  11.277  22.441  0.00  0.00    +0.103 C 
BRANCH  12  19
ATOM      1  O   UNL     1      14.867  12.785  24.005  0.00  0.00    -0.276 OA
ATOM      3  N   UNL     1      12.629  13.096  23.461  0.00  0.00    -0.312 N 
ATOM     19  C   UNL     1      13.858  12.455  23.388  0.00  0.00    +0.214 C 
ATOM     30  H   UNL     1      11.866  12.768  22.877  0.00  0.00    +0.149 HD
BRANCH   3  14
ATOM     14  C   UNL     1      12.393  14.252  24.290  0.00  0.00    +0.073 C 
ATOM     17  C   UNL     1      12.034  13.857  25.716  0.00  0.00    +0.022 C 
ATOM     18  C   UNL     1      11.163  15.033  23.838  0.00  0.00    +0.022 C 
ATOM     21  C   UNL     1      10.546  13.523  25.661  0.00  0.00    +0.002 C 
ATOM     22  C   UNL     1       9.980  14.312  24.481  0.00  0.00    +0.002 C 
ENDBRANCH   3  14
ENDBRANCH  12  19
ENDBRANCH   8  12
BRANCH   6  13
ATOM     13  C   UNL     1      13.638   8.431  18.538  0.00  0.00    +0.112 C 
BRANCH  13   4
ATOM      2  O   UNL     1      15.416   6.192  18.800  0.00  0.00    -0.270 OA
ATOM      4  N   UNL     1      14.878   8.405  19.247  0.00  0.00    -0.311 N 
ATOM     23  C   UNL     1      15.684   7.270  19.324  0.00  0.00    +0.244 C 
ATOM     31  H   UNL     1      15.159   9.259  19.714  0.00  0.00    +0.149 HD
BRANCH  23  24
ATOM     24  C   UNL     1      16.930   7.398  20.123  0.00  0.00    +0.037 A 
ATOM     25  C   UNL     1      17.180   8.565  20.845  0.00  0.00    +0.013 A 
ATOM     26  C   UNL     1      17.850   6.351  20.152  0.00  0.00    +0.013 A 
ATOM     27  C   UNL     1      18.349   8.685  21.596  0.00  0.00    +0.001 A 
ATOM     28  C   UNL     1      19.019   6.469  20.904  0.00  0.00    +0.001 A 
ATOM     29  C   UNL     1      19.268   7.637  21.625  0.00  0.00    +0.000 A 
ENDBRANCH  23  24
ENDBRANCH  13   4
ENDBRANCH   6  13
TORSDOF 7
ENDMDL
MODEL 9
REMARK VINA RESULT:      -6.5     14.578     17.699
REMARK  Name = 38027289
REMARK  10 active torsions:
REMARK  status: ('A' for Active; 'I' for Inactive)
REMARK    1  A    between atoms: N_3  and  C_14
REMARK    2  A    between atoms: N_4  and  C_13
REMARK    3  A    between atoms: C_5  and  C_9
REMARK    4  A    between atoms: C_6  and  C_13
REMARK    5  A    between atoms: C_8  and  C_12
REMARK    6  A    between atoms: C_9  and  C_15
REMARK    7  A    between atoms: C_9  and  C_16
REMARK    8  A    between atoms: C_10  and  C_20
REMARK    9  A    between atoms: C_12  and  C_19
REMARK   10  A    between atoms: C_23  and  C_24
REMARK                            x       y       z     vdW  Elec       q    Type
REMARK                         _______ _______ _______ _____ _____    ______ ____
ROOT
ATOM      5  C   UNL     1       9.264   8.246   5.621  0.00  0.00    +0.000 C 
ATOM      6  C   UNL     1       9.032   8.130   7.148  0.00  0.00    +0.032 C 
ATOM      7  C   UNL     1       8.783   6.974   4.906  0.00  0.00    +0.012 C 
ATOM      8  C   UNL     1       9.506   5.712   5.415  0.00  0.00    +0.023 C 
ATOM     10  C   UNL     1       9.553   5.662   6.929  0.00  0.00    -0.073 C 
ATOM     11  C   UNL     1       9.325   6.749   7.686  0.00  0.00    -0.022 C 
ATOM     20  C   UNL     1       9.822   4.321   7.553  0.00  0.00    +0.039 C 
ENDROOT
BRANCH   5   9
ATOM      9  C   UNL     1       8.559   9.471   5.030  0.00  0.00    -0.013 C 
ATOM     15  C   UNL     1       9.567  10.387   4.344  0.00  0.00    +0.007 C 
ATOM     16  C   UNL     1       7.470   9.038   4.053  0.00  0.00    +0.007 C 
ENDBRANCH   5   9
BRANCH   8  12
ATOM     12  C   UNL     1      10.913   5.603   4.819  0.00  0.00    +0.103 C 
BRANCH  12  19
ATOM      1  O   UNL     1       9.872   4.672   2.843  0.00  0.00    -0.276 OA
ATOM      3  N   UNL     1      12.173   4.996   2.879  0.00  0.00    -0.312 N 
ATOM     19  C   UNL     1      10.894   5.039   3.416  0.00  0.00    +0.214 C 
ATOM     30  H   UNL     1      12.949   5.363   3.422  0.00  0.00    +0.149 HD
BRANCH   3  14
ATOM     14  C   UNL     1      12.455   4.500   1.555  0.00  0.00    +0.073 C 
ATOM     17  C   UNL     1      13.233   3.191   1.597  0.00  0.00    +0.022 C 
ATOM     18  C   UNL     1      13.395   5.425   0.790  0.00  0.00    +0.022 C 
ATOM     21  C   UNL     1      14.684   3.613   1.808  0.00  0.00    +0.002 C 
ATOM     22  C   UNL     1      14.797   5.032   1.250  0.00  0.00    +0.002 C 
ENDBRANCH   3  14
ENDBRANCH  12  19
ENDBRANCH   8  12
BRANCH   6  13
ATOM     13  C   UNL     1       9.864   9.165   7.914  0.00  0.00    +0.112 C 
BRANCH  13   4
ATOM      2  O   UNL     1      11.590  11.300   7.079  0.00  0.00    -0.270 OA
ATOM      4  N   UNL     1      11.247   9.059   7.571  0.00  0.00    -0.311 N 
ATOM     23  C   UNL     1      12.016  10.152   7.174  0.00  0.00    +0.244 C 
ATOM     31  H   UNL     1      11.663   8.136   7.618  0.00  0.00    +0.149 HD
BRANCH  23  24
ATOM     24  C   UNL     1      13.431   9.871   6.825  0.00  0.00    +0.037 A 
ATOM     25  C   UNL     1      14.356  10.914   6.766  0.00  0.00    +0.013 A 
ATOM     26  C   UNL     1      13.838   8.564   6.557  0.00  0.00    +0.013 A 
ATOM     27  C   UNL     1      15.686  10.651   6.439  0.00  0.00    +0.001 A 
ATOM     28  C   UNL     1      15.168   8.299   6.231  0.00  0.00    +0.001 A 
ATOM     29  C   UNL     1      16.092   9.343   6.172  0.00  0.00    +0.000 A 
ENDBRANCH  23  24
ENDBRANCH  13   4
ENDBRANCH   6  13
TORSDOF 7
ENDMDL
MODEL 10
REMARK VINA RESULT:      -6.5     26.284     29.863
REMARK  Name = 38027289
REMARK  10 active torsions:
REMARK  status: ('A' for Active; 'I' for Inactive)
REMARK    1  A    between atoms: N_3  and  C_14
REMARK    2  A    between atoms: N_4  and  C_13
REMARK    3  A    between atoms: C_5  and  C_9
REMARK    4  A    between atoms: C_6  and  C_13
REMARK    5  A    between atoms: C_8  and  C_12
REMARK    6  A    between atoms: C_9  and  C_15
REMARK    7  A    between atoms: C_9  and  C_16
REMARK    8  A    between atoms: C_10  and  C_20
REMARK    9  A    between atoms: C_12  and  C_19
REMARK   10  A    between atoms: C_23  and  C_24
REMARK                            x       y       z     vdW  Elec       q    Type
REMARK                         _______ _______ _______ _____ _____    ______ ____
ROOT
ATOM      5  C   UNL     1      -5.083 -12.275  16.357  0.00  0.00    +0.000 C 
ATOM      6  C   UNL     1      -4.295 -11.659  17.541  0.00  0.00    +0.032 C 
ATOM      7  C   UNL     1      -4.115 -12.833  15.301  0.00  0.00    +0.012 C 
ATOM      8  C   UNL     1      -3.168 -11.750  14.749  0.00  0.00    +0.023 C 
ATOM     10  C   UNL     1      -2.555 -10.919  15.857  0.00  0.00    -0.073 C 
ATOM     11  C   UNL     1      -3.064 -10.902  17.101  0.00  0.00    -0.022 C 
ATOM     20  C   UNL     1      -1.314 -10.144  15.514  0.00  0.00    +0.039 C 
ENDROOT
BRANCH   5   9
ATOM      9  C   UNL     1      -6.037 -13.379  16.820  0.00  0.00    -0.013 C 
ATOM     15  C   UNL     1      -7.342 -13.320  16.033  0.00  0.00    +0.007 C 
ATOM     16  C   UNL     1      -5.379 -14.748  16.675  0.00  0.00    +0.007 C 
ENDBRANCH   5   9
BRANCH   8  12
ATOM     12  C   UNL     1      -3.884 -10.860  13.728  0.00  0.00    +0.103 C 
BRANCH  12  19
ATOM      1  O   UNL     1      -2.266 -11.629  12.102  0.00  0.00    -0.276 OA
ATOM      3  N   UNL     1      -3.984 -10.218  11.426  0.00  0.00    -0.312 N 
ATOM     19  C   UNL     1      -3.268 -10.966  12.351  0.00  0.00    +0.214 C 
ATOM     30  H   UNL     1      -4.826  -9.736  11.727  0.00  0.00    +0.149 HD
BRANCH   3  14
ATOM     14  C   UNL     1      -3.622 -10.132  10.033  0.00  0.00    +0.073 C 
ATOM     17  C   UNL     1      -4.096  -8.827   9.408  0.00  0.00    +0.022 C 
ATOM     18  C   UNL     1      -4.336 -11.187   9.194  0.00  0.00    +0.022 C 
ATOM     21  C   UNL     1      -5.563  -9.075   9.067  0.00  0.00    +0.002 C 
ATOM     22  C   UNL     1      -5.707 -10.586   8.889  0.00  0.00    +0.002 C 
ENDBRANCH   3  14
ENDBRANCH  12  19
ENDBRANCH   8  12
BRANCH   6  13
ATOM     13  C   UNL     1      -5.189 -10.740  18.381  0.00  0.00    +0.112 C 
BRANCH  13   4
ATOM      2  O   UNL     1      -8.006 -10.592  18.914  0.00  0.00    -0.270 OA
ATOM      4  N   UNL     1      -6.180 -10.112  17.565  0.00  0.00    -0.311 N 
ATOM     23  C   UNL     1      -7.533 -10.086  17.900  0.00  0.00    +0.244 C 
ATOM     31  H   UNL     1      -5.862  -9.681  16.704  0.00  0.00    +0.149 HD
BRANCH  23  24
ATOM     24  C   UNL     1      -8.440  -9.417  16.933  0.00  0.00    +0.037 A 
ATOM     25  C   UNL     1      -9.290  -8.398  17.362  0.00  0.00    +0.013 A 
ATOM     26  C   UNL     1      -8.441  -9.807  15.593  0.00  0.00    +0.013 A 
ATOM     27  C   UNL     1     -10.141  -7.768  16.453  0.00  0.00    +0.001 A 
ATOM     28  C   UNL     1      -9.291  -9.178  14.683  0.00  0.00    +0.001 A 
ATOM     29  C   UNL     1     -10.141  -8.158  15.114  0.00  0.00    +0.000 A 
ENDBRANCH  23  24
ENDBRANCH  13   4
ENDBRANCH   6  13
TORSDOF 7
ENDMDL
