MODEL 1
REMARK VINA RESULT:      -5.8      0.000      0.000
REMARK  Name = 26744270
REMARK  4 active torsions:
REMARK  status: ('A' for Active; 'I' for Inactive)
REMARK    1  A    between atoms: O_2  and  C_11
REMARK    2  A    between atoms: N_4  and  C_8
REMARK    3  A    between atoms: C_7  and  C_17
REMARK    4  A    between atoms: C_12  and  C_18
REMARK                            x       y       z     vdW  Elec       q    Type
REMARK                         _______ _______ _______ _____ _____    ______ ____
ROOT
ATOM      4  N   UNL     1      13.076   8.175  21.342  0.00  0.00    -0.286 NA
ATOM      7  C   UNL     1      12.012   8.873  20.593  0.00  0.00    +0.149 C 
ATOM      9  C   UNL     1      10.744   8.036  20.840  0.00  0.00    +0.061 C 
ATOM     10  C   UNL     1      12.688   6.767  21.400  0.00  0.00    +0.116 C 
ATOM     11  C   UNL     1      11.204   6.866  21.700  0.00  0.00    +0.130 C 
ENDROOT
BRANCH   4   8
ATOM      1  O   UNL     1      17.219   7.753  20.804  0.00  0.00    -0.380 OA
ATOM      8  C   UNL     1      14.405   8.355  20.759  0.00  0.00    +0.062 C 
ATOM     15  C   UNL     1      15.359   8.969  21.788  0.00  0.00    +0.047 C 
ATOM     16  C   UNL     1      14.968   7.025  20.249  0.00  0.00    +0.047 C 
ATOM     19  C   UNL     1      16.772   9.043  21.221  0.00  0.00    +0.161 C 
ATOM     20  C   UNL     1      16.403   7.207  19.767  0.00  0.00    +0.161 C 
ENDBRANCH   4   8
BRANCH   7  17
ATOM      3  O   UNL     1      12.505  11.244  20.265  0.00  0.00    -0.336 OA
ATOM      5  N   UNL     1      11.169  10.820  22.012  0.00  0.00    -0.194 NA
ATOM      6  N   UNL     1      12.209  12.487  20.840  0.00  0.00    -0.061 NA
ATOM     17  C   UNL     1      11.853  10.318  21.016  0.00  0.00    +0.245 A 
ATOM     18  C   UNL     1      11.417  12.154  21.864  0.00  0.00    +0.175 A 
BRANCH  18  12
ATOM     12  C   UNL     1      10.828  13.204  22.809  0.00  0.00    +0.060 C 
ATOM     13  C   UNL     1      11.645  13.658  23.984  0.00  0.00    +0.012 C 
ATOM     14  C   UNL     1      10.441  12.788  24.198  0.00  0.00    +0.012 C 
ENDBRANCH  18  12
ENDBRANCH   7  17
BRANCH  11   2
ATOM      2  O   UNL     1      10.517   5.682  21.346  0.00  0.00    -0.390 OA
ATOM     21  H   UNL     1      11.076   5.197  20.715  0.00  0.00    +0.210 HD
ENDBRANCH  11   2
TORSDOF 4
ENDMDL
MODEL 2
REMARK VINA RESULT:      -5.6      3.520      5.891
REMARK  Name = 26744270
REMARK  4 active torsions:
REMARK  status: ('A' for Active; 'I' for Inactive)
REMARK    1  A    between atoms: O_2  and  C_11
REMARK    2  A    between atoms: N_4  and  C_8
REMARK    3  A    between atoms: C_7  and  C_17
REMARK    4  A    between atoms: C_12  and  C_18
REMARK                            x       y       z     vdW  Elec       q    Type
REMARK                         _______ _______ _______ _____ _____    ______ ____
ROOT
ATOM      4  N   UNL     1      13.337   8.039  20.273  0.00  0.00    -0.286 NA
ATOM      7  C   UNL     1      14.493   8.757  19.701  0.00  0.00    +0.149 C 
ATOM      9  C   UNL     1      15.705   7.861  20.008  0.00  0.00    +0.061 C 
ATOM     10  C   UNL     1      13.854   7.239  21.382  0.00  0.00    +0.116 C 
ATOM     11  C   UNL     1      15.138   6.686  20.795  0.00  0.00    +0.130 C 
ENDROOT
BRANCH   4   8
ATOM      1  O   UNL     1      11.074  10.578  22.735  0.00  0.00    -0.380 OA
ATOM      8  C   UNL     1      12.256   8.928  20.694  0.00  0.00    +0.062 C 
ATOM     15  C   UNL     1      11.520   8.340  21.901  0.00  0.00    +0.047 C 
ATOM     16  C   UNL     1      12.791  10.323  21.034  0.00  0.00    +0.047 C 
ATOM     19  C   UNL     1      10.475   9.322  22.415  0.00  0.00    +0.161 C 
ATOM     20  C   UNL     1      11.675  11.196  21.597  0.00  0.00    +0.161 C 
ENDBRANCH   4   8
BRANCH   7  17
ATOM      3  O   UNL     1      13.867   8.012  17.459  0.00  0.00    -0.336 OA
ATOM      5  N   UNL     1      14.569  10.137  17.553  0.00  0.00    -0.194 NA
ATOM      6  N   UNL     1      13.798   8.504  16.148  0.00  0.00    -0.061 NA
ATOM     17  C   UNL     1      14.330   9.037  18.222  0.00  0.00    +0.245 A 
ATOM     18  C   UNL     1      14.229   9.762  16.286  0.00  0.00    +0.175 A 
BRANCH  18  12
ATOM     12  C   UNL     1      14.332  10.719  15.096  0.00  0.00    +0.060 C 
ATOM     13  C   UNL     1      15.690  11.032  14.537  0.00  0.00    +0.012 C 
ATOM     14  C   UNL     1      14.938  12.075  15.311  0.00  0.00    +0.012 C 
ENDBRANCH  18  12
ENDBRANCH   7  17
BRANCH  11   2
ATOM      2  O   UNL     1      16.042   6.273  21.802  0.00  0.00    -0.390 OA
ATOM     21  H   UNL     1      15.657   5.495  22.238  0.00  0.00    +0.210 HD
ENDBRANCH  11   2
TORSDOF 4
ENDMDL
MODEL 3
REMARK VINA RESULT:      -5.4     19.984     21.441
REMARK  Name = 26744270
REMARK  4 active torsions:
REMARK  status: ('A' for Active; 'I' for Inactive)
REMARK    1  A    between atoms: O_2  and  C_11
REMARK    2  A    between atoms: N_4  and  C_8
REMARK    3  A    between atoms: C_7  and  C_17
REMARK    4  A    between atoms: C_12  and  C_18
REMARK                            x       y       z     vdW  Elec       q    Type
REMARK                         _______ _______ _______ _____ _____    ______ ____
ROOT
ATOM      4  N   UNL     1      13.073   4.254  -0.031  0.00  0.00    -0.286 NA
ATOM      7  C   UNL     1      13.052   3.667   1.324  0.00  0.00    +0.149 C 
ATOM      9  C   UNL     1      14.530   3.605   1.750  0.00  0.00    +0.061 C 
ATOM     10  C   UNL     1      14.367   3.903  -0.614  0.00  0.00    +0.116 C 
ATOM     11  C   UNL     1      15.308   4.135   0.553  0.00  0.00    +0.130 C 
ENDROOT
BRANCH   4   8
ATOM      1  O   UNL     1      10.786   3.567  -3.484  0.00  0.00    -0.380 OA
ATOM      8  C   UNL     1      11.956   3.817  -0.866  0.00  0.00    +0.062 C 
ATOM     15  C   UNL     1      11.350   5.010  -1.612  0.00  0.00    +0.047 C 
ATOM     16  C   UNL     1      12.402   2.745  -1.865  0.00  0.00    +0.047 C 
ATOM     19  C   UNL     1      10.268   4.537  -2.575  0.00  0.00    +0.161 C 
ATOM     20  C   UNL     1      11.260   2.398  -2.814  0.00  0.00    +0.161 C 
ENDBRANCH   4   8
BRANCH   7  17
ATOM      3  O   UNL     1      12.430   5.798   2.347  0.00  0.00    -0.336 OA
ATOM      5  N   UNL     1      11.246   4.047   3.090  0.00  0.00    -0.194 NA
ATOM      6  N   UNL     1      11.530   6.308   3.291  0.00  0.00    -0.061 NA
ATOM     17  C   UNL     1      12.196   4.460   2.289  0.00  0.00    +0.245 A 
ATOM     18  C   UNL     1      10.867   5.215   3.684  0.00  0.00    +0.175 A 
BRANCH  18  12
ATOM     12  C   UNL     1       9.755   5.274   4.734  0.00  0.00    +0.060 C 
ATOM     13  C   UNL     1      10.109   5.662   6.140  0.00  0.00    +0.012 C 
ATOM     14  C   UNL     1       9.738   4.243   5.824  0.00  0.00    +0.012 C 
ENDBRANCH  18  12
ENDBRANCH   7  17
BRANCH  11   2
ATOM      2  O   UNL     1      16.525   3.433   0.394  0.00  0.00    -0.390 OA
ATOM     21  H   UNL     1      16.730   3.414  -0.557  0.00  0.00    +0.210 HD
ENDBRANCH  11   2
TORSDOF 4
ENDMDL
MODEL 4
REMARK VINA RESULT:      -5.4     25.323     27.856
REMARK  Name = 26744270
REMARK  4 active torsions:
REMARK  status: ('A' for Active; 'I' for Inactive)
REMARK    1  A    between atoms: O_2  and  C_11
REMARK    2  A    between atoms: N_4  and  C_8
REMARK    3  A    between atoms: C_7  and  C_17
REMARK    4  A    between atoms: C_12  and  C_18
REMARK                            x       y       z     vdW  Elec       q    Type
REMARK                         _______ _______ _______ _____ _____    ______ ____
ROOT
ATOM      4  N   UNL     1      -3.272 -10.504  14.223  0.00  0.00    -0.286 NA
ATOM      7  C   UNL     1      -3.541 -11.286  15.447  0.00  0.00    +0.149 C 
ATOM      9  C   UNL     1      -2.350 -10.987  16.375  0.00  0.00    +0.061 C 
ATOM     10  C   UNL     1      -1.820 -10.366  14.131  0.00  0.00    +0.116 C 
ATOM     11  C   UNL     1      -1.444 -10.066  15.569  0.00  0.00    +0.130 C 
ENDROOT
BRANCH   4   8
ATOM      1  O   UNL     1      -4.276 -10.989  10.175  0.00  0.00    -0.380 OA
ATOM      8  C   UNL     1      -3.846 -11.101  13.019  0.00  0.00    +0.062 C 
ATOM     15  C   UNL     1      -4.857 -10.146  12.379  0.00  0.00    +0.047 C 
ATOM     16  C   UNL     1      -2.753 -11.463  12.009  0.00  0.00    +0.047 C 
ATOM     19  C   UNL     1      -5.363 -10.716  11.060  0.00  0.00    +0.161 C 
ATOM     20  C   UNL     1      -3.376 -11.960  10.709  0.00  0.00    +0.161 C 
ENDBRANCH   4   8
BRANCH   7  17
ATOM      3  O   UNL     1      -5.298  -9.659  15.937  0.00  0.00    -0.336 OA
ATOM      5  N   UNL     1      -5.700 -11.709  16.744  0.00  0.00    -0.194 NA
ATOM      6  N   UNL     1      -6.537  -9.585  16.588  0.00  0.00    -0.061 NA
ATOM     17  C   UNL     1      -4.875 -10.943  16.076  0.00  0.00    +0.245 A 
ATOM     18  C   UNL     1      -6.704 -10.833  17.038  0.00  0.00    +0.175 A 
BRANCH  18  12
ATOM     12  C   UNL     1      -7.945 -11.250  17.832  0.00  0.00    +0.060 C 
ATOM     13  C   UNL     1      -7.966 -11.015  19.314  0.00  0.00    +0.012 C 
ATOM     14  C   UNL     1      -7.840 -12.410  18.777  0.00  0.00    +0.012 C 
ENDBRANCH  18  12
ENDBRANCH   7  17
BRANCH  11   2
ATOM      2  O   UNL     1      -0.082 -10.351  15.826  0.00  0.00    -0.390 OA
ATOM     21  H   UNL     1       0.093 -11.252  15.505  0.00  0.00    +0.210 HD
ENDBRANCH  11   2
TORSDOF 4
ENDMDL
MODEL 5
REMARK VINA RESULT:      -5.2     26.766     28.504
REMARK  Name = 26744270
REMARK  4 active torsions:
REMARK  status: ('A' for Active; 'I' for Inactive)
REMARK    1  A    between atoms: O_2  and  C_11
REMARK    2  A    between atoms: N_4  and  C_8
REMARK    3  A    between atoms: C_7  and  C_17
REMARK    4  A    between atoms: C_12  and  C_18
REMARK                            x       y       z     vdW  Elec       q    Type
REMARK                         _______ _______ _______ _____ _____    ______ ____
ROOT
ATOM      4  N   UNL     1      -6.005 -11.514  17.150  0.00  0.00    -0.286 NA
ATOM      7  C   UNL     1      -4.951 -10.549  16.777  0.00  0.00    +0.149 C 
ATOM      9  C   UNL     1      -3.738 -10.938  17.641  0.00  0.00    +0.061 C 
ATOM     10  C   UNL     1      -5.727 -11.919  18.526  0.00  0.00    +0.116 C 
ATOM     11  C   UNL     1      -4.221 -12.100  18.499  0.00  0.00    +0.130 C 
ENDROOT
BRANCH   4   8
ATOM      1  O   UNL     1      -9.705  -9.831  18.203  0.00  0.00    -0.380 OA
ATOM      8  C   UNL     1      -7.357 -10.978  16.997  0.00  0.00    +0.062 C 
ATOM     15  C   UNL     1      -8.355 -11.812  17.805  0.00  0.00    +0.047 C 
ATOM     16  C   UNL     1      -7.421  -9.512  17.436  0.00  0.00    +0.047 C 
ATOM     19  C   UNL     1      -9.741 -11.183  17.745  0.00  0.00    +0.161 C 
ATOM     20  C   UNL     1      -8.860  -9.010  17.396  0.00  0.00    +0.161 C 
ENDBRANCH   4   8
BRANCH   7  17
ATOM      3  O   UNL     1      -5.587 -10.033  14.474  0.00  0.00    -0.336 OA
ATOM      5  N   UNL     1      -3.588 -11.025  14.670  0.00  0.00    -0.194 NA
ATOM      6  N   UNL     1      -5.085 -10.159  13.172  0.00  0.00    -0.061 NA
ATOM     17  C   UNL     1      -4.644 -10.567  15.294  0.00  0.00    +0.245 A 
ATOM     18  C   UNL     1      -3.904 -10.753  13.371  0.00  0.00    +0.175 A 
BRANCH  18  12
ATOM     12  C   UNL     1      -2.967 -11.105  12.212  0.00  0.00    +0.060 C 
ATOM     13  C   UNL     1      -1.747 -10.260  11.988  0.00  0.00    +0.012 C 
ATOM     14  C   UNL     1      -2.901 -10.180  11.032  0.00  0.00    +0.012 C 
ENDBRANCH  18  12
ENDBRANCH   7  17
BRANCH  11   2
ATOM      2  O   UNL     1      -3.660 -12.033  19.796  0.00  0.00    -0.390 OA
ATOM     21  H   UNL     1      -2.701 -11.911  19.694  0.00  0.00    +0.210 HD
ENDBRANCH  11   2
TORSDOF 4
ENDMDL
MODEL 6
REMARK VINA RESULT:      -5.2     27.130     28.632
REMARK  Name = 26744270
REMARK  4 active torsions:
REMARK  status: ('A' for Active; 'I' for Inactive)
REMARK    1  A    between atoms: O_2  and  C_11
REMARK    2  A    between atoms: N_4  and  C_8
REMARK    3  A    between atoms: C_7  and  C_17
REMARK    4  A    between atoms: C_12  and  C_18
REMARK                            x       y       z     vdW  Elec       q    Type
REMARK                         _______ _______ _______ _____ _____    ______ ____
ROOT
ATOM      4  N   UNL     1      -6.685 -10.755  17.416  0.00  0.00    -0.286 NA
ATOM      7  C   UNL     1      -5.233 -10.484  17.455  0.00  0.00    +0.149 C 
ATOM      9  C   UNL     1      -4.763 -11.053  18.806  0.00  0.00    +0.061 C 
ATOM     10  C   UNL     1      -7.136 -10.791  18.806  0.00  0.00    +0.116 C 
ATOM     11  C   UNL     1      -6.026 -11.580  19.474  0.00  0.00    +0.130 C 
ENDROOT
BRANCH   4   8
ATOM      1  O   UNL     1      -9.938  -8.919  15.498  0.00  0.00    -0.380 OA
ATOM      8  C   UNL     1      -7.431  -9.783  16.620  0.00  0.00    +0.062 C 
ATOM     15  C   UNL     1      -8.063 -10.463  15.403  0.00  0.00    +0.047 C 
ATOM     16  C   UNL     1      -8.514  -9.098  17.460  0.00  0.00    +0.047 C 
ATOM     19  C   UNL     1      -8.941  -9.478  14.641  0.00  0.00    +0.161 C 
ATOM     20  C   UNL     1      -9.368  -8.188  16.584  0.00  0.00    +0.161 C 
ENDBRANCH   4   8
BRANCH   7  17
ATOM      3  O   UNL     1      -5.001 -12.245  15.776  0.00  0.00    -0.336 OA
ATOM      5  N   UNL     1      -3.431 -10.652  15.654  0.00  0.00    -0.194 NA
ATOM      6  N   UNL     1      -4.166 -12.601  14.708  0.00  0.00    -0.061 NA
ATOM     17  C   UNL     1      -4.497 -11.087  16.277  0.00  0.00    +0.245 A 
ATOM     18  C   UNL     1      -3.266 -11.613  14.700  0.00  0.00    +0.175 A 
BRANCH  18  12
ATOM     12  C   UNL     1      -2.122 -11.566  13.683  0.00  0.00    +0.060 C 
ATOM     13  C   UNL     1      -2.257 -10.671  12.485  0.00  0.00    +0.012 C 
ATOM     14  C   UNL     1      -2.343 -12.160  12.323  0.00  0.00    +0.012 C 
ENDBRANCH  18  12
ENDBRANCH   7  17
BRANCH  11   2
ATOM      2  O   UNL     1      -5.988 -11.354  20.869  0.00  0.00    -0.390 OA
ATOM     21  H   UNL     1      -5.336 -10.652  21.034  0.00  0.00    +0.210 HD
ENDBRANCH  11   2
TORSDOF 4
ENDMDL
MODEL 7
REMARK VINA RESULT:      -5.2     27.130     28.040
REMARK  Name = 26744270
REMARK  4 active torsions:
REMARK  status: ('A' for Active; 'I' for Inactive)
REMARK    1  A    between atoms: O_2  and  C_11
REMARK    2  A    between atoms: N_4  and  C_8
REMARK    3  A    between atoms: C_7  and  C_17
REMARK    4  A    between atoms: C_12  and  C_18
REMARK                            x       y       z     vdW  Elec       q    Type
REMARK                         _______ _______ _______ _____ _____    ______ ____
ROOT
ATOM      4  N   UNL     1      -3.175 -10.737  12.803  0.00  0.00    -0.286 NA
ATOM      7  C   UNL     1      -3.981 -11.636  13.652  0.00  0.00    +0.149 C 
ATOM      9  C   UNL     1      -2.989 -12.704  14.148  0.00  0.00    +0.061 C 
ATOM     10  C   UNL     1      -2.078 -11.543  12.270  0.00  0.00    +0.116 C 
ATOM     11  C   UNL     1      -1.663 -12.347  13.488  0.00  0.00    +0.130 C 
ENDROOT
BRANCH   4   8
ATOM      1  O   UNL     1      -4.726  -9.992   8.973  0.00  0.00    -0.380 OA
ATOM      8  C   UNL     1      -3.951 -10.096  11.743  0.00  0.00    +0.062 C 
ATOM     15  C   UNL     1      -3.021  -9.560  10.651  0.00  0.00    +0.047 C 
ATOM     16  C   UNL     1      -4.967 -11.070  11.138  0.00  0.00    +0.047 C 
ATOM     19  C   UNL     1      -3.835  -9.003   9.489  0.00  0.00    +0.161 C 
ATOM     20  C   UNL     1      -5.673 -10.428   9.949  0.00  0.00    +0.161 C 
ENDBRANCH   4   8
BRANCH   7  17
ATOM      3  O   UNL     1      -3.893 -10.567  15.849  0.00  0.00    -0.336 OA
ATOM      5  N   UNL     1      -5.921 -10.539  14.898  0.00  0.00    -0.194 NA
ATOM      6  N   UNL     1      -4.738  -9.908  16.752  0.00  0.00    -0.061 NA
ATOM     17  C   UNL     1      -4.669 -10.905  14.786  0.00  0.00    +0.245 A 
ATOM     18  C   UNL     1      -5.916  -9.932  16.120  0.00  0.00    +0.175 A 
BRANCH  18  12
ATOM     12  C   UNL     1      -7.177  -9.316  16.732  0.00  0.00    +0.060 C 
ATOM     13  C   UNL     1      -7.983 -10.133  17.700  0.00  0.00    +0.012 C 
ATOM     14  C   UNL     1      -8.515  -9.860  16.324  0.00  0.00    +0.012 C 
ENDBRANCH  18  12
ENDBRANCH   7  17
BRANCH  11   2
ATOM      2  O   UNL     1      -0.951 -13.515  13.128  0.00  0.00    -0.390 OA
ATOM     21  H   UNL     1      -1.027 -13.618  12.164  0.00  0.00    +0.210 HD
ENDBRANCH  11   2
TORSDOF 4
ENDMDL
MODEL 8
REMARK VINA RESULT:      -5.1     18.057     19.207
REMARK  Name = 26744270
REMARK  4 active torsions:
REMARK  status: ('A' for Active; 'I' for Inactive)
REMARK    1  A    between atoms: O_2  and  C_11
REMARK    2  A    between atoms: N_4  and  C_8
REMARK    3  A    between atoms: C_7  and  C_17
REMARK    4  A    between atoms: C_12  and  C_18
REMARK                            x       y       z     vdW  Elec       q    Type
REMARK                         _______ _______ _______ _____ _____    ______ ____
ROOT
ATOM      4  N   UNL     1      11.963   4.709   1.722  0.00  0.00    -0.286 NA
ATOM      7  C   UNL     1      11.313   5.940   2.214  0.00  0.00    +0.149 C 
ATOM      9  C   UNL     1       9.959   5.988   1.483  0.00  0.00    +0.061 C 
ATOM     10  C   UNL     1      11.434   4.467   0.382  0.00  0.00    +0.116 C 
ATOM     11  C   UNL     1       9.959   4.769   0.571  0.00  0.00    +0.130 C 
ENDROOT
BRANCH   4   8
ATOM      1  O   UNL     1      15.902   4.766   0.269  0.00  0.00    -0.380 OA
ATOM      8  C   UNL     1      13.423   4.786   1.732  0.00  0.00    +0.062 C 
ATOM     15  C   UNL     1      14.028   3.501   1.159  0.00  0.00    +0.047 C 
ATOM     16  C   UNL     1      13.917   5.998   0.935  0.00  0.00    +0.047 C 
ATOM     19  C   UNL     1      15.543   3.629   1.055  0.00  0.00    +0.161 C 
ATOM     20  C   UNL     1      15.438   5.988   0.843  0.00  0.00    +0.161 C 
ENDBRANCH   4   8
BRANCH   7  17
ATOM      3  O   UNL     1      12.120   6.638   4.413  0.00  0.00    -0.336 OA
ATOM      5  N   UNL     1      10.244   5.416   4.473  0.00  0.00    -0.194 NA
ATOM      6  N   UNL     1      11.775   6.519   5.766  0.00  0.00    -0.061 NA
ATOM     17  C   UNL     1      11.167   5.960   3.721  0.00  0.00    +0.245 A 
ATOM     18  C   UNL     1      10.659   5.785   5.719  0.00  0.00    +0.175 A 
BRANCH  18  12
ATOM     12  C   UNL     1       9.897   5.386   6.985  0.00  0.00    +0.060 C 
ATOM     13  C   UNL     1       9.155   6.447   7.746  0.00  0.00    +0.012 C 
ATOM     14  C   UNL     1      10.412   5.856   8.314  0.00  0.00    +0.012 C 
ENDBRANCH  18  12
ENDBRANCH   7  17
BRANCH  11   2
ATOM      2  O   UNL     1       9.321   5.061  -0.658  0.00  0.00    -0.390 OA
ATOM     21  H   UNL     1       9.899   5.669  -1.150  0.00  0.00    +0.210 HD
ENDBRANCH  11   2
TORSDOF 4
ENDMDL
MODEL 9
REMARK VINA RESULT:      -5.1     21.660     23.446
REMARK  Name = 26744270
REMARK  4 active torsions:
REMARK  status: ('A' for Active; 'I' for Inactive)
REMARK    1  A    between atoms: O_2  and  C_11
REMARK    2  A    between atoms: N_4  and  C_8
REMARK    3  A    between atoms: C_7  and  C_17
REMARK    4  A    between atoms: C_12  and  C_18
REMARK                            x       y       z     vdW  Elec       q    Type
REMARK                         _______ _______ _______ _____ _____    ______ ____
ROOT
ATOM      4  N   UNL     1      -1.356  10.177   4.673  0.00  0.00    -0.286 NA
ATOM      7  C   UNL     1      -1.612   8.936   5.432  0.00  0.00    +0.149 C 
ATOM      9  C   UNL     1      -1.449   9.337   6.909  0.00  0.00    +0.061 C 
ATOM     10  C   UNL     1      -0.459  10.987   5.495  0.00  0.00    +0.116 C 
ATOM     11  C   UNL     1      -1.057  10.809   6.877  0.00  0.00    +0.130 C 
ENDROOT
BRANCH   4   8
ATOM      1  O   UNL     1      -0.246  10.911   0.691  0.00  0.00    -0.380 OA
ATOM      8  C   UNL     1      -0.810   9.934   3.339  0.00  0.00    +0.062 C 
ATOM     15  C   UNL     1      -1.901  10.105   2.278  0.00  0.00    +0.047 C 
ATOM     16  C   UNL     1       0.363  10.874   3.043  0.00  0.00    +0.047 C 
ATOM     19  C   UNL     1      -1.306   9.974   0.881  0.00  0.00    +0.161 C 
ATOM     20  C   UNL     1       0.832  10.700   1.603  0.00  0.00    +0.161 C 
ENDBRANCH   4   8
BRANCH   7  17
ATOM      3  O   UNL     1      -3.112   7.008   5.357  0.00  0.00    -0.336 OA
ATOM      5  N   UNL     1      -4.053   8.925   4.683  0.00  0.00    -0.194 NA
ATOM      6  N   UNL     1      -4.434   6.694   5.016  0.00  0.00    -0.061 NA
ATOM     17  C   UNL     1      -2.971   8.340   5.132  0.00  0.00    +0.245 A 
ATOM     18  C   UNL     1      -4.923   7.876   4.628  0.00  0.00    +0.175 A 
BRANCH  18  12
ATOM     12  C   UNL     1      -6.369   8.039   4.152  0.00  0.00    +0.060 C 
ATOM     13  C   UNL     1      -7.463   8.111   5.177  0.00  0.00    +0.012 C 
ATOM     14  C   UNL     1      -7.317   6.888   4.321  0.00  0.00    +0.012 C 
ENDBRANCH  18  12
ENDBRANCH   7  17
BRANCH  11   2
ATOM      2  O   UNL     1      -0.121  11.101   7.896  0.00  0.00    -0.390 OA
ATOM     21  H   UNL     1       0.644  11.530   7.476  0.00  0.00    +0.210 HD
ENDBRANCH  11   2
TORSDOF 4
ENDMDL
MODEL 10
REMARK VINA RESULT:      -5.0      2.644      5.302
REMARK  Name = 26744270
REMARK  4 active torsions:
REMARK  status: ('A' for Active; 'I' for Inactive)
REMARK    1  A    between atoms: O_2  and  C_11
REMARK    2  A    between atoms: N_4  and  C_8
REMARK    3  A    between atoms: C_7  and  C_17
REMARK    4  A    between atoms: C_12  and  C_18
REMARK                            x       y       z     vdW  Elec       q    Type
REMARK                         _______ _______ _______ _____ _____    ______ ____
ROOT
ATOM      4  N   UNL     1      11.524   9.923  21.851  0.00  0.00    -0.286 NA
ATOM      7  C   UNL     1      12.725   9.068  21.764  0.00  0.00    +0.149 C 
ATOM      9  C   UNL     1      12.188   7.669  21.409  0.00  0.00    +0.061 C 
ATOM     10  C   UNL     1      10.418   9.045  22.230  0.00  0.00    +0.116 C 
ATOM     11  C   UNL     1      10.674   7.828  21.363  0.00  0.00    +0.130 C 
ENDROOT
BRANCH   4   8
ATOM      1  O   UNL     1      10.470  13.134  24.342  0.00  0.00    -0.380 OA
ATOM      8  C   UNL     1      11.679  11.043  22.776  0.00  0.00    +0.062 C 
ATOM     15  C   UNL     1      11.140  12.332  22.148  0.00  0.00    +0.047 C 
ATOM     16  C   UNL     1      10.965  10.766  24.103  0.00  0.00    +0.047 C 
ATOM     19  C   UNL     1      11.189  13.473  23.157  0.00  0.00    +0.161 C 
ATOM     20  C   UNL     1      11.023  11.995  25.003  0.00  0.00    +0.161 C 
ENDBRANCH   4   8
BRANCH   7  17
ATOM      3  O   UNL     1      15.029   9.226  20.964  0.00  0.00    -0.336 OA
ATOM      5  N   UNL     1      13.545  10.328  19.700  0.00  0.00    -0.194 NA
ATOM      6  N   UNL     1      15.762   9.808  19.921  0.00  0.00    -0.061 NA
ATOM     17  C   UNL     1      13.734   9.582  20.759  0.00  0.00    +0.245 A 
ATOM     18  C   UNL     1      14.816  10.441  19.219  0.00  0.00    +0.175 A 
BRANCH  18  12
ATOM     12  C   UNL     1      15.143  11.240  17.955  0.00  0.00    +0.060 C 
ATOM     13  C   UNL     1      15.601  12.663  18.099  0.00  0.00    +0.012 C 
ATOM     14  C   UNL     1      14.233  12.365  17.558  0.00  0.00    +0.012 C 
ENDBRANCH  18  12
ENDBRANCH   7  17
BRANCH  11   2
ATOM      2  O   UNL     1      10.033   6.675  21.873  0.00  0.00    -0.390 OA
ATOM     21  H   UNL     1       9.530   6.274  21.144  0.00  0.00    +0.210 HD
ENDBRANCH  11   2
TORSDOF 4
ENDMDL
