MODEL 1
REMARK VINA RESULT:      -6.6      0.000      0.000
REMARK  Name = 11882059
REMARK  10 active torsions:
REMARK  status: ('A' for Active; 'I' for Inactive)
REMARK    1  A    between atoms: S_1  and  C_21
REMARK    2  A    between atoms: S_1  and  C_28
REMARK    3  A    between atoms: N_10  and  C_14
REMARK    4  A    between atoms: N_11  and  C_20
REMARK    5  A    between atoms: N_12  and  C_26
REMARK    6  A    between atoms: C_15  and  C_18
REMARK    7  A    between atoms: C_19  and  C_21
REMARK    8  A    between atoms: C_20  and  C_23
REMARK    9  A    between atoms: C_20  and  C_24
REMARK   10  A    between atoms: C_23  and  C_25
REMARK                            x       y       z     vdW  Elec       q    Type
REMARK                         _______ _______ _______ _____ _____    ______ ____
ROOT
ATOM      6  O   UNL     1      20.030   6.038  26.420  0.00  0.00    -0.275 OA
ATOM      9  N   UNL     1      20.432   7.904  25.111  0.00  0.00    -0.287 N 
ATOM     14  C   UNL     1      20.196   8.354  22.794  0.00  0.00    +0.105 C 
ATOM     15  C   UNL     1      20.320   7.229  23.822  0.00  0.00    +0.182 C 
ATOM     16  C   UNL     1      20.928   9.524  23.459  0.00  0.00    +0.043 C 
ATOM     17  C   UNL     1      20.639   9.339  24.942  0.00  0.00    +0.110 C 
ATOM     19  C   UNL     1      20.202   7.253  26.313  0.00  0.00    +0.226 C 
ENDROOT
BRANCH  14  10
ATOM      7  O   UNL     1      18.572   7.367  20.652  0.00  0.00    -0.252 OA
ATOM     10  N   UNL     1      18.811   8.674  22.543  0.00  0.00    -0.294 N 
ATOM     12  N   UNL     1      16.777   8.634  21.480  0.00  0.00    -0.267 N 
ATOM     22  C   UNL     1      18.088   8.147  21.469  0.00  0.00    +0.304 C 
ATOM     36  H   UNL     1      18.320   9.260  23.212  0.00  0.00    +0.151 HD
ATOM     38  H   UNL     1      16.534   9.278  22.229  0.00  0.00    +0.156 HD
BRANCH  12  26
ATOM      3  F   UNL     1      15.564   6.126  21.403  0.00  0.00    -0.203 F 
ATOM      4  F   UNL     1      12.692   7.507  17.906  0.00  0.00    -0.205 F 
ATOM     26  C   UNL     1      15.735   8.343  20.569  0.00  0.00    +0.070 A 
ATOM     29  C   UNL     1      15.148   7.078  20.556  0.00  0.00    +0.147 A 
ATOM     30  C   UNL     1      15.295   9.326  19.682  0.00  0.00    +0.029 A 
ATOM     33  C   UNL     1      14.121   6.796  19.656  0.00  0.00    +0.078 A 
ATOM     34  C   UNL     1      14.268   9.043  18.782  0.00  0.00    +0.040 A 
ATOM     35  C   UNL     1      13.680   7.778  18.769  0.00  0.00    +0.126 A 
ENDBRANCH  12  26
ENDBRANCH  14  10
BRANCH  15  18
ATOM      5  O   UNL     1      22.578   6.647  24.341  0.00  0.00    -0.274 OA
ATOM     11  N   UNL     1      21.503   5.546  22.593  0.00  0.00    -0.302 N 
ATOM     18  C   UNL     1      21.590   6.452  23.636  0.00  0.00    +0.236 C 
ATOM     37  H   UNL     1      20.660   5.531  22.026  0.00  0.00    +0.150 HD
BRANCH  11  20
ATOM     20  C   UNL     1      22.598   4.693  22.194  0.00  0.00    +0.163 C 
BRANCH  20  24
ATOM      8  O   UNL     1      24.002   5.182  20.272  0.00  0.00    -0.274 OA
ATOM     13  N   UNL     1      21.740   4.947  19.948  0.00  0.00    -0.328 N 
ATOM     24  C   UNL     1      22.879   4.982  20.726  0.00  0.00    +0.231 C 
ATOM     39  H   UNL     1      21.789   5.107  18.947  0.00  0.00    +0.145 HD
ATOM     40  H   UNL     1      20.818   4.777  20.336  0.00  0.00    +0.145 HD
ENDBRANCH  20  24
BRANCH  20  23
ATOM     23  C   UNL     1      22.278   3.206  22.393  0.00  0.00    +0.074 C 
BRANCH  23  25
ATOM      2  S   UNL     1      24.569   2.347  23.726  0.00  0.00    -0.102 S 
ATOM     25  C   UNL     1      23.519   2.344  22.374  0.00  0.00    -0.008 A 
ATOM     27  C   UNL     1      23.964   1.505  21.376  0.00  0.00    +0.011 A 
ATOM     31  C   UNL     1      25.183   0.856  21.727  0.00  0.00    +0.008 A 
ATOM     32  C   UNL     1      25.623   1.224  22.979  0.00  0.00    +0.045 A 
ENDBRANCH  23  25
ENDBRANCH  20  23
ENDBRANCH  11  20
ENDBRANCH  15  18
BRANCH  19  21
ATOM     21  C   UNL     1      20.181   8.136  27.536  0.00  0.00    +0.164 C 
BRANCH  21   1
ATOM      1  S   UNL     1      21.368   7.469  28.711  0.00  0.00    -0.155 S 
ATOM     28  C   UNL     1      22.890   7.803  27.791  0.00  0.00    +0.085 C 
ENDBRANCH  21   1
ENDBRANCH  19  21
TORSDOF 9
ENDMDL
MODEL 2
REMARK VINA RESULT:      -6.5     31.528     34.201
REMARK  Name = 11882059
REMARK  10 active torsions:
REMARK  status: ('A' for Active; 'I' for Inactive)
REMARK    1  A    between atoms: S_1  and  C_21
REMARK    2  A    between atoms: S_1  and  C_28
REMARK    3  A    between atoms: N_10  and  C_14
REMARK    4  A    between atoms: N_11  and  C_20
REMARK    5  A    between atoms: N_12  and  C_26
REMARK    6  A    between atoms: C_15  and  C_18
REMARK    7  A    between atoms: C_19  and  C_21
REMARK    8  A    between atoms: C_20  and  C_23
REMARK    9  A    between atoms: C_20  and  C_24
REMARK   10  A    between atoms: C_23  and  C_25
REMARK                            x       y       z     vdW  Elec       q    Type
REMARK                         _______ _______ _______ _____ _____    ______ ____
ROOT
ATOM      6  O   UNL     1      -7.456  -6.592   8.373  0.00  0.00    -0.275 OA
ATOM      9  N   UNL     1      -7.813  -8.606   9.458  0.00  0.00    -0.287 N 
ATOM     14  C   UNL     1      -6.439 -10.008  10.789  0.00  0.00    +0.105 C 
ATOM     15  C   UNL     1      -6.411  -8.886   9.751  0.00  0.00    +0.182 C 
ATOM     16  C   UNL     1      -7.755 -10.734  10.491  0.00  0.00    +0.043 C 
ATOM     17  C   UNL     1      -8.689  -9.622  10.033  0.00  0.00    +0.110 C 
ATOM     19  C   UNL     1      -8.224  -7.430   8.849  0.00  0.00    +0.226 C 
ENDROOT
BRANCH  14  10
ATOM      7  O   UNL     1      -5.907 -11.452  13.204  0.00  0.00    -0.252 OA
ATOM     10  N   UNL     1      -6.426  -9.472  12.130  0.00  0.00    -0.294 N 
ATOM     12  N   UNL     1      -6.213  -9.464  14.415  0.00  0.00    -0.267 N 
ATOM     22  C   UNL     1      -6.156 -10.250  13.260  0.00  0.00    +0.304 C 
ATOM     36  H   UNL     1      -6.556  -8.473  12.254  0.00  0.00    +0.151 HD
ATOM     38  H   UNL     1      -6.435  -8.480  14.290  0.00  0.00    +0.156 HD
BRANCH  12  26
ATOM      3  F   UNL     1      -3.732 -10.389  15.284  0.00  0.00    -0.203 F 
ATOM      4  F   UNL     1      -5.397 -11.054  19.663  0.00  0.00    -0.205 F 
ATOM     26  C   UNL     1      -6.002  -9.871  15.753  0.00  0.00    +0.070 A 
ATOM     29  C   UNL     1      -4.748 -10.329  16.157  0.00  0.00    +0.147 A 
ATOM     30  C   UNL     1      -7.052  -9.813  16.670  0.00  0.00    +0.029 A 
ATOM     33  C   UNL     1      -4.544 -10.728  17.478  0.00  0.00    +0.078 A 
ATOM     34  C   UNL     1      -6.848 -10.214  17.990  0.00  0.00    +0.040 A 
ATOM     35  C   UNL     1      -5.594 -10.671  18.394  0.00  0.00    +0.126 A 
ENDBRANCH  12  26
ENDBRANCH  14  10
BRANCH  15  18
ATOM      5  O   UNL     1      -4.613  -9.692   8.401  0.00  0.00    -0.274 OA
ATOM     11  N   UNL     1      -6.680  -9.297   7.406  0.00  0.00    -0.302 N 
ATOM     18  C   UNL     1      -5.789  -9.343   8.465  0.00  0.00    +0.236 C 
ATOM     37  H   UNL     1      -7.608  -8.913   7.563  0.00  0.00    +0.150 HD
BRANCH  11  20
ATOM     20  C   UNL     1      -6.323  -9.664   6.055  0.00  0.00    +0.163 C 
BRANCH  20  24
ATOM      8  O   UNL     1      -7.859  -9.392   4.193  0.00  0.00    -0.274 OA
ATOM     13  N   UNL     1      -7.341  -7.552   5.466  0.00  0.00    -0.328 N 
ATOM     24  C   UNL     1      -7.240  -8.884   5.123  0.00  0.00    +0.231 C 
ATOM     39  H   UNL     1      -7.934  -6.922   4.936  0.00  0.00    +0.145 HD
ATOM     40  H   UNL     1      -6.826  -7.146   6.241  0.00  0.00    +0.145 HD
ENDBRANCH  20  24
BRANCH  20  23
ATOM     23  C   UNL     1      -6.463 -11.171   5.806  0.00  0.00    +0.074 C 
BRANCH  23  25
ATOM      2  S   UNL     1      -5.501 -12.277   3.437  0.00  0.00    -0.102 S 
ATOM     25  C   UNL     1      -5.287 -11.740   5.049  0.00  0.00    -0.008 A 
ATOM     27  C   UNL     1      -3.989 -11.904   5.481  0.00  0.00    +0.011 A 
ATOM     31  C   UNL     1      -3.159 -12.478   4.474  0.00  0.00    +0.008 A 
ATOM     32  C   UNL     1      -3.855 -12.731   3.313  0.00  0.00    +0.045 A 
ENDBRANCH  23  25
ENDBRANCH  20  23
ENDBRANCH  11  20
ENDBRANCH  15  18
BRANCH  19  21
ATOM     21  C   UNL     1      -9.716  -7.220   8.783  0.00  0.00    +0.164 C 
BRANCH  21   1
ATOM      1  S   UNL     1     -10.009  -5.464   8.526  0.00  0.00    -0.155 S 
ATOM     28  C   UNL     1     -11.374  -5.235   9.693  0.00  0.00    +0.085 C 
ENDBRANCH  21   1
ENDBRANCH  19  21
TORSDOF 9
ENDMDL
MODEL 3
REMARK VINA RESULT:      -6.3      2.395      2.841
REMARK  Name = 11882059
REMARK  10 active torsions:
REMARK  status: ('A' for Active; 'I' for Inactive)
REMARK    1  A    between atoms: S_1  and  C_21
REMARK    2  A    between atoms: S_1  and  C_28
REMARK    3  A    between atoms: N_10  and  C_14
REMARK    4  A    between atoms: N_11  and  C_20
REMARK    5  A    between atoms: N_12  and  C_26
REMARK    6  A    between atoms: C_15  and  C_18
REMARK    7  A    between atoms: C_19  and  C_21
REMARK    8  A    between atoms: C_20  and  C_23
REMARK    9  A    between atoms: C_20  and  C_24
REMARK   10  A    between atoms: C_23  and  C_25
REMARK                            x       y       z     vdW  Elec       q    Type
REMARK                         _______ _______ _______ _____ _____    ______ ____
ROOT
ATOM      6  O   UNL     1      21.548   5.544  24.436  0.00  0.00    -0.275 OA
ATOM      9  N   UNL     1      20.638   7.323  23.268  0.00  0.00    -0.287 N 
ATOM     14  C   UNL     1      19.158   7.477  21.421  0.00  0.00    +0.105 C 
ATOM     15  C   UNL     1      20.121   6.540  22.150  0.00  0.00    +0.182 C 
ATOM     16  C   UNL     1      19.712   8.870  21.736  0.00  0.00    +0.043 C 
ATOM     17  C   UNL     1      20.270   8.730  23.145  0.00  0.00    +0.110 C 
ATOM     19  C   UNL     1      21.252   6.738  24.365  0.00  0.00    +0.226 C 
ENDROOT
BRANCH  14  10
ATOM      7  O   UNL     1      16.741   8.192  20.062  0.00  0.00    -0.252 OA
ATOM     10  N   UNL     1      17.811   7.322  21.917  0.00  0.00    -0.294 N 
ATOM     12  N   UNL     1      15.519   7.432  21.917  0.00  0.00    -0.267 N 
ATOM     22  C   UNL     1      16.680   7.699  21.186  0.00  0.00    +0.304 C 
ATOM     36  H   UNL     1      17.674   6.860  22.810  0.00  0.00    +0.151 HD
ATOM     38  H   UNL     1      15.641   7.021  22.839  0.00  0.00    +0.156 HD
BRANCH  12  26
ATOM      3  F   UNL     1      14.155   9.729  22.711  0.00  0.00    -0.203 F 
ATOM      4  F   UNL     1      10.264   8.342  20.403  0.00  0.00    -0.205 F 
ATOM     26  C   UNL     1      14.178   7.666  21.532  0.00  0.00    +0.070 A 
ATOM     29  C   UNL     1      13.523   8.827  21.946  0.00  0.00    +0.147 A 
ATOM     30  C   UNL     1      13.511   6.734  20.738  0.00  0.00    +0.029 A 
ATOM     33  C   UNL     1      12.201   9.054  21.564  0.00  0.00    +0.078 A 
ATOM     34  C   UNL     1      12.188   6.962  20.357  0.00  0.00    +0.040 A 
ATOM     35  C   UNL     1      11.534   8.122  20.770  0.00  0.00    +0.126 A 
ENDBRANCH  12  26
ENDBRANCH  14  10
BRANCH  15  18
ATOM      5  O   UNL     1      21.679   6.921  20.380  0.00  0.00    -0.274 OA
ATOM     11  N   UNL     1      21.865   4.976  21.646  0.00  0.00    -0.302 N 
ATOM     18  C   UNL     1      21.302   6.191  21.293  0.00  0.00    +0.236 C 
ATOM     37  H   UNL     1      21.417   4.420  22.368  0.00  0.00    +0.150 HD
BRANCH  11  20
ATOM     20  C   UNL     1      23.000   4.403  20.961  0.00  0.00    +0.163 C 
BRANCH  20  24
ATOM      8  O   UNL     1      23.078   2.549  22.530  0.00  0.00    -0.274 OA
ATOM     13  N   UNL     1      23.078   2.084  20.281  0.00  0.00    -0.328 N 
ATOM     24  C   UNL     1      23.072   2.936  21.365  0.00  0.00    +0.231 C 
ATOM     39  H   UNL     1      23.106   1.078  20.410  0.00  0.00    +0.145 HD
ATOM     40  H   UNL     1      23.069   2.418  19.322  0.00  0.00    +0.145 HD
ENDBRANCH  20  24
BRANCH  20  23
ATOM     23  C   UNL     1      24.312   5.117  21.309  0.00  0.00    +0.074 C 
BRANCH  23  25
ATOM      2  S   UNL     1      26.688   3.710  21.676  0.00  0.00    -0.102 S 
ATOM     25  C   UNL     1      25.513   4.454  20.678  0.00  0.00    -0.008 A 
ATOM     27  C   UNL     1      25.828   4.347  19.340  0.00  0.00    +0.011 A 
ATOM     31  C   UNL     1      27.051   3.646  19.134  0.00  0.00    +0.008 A 
ATOM     32  C   UNL     1      27.623   3.243  20.321  0.00  0.00    +0.045 A 
ENDBRANCH  23  25
ENDBRANCH  20  23
ENDBRANCH  11  20
ENDBRANCH  15  18
BRANCH  19  21
ATOM     21  C   UNL     1      21.562   7.669  25.510  0.00  0.00    +0.164 C 
BRANCH  21   1
ATOM      1  S   UNL     1      20.383   7.329  26.825  0.00  0.00    -0.155 S 
ATOM     28  C   UNL     1      19.923   9.031  27.234  0.00  0.00    +0.085 C 
ENDBRANCH  21   1
ENDBRANCH  19  21
TORSDOF 9
ENDMDL
MODEL 4
REMARK VINA RESULT:      -6.3      5.018     10.263
REMARK  Name = 11882059
REMARK  10 active torsions:
REMARK  status: ('A' for Active; 'I' for Inactive)
REMARK    1  A    between atoms: S_1  and  C_21
REMARK    2  A    between atoms: S_1  and  C_28
REMARK    3  A    between atoms: N_10  and  C_14
REMARK    4  A    between atoms: N_11  and  C_20
REMARK    5  A    between atoms: N_12  and  C_26
REMARK    6  A    between atoms: C_15  and  C_18
REMARK    7  A    between atoms: C_19  and  C_21
REMARK    8  A    between atoms: C_20  and  C_23
REMARK    9  A    between atoms: C_20  and  C_24
REMARK   10  A    between atoms: C_23  and  C_25
REMARK                            x       y       z     vdW  Elec       q    Type
REMARK                         _______ _______ _______ _____ _____    ______ ____
ROOT
ATOM      6  O   UNL     1      14.564  10.244  18.494  0.00  0.00    -0.275 OA
ATOM      9  N   UNL     1      16.181  10.386  20.145  0.00  0.00    -0.287 N 
ATOM     14  C   UNL     1      17.261   8.779  21.515  0.00  0.00    +0.105 C 
ATOM     15  C   UNL     1      16.028   9.023  20.644  0.00  0.00    +0.182 C 
ATOM     16  C   UNL     1      17.636  10.182  22.000  0.00  0.00    +0.043 C 
ATOM     17  C   UNL     1      17.265  11.084  20.830  0.00  0.00    +0.110 C 
ATOM     19  C   UNL     1      15.475  10.861  19.050  0.00  0.00    +0.226 C 
ENDROOT
BRANCH  14  10
ATOM      7  O   UNL     1      19.583   7.457  22.545  0.00  0.00    -0.252 OA
ATOM     10  N   UNL     1      18.328   8.185  20.745  0.00  0.00    -0.294 N 
ATOM     12  N   UNL     1      20.298   7.079  20.341  0.00  0.00    -0.267 N 
ATOM     22  C   UNL     1      19.432   7.556  21.329  0.00  0.00    +0.304 C 
ATOM     36  H   UNL     1      18.244   8.167  19.733  0.00  0.00    +0.151 HD
ATOM     38  H   UNL     1      20.027   7.245  19.375  0.00  0.00    +0.156 HD
BRANCH  12  26
ATOM      3  F   UNL     1      20.374   4.316  20.694  0.00  0.00    -0.203 F 
ATOM      4  F   UNL     1      25.093   4.383  21.026  0.00  0.00    -0.205 F 
ATOM     26  C   UNL     1      21.520   6.389  20.516  0.00  0.00    +0.070 A 
ATOM     29  C   UNL     1      21.524   5.005  20.690  0.00  0.00    +0.147 A 
ATOM     30  C   UNL     1      22.722   7.095  20.515  0.00  0.00    +0.029 A 
ATOM     33  C   UNL     1      22.731   4.328  20.863  0.00  0.00    +0.078 A 
ATOM     34  C   UNL     1      23.930   6.418  20.688  0.00  0.00    +0.040 A 
ATOM     35  C   UNL     1      23.933   5.034  20.862  0.00  0.00    +0.126 A 
ENDBRANCH  12  26
ENDBRANCH  14  10
BRANCH  15  18
ATOM      5  O   UNL     1      14.695   9.562  22.551  0.00  0.00    -0.274 OA
ATOM     11  N   UNL     1      13.756   8.289  20.843  0.00  0.00    -0.302 N 
ATOM     18  C   UNL     1      14.768   9.006  21.458  0.00  0.00    +0.236 C 
ATOM     37  H   UNL     1      13.958   7.804  19.974  0.00  0.00    +0.150 HD
BRANCH  11  20
ATOM     20  C   UNL     1      12.450   8.103  21.431  0.00  0.00    +0.163 C 
BRANCH  20  24
ATOM      8  O   UNL     1      11.359   5.954  21.740  0.00  0.00    -0.274 OA
ATOM     13  N   UNL     1      12.213   6.463  19.670  0.00  0.00    -0.328 N 
ATOM     24  C   UNL     1      11.958   6.728  21.000  0.00  0.00    +0.231 C 
ATOM     39  H   UNL     1      11.922   5.587  19.250  0.00  0.00    +0.145 HD
ATOM     40  H   UNL     1      12.707   7.114  19.068  0.00  0.00    +0.145 HD
ENDBRANCH  20  24
BRANCH  20  23
ATOM     23  C   UNL     1      11.456   9.187  20.995  0.00  0.00    +0.074 C 
BRANCH  23  25
ATOM      2  S   UNL     1      11.522  11.908  21.585  0.00  0.00    -0.102 S 
ATOM     25  C   UNL     1      11.297  10.272  22.033  0.00  0.00    -0.008 A 
ATOM     27  C   UNL     1      10.979  10.140  23.367  0.00  0.00    +0.011 A 
ATOM     31  C   UNL     1      10.921  11.401  24.030  0.00  0.00    +0.008 A 
ATOM     32  C   UNL     1      11.196  12.447  23.177  0.00  0.00    +0.045 A 
ENDBRANCH  23  25
ENDBRANCH  20  23
ENDBRANCH  11  20
ENDBRANCH  15  18
BRANCH  19  21
ATOM     21  C   UNL     1      15.883  12.226  18.556  0.00  0.00    +0.164 C 
BRANCH  21   1
ATOM      1  S   UNL     1      14.667  13.408  19.152  0.00  0.00    -0.155 S 
ATOM     28  C   UNL     1      15.795  14.681  19.772  0.00  0.00    +0.085 C 
ENDBRANCH  21   1
ENDBRANCH  19  21
TORSDOF 9
ENDMDL
MODEL 5
REMARK VINA RESULT:      -6.1     18.506     21.862
REMARK  Name = 11882059
REMARK  10 active torsions:
REMARK  status: ('A' for Active; 'I' for Inactive)
REMARK    1  A    between atoms: S_1  and  C_21
REMARK    2  A    between atoms: S_1  and  C_28
REMARK    3  A    between atoms: N_10  and  C_14
REMARK    4  A    between atoms: N_11  and  C_20
REMARK    5  A    between atoms: N_12  and  C_26
REMARK    6  A    between atoms: C_15  and  C_18
REMARK    7  A    between atoms: C_19  and  C_21
REMARK    8  A    between atoms: C_20  and  C_23
REMARK    9  A    between atoms: C_20  and  C_24
REMARK   10  A    between atoms: C_23  and  C_25
REMARK                            x       y       z     vdW  Elec       q    Type
REMARK                         _______ _______ _______ _____ _____    ______ ____
ROOT
ATOM      6  O   UNL     1      11.724   9.167   5.365  0.00  0.00    -0.275 OA
ATOM      9  N   UNL     1      11.003   7.227   6.401  0.00  0.00    -0.287 N 
ATOM     14  C   UNL     1       9.512   5.494   5.768  0.00  0.00    +0.105 C 
ATOM     15  C   UNL     1       9.909   6.942   5.478  0.00  0.00    +0.182 C 
ATOM     16  C   UNL     1       9.900   5.307   7.238  0.00  0.00    +0.043 C 
ATOM     17  C   UNL     1      11.144   6.170   7.399  0.00  0.00    +0.110 C 
ATOM     19  C   UNL     1      11.872   8.291   6.219  0.00  0.00    +0.226 C 
ENDROOT
BRANCH  14  10
ATOM      7  O   UNL     1      10.564   6.052   3.164  0.00  0.00    -0.252 OA
ATOM     10  N   UNL     1      10.232   4.579   4.914  0.00  0.00    -0.294 N 
ATOM     12  N   UNL     1      11.366   3.848   3.058  0.00  0.00    -0.267 N 
ATOM     22  C   UNL     1      10.713   4.934   3.650  0.00  0.00    +0.304 C 
ATOM     36  H   UNL     1      10.454   3.655   5.272  0.00  0.00    +0.151 HD
ATOM     38  H   UNL     1      11.402   2.985   3.595  0.00  0.00    +0.156 HD
BRANCH  12  26
ATOM      3  F   UNL     1       9.914   4.206   0.706  0.00  0.00    -0.203 F 
ATOM      4  F   UNL     1      13.815   3.646  -1.911  0.00  0.00    -0.205 F 
ATOM     26  C   UNL     1      11.988   3.797   1.788  0.00  0.00    +0.070 A 
ATOM     29  C   UNL     1      11.233   3.980   0.630  0.00  0.00    +0.147 A 
ATOM     30  C   UNL     1      13.360   3.561   1.697  0.00  0.00    +0.029 A 
ATOM     33  C   UNL     1      11.851   3.929  -0.619  0.00  0.00    +0.078 A 
ATOM     34  C   UNL     1      13.977   3.509   0.448  0.00  0.00    +0.040 A 
ATOM     35  C   UNL     1      13.223   3.694  -0.711  0.00  0.00    +0.126 A 
ENDBRANCH  12  26
ENDBRANCH  14  10
BRANCH  15  18
ATOM      5  O   UNL     1       8.085   7.727   6.804  0.00  0.00    -0.274 OA
ATOM     11  N   UNL     1       8.696   8.927   4.905  0.00  0.00    -0.302 N 
ATOM     18  C   UNL     1       8.803   7.894   5.821  0.00  0.00    +0.236 C 
ATOM     37  H   UNL     1       9.296   8.917   4.084  0.00  0.00    +0.150 HD
BRANCH  11  20
ATOM     20  C   UNL     1       7.695   9.964   4.996  0.00  0.00    +0.163 C 
BRANCH  20  24
ATOM      8  O   UNL     1       7.045   9.235   2.771  0.00  0.00    -0.274 OA
ATOM     13  N   UNL     1       5.449  10.175   4.129  0.00  0.00    -0.328 N 
ATOM     24  C   UNL     1       6.731   9.758   3.836  0.00  0.00    +0.231 C 
ATOM     39  H   UNL     1       4.703  10.079   3.447  0.00  0.00    +0.145 HD
ATOM     40  H   UNL     1       5.201  10.603   5.015  0.00  0.00    +0.145 HD
ENDBRANCH  20  24
BRANCH  20  23
ATOM     23  C   UNL     1       8.308  11.370   4.937  0.00  0.00    +0.074 C 
BRANCH  23  25
ATOM      2  S   UNL     1       7.829  13.408   6.774  0.00  0.00    -0.102 S 
ATOM     25  C   UNL     1       8.573  11.938   6.311  0.00  0.00    -0.008 A 
ATOM     27  C   UNL     1       9.371  11.425   7.311  0.00  0.00    +0.011 A 
ATOM     31  C   UNL     1       9.370  12.250   8.472  0.00  0.00    +0.008 A 
ATOM     32  C   UNL     1       8.573  13.363   8.316  0.00  0.00    +0.045 A 
ENDBRANCH  23  25
ENDBRANCH  20  23
ENDBRANCH  11  20
ENDBRANCH  15  18
BRANCH  19  21
ATOM     21  C   UNL     1      13.052   8.336   7.158  0.00  0.00    +0.164 C 
BRANCH  21   1
ATOM      1  S   UNL     1      14.487   7.730   6.261  0.00  0.00    -0.155 S 
ATOM     28  C   UNL     1      15.441   9.266   6.188  0.00  0.00    +0.085 C 
ENDBRANCH  21   1
ENDBRANCH  19  21
TORSDOF 9
ENDMDL
MODEL 6
REMARK VINA RESULT:      -6.1     31.129     34.296
REMARK  Name = 11882059
REMARK  10 active torsions:
REMARK  status: ('A' for Active; 'I' for Inactive)
REMARK    1  A    between atoms: S_1  and  C_21
REMARK    2  A    between atoms: S_1  and  C_28
REMARK    3  A    between atoms: N_10  and  C_14
REMARK    4  A    between atoms: N_11  and  C_20
REMARK    5  A    between atoms: N_12  and  C_26
REMARK    6  A    between atoms: C_15  and  C_18
REMARK    7  A    between atoms: C_19  and  C_21
REMARK    8  A    between atoms: C_20  and  C_23
REMARK    9  A    between atoms: C_20  and  C_24
REMARK   10  A    between atoms: C_23  and  C_25
REMARK                            x       y       z     vdW  Elec       q    Type
REMARK                         _______ _______ _______ _____ _____    ______ ____
ROOT
ATOM      6  O   UNL     1      -7.111 -11.813   8.157  0.00  0.00    -0.275 OA
ATOM      9  N   UNL     1      -5.659 -10.222   9.004  0.00  0.00    -0.287 N 
ATOM     14  C   UNL     1      -5.527  -9.070  11.073  0.00  0.00    +0.105 C 
ATOM     15  C   UNL     1      -6.468  -9.861  10.165  0.00  0.00    +0.182 C 
ATOM     16  C   UNL     1      -4.521  -8.457  10.095  0.00  0.00    +0.043 C 
ATOM     17  C   UNL     1      -4.384  -9.511   9.004  0.00  0.00    +0.110 C 
ATOM     19  C   UNL     1      -6.024 -11.233   8.128  0.00  0.00    +0.226 C 
ENDROOT
BRANCH  14  10
ATOM      7  O   UNL     1      -6.344  -9.577  13.770  0.00  0.00    -0.252 OA
ATOM     10  N   UNL     1      -4.874  -9.938  12.024  0.00  0.00    -0.294 N 
ATOM     12  N   UNL     1      -4.509 -11.021  14.014  0.00  0.00    -0.267 N 
ATOM     22  C   UNL     1      -5.340 -10.131  13.328  0.00  0.00    +0.304 C 
ATOM     36  H   UNL     1      -4.076 -10.484  11.713  0.00  0.00    +0.151 HD
ATOM     38  H   UNL     1      -3.712 -11.392  13.502  0.00  0.00    +0.156 HD
BRANCH  12  26
ATOM      3  F   UNL     1      -2.848 -10.071  16.040  0.00  0.00    -0.203 F 
ATOM      4  F   UNL     1      -5.014 -12.803  19.239  0.00  0.00    -0.205 F 
ATOM     26  C   UNL     1      -4.635 -11.474  15.348  0.00  0.00    +0.070 A 
ATOM     29  C   UNL     1      -3.788 -10.979  16.339  0.00  0.00    +0.147 A 
ATOM     30  C   UNL     1      -5.609 -12.419  15.670  0.00  0.00    +0.029 A 
ATOM     33  C   UNL     1      -3.916 -11.428  17.653  0.00  0.00    +0.078 A 
ATOM     34  C   UNL     1      -5.737 -12.869  16.985  0.00  0.00    +0.040 A 
ATOM     35  C   UNL     1      -4.891 -12.373  17.976  0.00  0.00    +0.126 A 
ENDBRANCH  12  26
ENDBRANCH  14  10
BRANCH  15  18
ATOM      5  O   UNL     1      -8.607  -8.809  10.312  0.00  0.00    -0.274 OA
ATOM     11  N   UNL     1      -7.334  -8.509   8.386  0.00  0.00    -0.302 N 
ATOM     18  C   UNL     1      -7.588  -9.005   9.654  0.00  0.00    +0.236 C 
ATOM     37  H   UNL     1      -6.489  -8.805   7.905  0.00  0.00    +0.150 HD
BRANCH  11  20
ATOM     20  C   UNL     1      -8.265  -7.675   7.662  0.00  0.00    +0.163 C 
BRANCH  20  24
ATOM      8  O   UNL     1      -8.666  -7.402   5.281  0.00  0.00    -0.274 OA
ATOM     13  N   UNL     1      -6.768  -8.507   5.955  0.00  0.00    -0.328 N 
ATOM     24  C   UNL     1      -7.957  -7.845   6.181  0.00  0.00    +0.231 C 
ATOM     39  H   UNL     1      -6.436  -8.672   5.011  0.00  0.00    +0.145 HD
ATOM     40  H   UNL     1      -6.190  -8.865   6.709  0.00  0.00    +0.145 HD
ENDBRANCH  20  24
BRANCH  20  23
ATOM     23  C   UNL     1      -8.159  -6.199   8.064  0.00  0.00    +0.074 C 
BRANCH  23  25
ATOM      2  S   UNL     1     -10.893  -6.599   8.418  0.00  0.00    -0.102 S 
ATOM     25  C   UNL     1      -9.498  -5.607   8.433  0.00  0.00    -0.008 A 
ATOM     27  C   UNL     1      -9.789  -4.311   8.803  0.00  0.00    +0.011 A 
ATOM     31  C   UNL     1     -11.176  -4.133   9.077  0.00  0.00    +0.008 A 
ATOM     32  C   UNL     1     -11.891  -5.297   8.907  0.00  0.00    +0.045 A 
ENDBRANCH  23  25
ENDBRANCH  20  23
ENDBRANCH  11  20
ENDBRANCH  15  18
BRANCH  19  21
ATOM     21  C   UNL     1      -4.992 -11.598   7.091  0.00  0.00    +0.164 C 
BRANCH  21   1
ATOM      1  S   UNL     1      -4.256 -13.163   7.582  0.00  0.00    -0.155 S 
ATOM     28  C   UNL     1      -5.065 -14.243   6.376  0.00  0.00    +0.085 C 
ENDBRANCH  21   1
ENDBRANCH  19  21
TORSDOF 9
ENDMDL
MODEL 7
REMARK VINA RESULT:      -6.0     31.916     33.932
REMARK  Name = 11882059
REMARK  10 active torsions:
REMARK  status: ('A' for Active; 'I' for Inactive)
REMARK    1  A    between atoms: S_1  and  C_21
REMARK    2  A    between atoms: S_1  and  C_28
REMARK    3  A    between atoms: N_10  and  C_14
REMARK    4  A    between atoms: N_11  and  C_20
REMARK    5  A    between atoms: N_12  and  C_26
REMARK    6  A    between atoms: C_15  and  C_18
REMARK    7  A    between atoms: C_19  and  C_21
REMARK    8  A    between atoms: C_20  and  C_23
REMARK    9  A    between atoms: C_20  and  C_24
REMARK   10  A    between atoms: C_23  and  C_25
REMARK                            x       y       z     vdW  Elec       q    Type
REMARK                         _______ _______ _______ _____ _____    ______ ____
ROOT
ATOM      6  O   UNL     1     -11.928  -9.469  15.477  0.00  0.00    -0.275 OA
ATOM      9  N   UNL     1      -9.798  -9.182  16.337  0.00  0.00    -0.287 N 
ATOM     14  C   UNL     1      -7.681 -10.106  15.797  0.00  0.00    +0.105 C 
ATOM     15  C   UNL     1      -9.188 -10.318  15.652  0.00  0.00    +0.182 C 
ATOM     16  C   UNL     1      -7.559  -9.301  17.094  0.00  0.00    +0.043 C 
ATOM     17  C   UNL     1      -8.808  -8.430  17.101  0.00  0.00    +0.110 C 
ATOM     19  C   UNL     1     -11.117  -8.809  16.130  0.00  0.00    +0.226 C 
ENDROOT
BRANCH  14  10
ATOM      7  O   UNL     1      -7.072 -11.157  13.204  0.00  0.00    -0.252 OA
ATOM     10  N   UNL     1      -7.151  -9.373  14.671  0.00  0.00    -0.294 N 
ATOM     12  N   UNL     1      -6.377  -9.015  12.541  0.00  0.00    -0.267 N 
ATOM     22  C   UNL     1      -6.881  -9.966  13.434  0.00  0.00    +0.304 C 
ATOM     36  H   UNL     1      -7.029  -8.369  14.761  0.00  0.00    +0.151 HD
ATOM     38  H   UNL     1      -6.277  -8.066  12.890  0.00  0.00    +0.156 HD
BRANCH  12  26
ATOM      3  F   UNL     1      -3.779  -9.776  11.879  0.00  0.00    -0.203 F 
ATOM      4  F   UNL     1      -4.842  -9.780   7.269  0.00  0.00    -0.205 F 
ATOM     26  C   UNL     1      -5.983  -9.211  11.196  0.00  0.00    +0.070 A 
ATOM     29  C   UNL     1      -4.674  -9.592  10.898  0.00  0.00    +0.147 A 
ATOM     30  C   UNL     1      -6.906  -9.021  10.168  0.00  0.00    +0.029 A 
ATOM     33  C   UNL     1      -4.290  -9.784   9.572  0.00  0.00    +0.078 A 
ATOM     34  C   UNL     1      -6.520  -9.212   8.841  0.00  0.00    +0.040 A 
ATOM     35  C   UNL     1      -5.212  -9.594   8.543  0.00  0.00    +0.126 A 
ENDBRANCH  12  26
ENDBRANCH  14  10
BRANCH  15  18
ATOM      5  O   UNL     1     -10.266 -12.443  15.814  0.00  0.00    -0.274 OA
ATOM     11  N   UNL     1      -9.298 -11.522  17.720  0.00  0.00    -0.302 N 
ATOM     18  C   UNL     1      -9.643 -11.548  16.380  0.00  0.00    +0.236 C 
ATOM     37  H   UNL     1      -8.852 -10.690  18.095  0.00  0.00    +0.150 HD
BRANCH  11  20
ATOM     20  C   UNL     1      -9.639 -12.578  18.645  0.00  0.00    +0.163 C 
BRANCH  20  24
ATOM      8  O   UNL     1     -10.755 -12.516  20.803  0.00  0.00    -0.274 OA
ATOM     13  N   UNL     1      -9.886 -10.564  19.959  0.00  0.00    -0.328 N 
ATOM     24  C   UNL     1     -10.172 -11.913  19.906  0.00  0.00    +0.231 C 
ATOM     39  H   UNL     1     -10.170 -10.003  20.755  0.00  0.00    +0.145 HD
ATOM     40  H   UNL     1      -9.400 -10.079  19.211  0.00  0.00    +0.145 HD
ENDBRANCH  20  24
BRANCH  20  23
ATOM     23  C   UNL     1      -8.437 -13.471  18.979  0.00  0.00    +0.074 C 
BRANCH  23  25
ATOM      2  S   UNL     1      -6.134 -13.058  17.467  0.00  0.00    -0.102 S 
ATOM     25  C   UNL     1      -7.123 -12.743  18.828  0.00  0.00    -0.008 A 
ATOM     27  C   UNL     1      -6.561 -11.807  19.669  0.00  0.00    +0.011 A 
ATOM     31  C   UNL     1      -5.302 -11.343  19.188  0.00  0.00    +0.008 A 
ATOM     32  C   UNL     1      -4.950 -11.942  17.999  0.00  0.00    +0.045 A 
ENDBRANCH  23  25
ENDBRANCH  20  23
ENDBRANCH  11  20
ENDBRANCH  15  18
BRANCH  19  21
ATOM     21  C   UNL     1     -11.535  -7.511  16.773  0.00  0.00    +0.164 C 
BRANCH  21   1
ATOM      1  S   UNL     1     -11.378  -6.214  15.538  0.00  0.00    -0.155 S 
ATOM     28  C   UNL     1     -13.110  -6.105  15.026  0.00  0.00    +0.085 C 
ENDBRANCH  21   1
ENDBRANCH  19  21
TORSDOF 9
ENDMDL
MODEL 8
REMARK VINA RESULT:      -5.9     30.844     33.264
REMARK  Name = 11882059
REMARK  10 active torsions:
REMARK  status: ('A' for Active; 'I' for Inactive)
REMARK    1  A    between atoms: S_1  and  C_21
REMARK    2  A    between atoms: S_1  and  C_28
REMARK    3  A    between atoms: N_10  and  C_14
REMARK    4  A    between atoms: N_11  and  C_20
REMARK    5  A    between atoms: N_12  and  C_26
REMARK    6  A    between atoms: C_15  and  C_18
REMARK    7  A    between atoms: C_19  and  C_21
REMARK    8  A    between atoms: C_20  and  C_23
REMARK    9  A    between atoms: C_20  and  C_24
REMARK   10  A    between atoms: C_23  and  C_25
REMARK                            x       y       z     vdW  Elec       q    Type
REMARK                         _______ _______ _______ _____ _____    ______ ____
ROOT
ATOM      6  O   UNL     1      -8.404 -13.795  16.792  0.00  0.00    -0.275 OA
ATOM      9  N   UNL     1      -7.446 -12.267  18.242  0.00  0.00    -0.287 N 
ATOM     14  C   UNL     1      -6.752 -10.010  18.011  0.00  0.00    +0.105 C 
ATOM     15  C   UNL     1      -7.084 -11.281  17.229  0.00  0.00    +0.182 C 
ATOM     16  C   UNL     1      -6.281 -10.542  19.368  0.00  0.00    +0.043 C 
ATOM     17  C   UNL     1      -7.126 -11.790  19.584  0.00  0.00    +0.110 C 
ATOM     19  C   UNL     1      -8.150 -13.422  17.938  0.00  0.00    +0.226 C 
ENDROOT
BRANCH  14  10
ATOM      7  O   UNL     1      -8.561  -9.230  15.933  0.00  0.00    -0.252 OA
ATOM     10  N   UNL     1      -7.918  -9.171  18.152  0.00  0.00    -0.294 N 
ATOM     12  N   UNL     1      -9.796  -8.014  17.517  0.00  0.00    -0.267 N 
ATOM     22  C   UNL     1      -8.752  -8.836  17.081  0.00  0.00    +0.304 C 
ATOM     36  H   UNL     1      -8.182  -8.860  19.082  0.00  0.00    +0.151 HD
ATOM     38  H   UNL     1      -9.811  -7.776  18.505  0.00  0.00    +0.156 HD
BRANCH  12  26
ATOM      3  F   UNL     1     -12.364  -9.096  17.561  0.00  0.00    -0.203 F 
ATOM      4  F   UNL     1     -13.903  -5.839  14.494  0.00  0.00    -0.205 F 
ATOM     26  C   UNL     1     -10.845  -7.461  16.746  0.00  0.00    +0.070 A 
ATOM     29  C   UNL     1     -12.120  -8.027  16.790  0.00  0.00    +0.147 A 
ATOM     30  C   UNL     1     -10.603  -6.349  15.940  0.00  0.00    +0.029 A 
ATOM     33  C   UNL     1     -13.152  -7.478  16.029  0.00  0.00    +0.078 A 
ATOM     34  C   UNL     1     -11.635  -5.801  15.179  0.00  0.00    +0.040 A 
ATOM     35  C   UNL     1     -12.910  -6.366  15.224  0.00  0.00    +0.126 A 
ENDBRANCH  12  26
ENDBRANCH  14  10
BRANCH  15  18
ATOM      5  O   UNL     1      -4.903 -12.250  17.136  0.00  0.00    -0.274 OA
ATOM     11  N   UNL     1      -6.000 -11.749  15.144  0.00  0.00    -0.302 N 
ATOM     18  C   UNL     1      -5.877 -11.821  16.521  0.00  0.00    +0.236 C 
ATOM     37  H   UNL     1      -6.820 -11.299  14.748  0.00  0.00    +0.150 HD
BRANCH  11  20
ATOM     20  C   UNL     1      -4.965 -12.184  14.234  0.00  0.00    +0.163 C 
BRANCH  20  24
ATOM      8  O   UNL     1      -5.487 -14.554  14.366  0.00  0.00    -0.274 OA
ATOM     13  N   UNL     1      -3.398 -13.853  15.014  0.00  0.00    -0.328 N 
ATOM     24  C   UNL     1      -4.681 -13.647  14.548  0.00  0.00    +0.231 C 
ATOM     39  H   UNL     1      -3.073 -14.786  15.245  0.00  0.00    +0.145 HD
ATOM     40  H   UNL     1      -2.740 -13.093  15.157  0.00  0.00    +0.145 HD
ENDBRANCH  20  24
BRANCH  20  23
ATOM     23  C   UNL     1      -3.685 -11.350  14.368  0.00  0.00    +0.074 C 
BRANCH  23  25
ATOM      2  S   UNL     1      -4.422 -10.431  11.844  0.00  0.00    -0.102 S 
ATOM     25  C   UNL     1      -3.252 -10.749  13.052  0.00  0.00    -0.008 A 
ATOM     27  C   UNL     1      -1.983 -10.395  12.648  0.00  0.00    +0.011 A 
ATOM     31  C   UNL     1      -1.972  -9.856  11.329  0.00  0.00    +0.008 A 
ATOM     32  C   UNL     1      -3.233  -9.819  10.776  0.00  0.00    +0.045 A 
ENDBRANCH  23  25
ENDBRANCH  20  23
ENDBRANCH  11  20
ENDBRANCH  15  18
BRANCH  19  21
ATOM     21  C   UNL     1      -8.600 -14.240  19.123  0.00  0.00    +0.164 C 
BRANCH  21   1
ATOM      1  S   UNL     1     -10.394 -14.143  19.203  0.00  0.00    -0.155 S 
ATOM     28  C   UNL     1     -10.548 -12.899  20.509  0.00  0.00    +0.085 C 
ENDBRANCH  21   1
ENDBRANCH  19  21
TORSDOF 9
ENDMDL
MODEL 9
REMARK VINA RESULT:      -5.8     31.102     33.531
REMARK  Name = 11882059
REMARK  10 active torsions:
REMARK  status: ('A' for Active; 'I' for Inactive)
REMARK    1  A    between atoms: S_1  and  C_21
REMARK    2  A    between atoms: S_1  and  C_28
REMARK    3  A    between atoms: N_10  and  C_14
REMARK    4  A    between atoms: N_11  and  C_20
REMARK    5  A    between atoms: N_12  and  C_26
REMARK    6  A    between atoms: C_15  and  C_18
REMARK    7  A    between atoms: C_19  and  C_21
REMARK    8  A    between atoms: C_20  and  C_23
REMARK    9  A    between atoms: C_20  and  C_24
REMARK   10  A    between atoms: C_23  and  C_25
REMARK                            x       y       z     vdW  Elec       q    Type
REMARK                         _______ _______ _______ _____ _____    ______ ____
ROOT
ATOM      6  O   UNL     1      -8.954 -13.893  17.812  0.00  0.00    -0.275 OA
ATOM      9  N   UNL     1      -7.627 -12.255  18.768  0.00  0.00    -0.287 N 
ATOM     14  C   UNL     1      -6.724 -10.212  17.969  0.00  0.00    +0.105 C 
ATOM     15  C   UNL     1      -7.309 -11.554  17.528  0.00  0.00    +0.182 C 
ATOM     16  C   UNL     1      -6.122 -10.522  19.343  0.00  0.00    +0.043 C 
ATOM     17  C   UNL     1      -7.062 -11.568  19.926  0.00  0.00    +0.110 C 
ATOM     19  C   UNL     1      -8.494 -13.336  18.810  0.00  0.00    +0.226 C 
ENDROOT
BRANCH  14  10
ATOM      7  O   UNL     1      -8.697  -9.595  15.988  0.00  0.00    -0.252 OA
ATOM     10  N   UNL     1      -7.755  -9.205  18.062  0.00  0.00    -0.294 N 
ATOM     12  N   UNL     1      -9.554  -7.938  17.412  0.00  0.00    -0.267 N 
ATOM     22  C   UNL     1      -8.683  -8.967  17.043  0.00  0.00    +0.304 C 
ATOM     36  H   UNL     1      -7.851  -8.689  18.931  0.00  0.00    +0.151 HD
ATOM     38  H   UNL     1      -9.407  -7.516  18.326  0.00  0.00    +0.156 HD
BRANCH  12  26
ATOM      3  F   UNL     1     -12.155  -8.898  17.697  0.00  0.00    -0.203 F 
ATOM      4  F   UNL     1     -13.756  -5.820  14.480  0.00  0.00    -0.205 F 
ATOM     26  C   UNL     1     -10.628  -7.399  16.665  0.00  0.00    +0.070 A 
ATOM     29  C   UNL     1     -11.919  -7.902  16.831  0.00  0.00    +0.147 A 
ATOM     30  C   UNL     1     -10.394  -6.364  15.761  0.00  0.00    +0.029 A 
ATOM     33  C   UNL     1     -12.975  -7.368  16.093  0.00  0.00    +0.078 A 
ATOM     34  C   UNL     1     -11.450  -5.831  15.022  0.00  0.00    +0.040 A 
ATOM     35  C   UNL     1     -12.740  -6.333  15.188  0.00  0.00    +0.126 A 
ENDBRANCH  12  26
ENDBRANCH  14  10
BRANCH  15  18
ATOM      5  O   UNL     1      -6.015 -13.532  17.182  0.00  0.00    -0.274 OA
ATOM     11  N   UNL     1      -5.705 -11.719  15.756  0.00  0.00    -0.302 N 
ATOM     18  C   UNL     1      -6.287 -12.391  16.817  0.00  0.00    +0.236 C 
ATOM     37  H   UNL     1      -5.952 -10.746  15.597  0.00  0.00    +0.150 HD
BRANCH  11  20
ATOM     20  C   UNL     1      -4.674 -12.296  14.924  0.00  0.00    +0.163 C 
BRANCH  20  24
ATOM      8  O   UNL     1      -2.344 -11.696  14.585  0.00  0.00    -0.274 OA
ATOM     13  N   UNL     1      -3.685 -10.263  15.779  0.00  0.00    -0.328 N 
ATOM     24  C   UNL     1      -3.437 -11.423  15.075  0.00  0.00    +0.231 C 
ATOM     39  H   UNL     1      -2.948  -9.583  15.937  0.00  0.00    +0.145 HD
ATOM     40  H   UNL     1      -4.594 -10.048  16.175  0.00  0.00    +0.145 HD
ENDBRANCH  20  24
BRANCH  20  23
ATOM     23  C   UNL     1      -5.095 -12.378  13.451  0.00  0.00    +0.074 C 
BRANCH  23  25
ATOM      2  S   UNL     1      -7.641 -11.352  12.977  0.00  0.00    -0.102 S 
ATOM     25  C   UNL     1      -5.936 -11.198  13.028  0.00  0.00    -0.008 A 
ATOM     27  C   UNL     1      -5.519  -9.939  12.653  0.00  0.00    +0.011 A 
ATOM     31  C   UNL     1      -6.615  -9.090  12.320  0.00  0.00    +0.008 A 
ATOM     32  C   UNL     1      -7.826  -9.733  12.452  0.00  0.00    +0.045 A 
ENDBRANCH  23  25
ENDBRANCH  20  23
ENDBRANCH  11  20
ENDBRANCH  15  18
BRANCH  19  21
ATOM     21  C   UNL     1      -8.855 -13.827  20.190  0.00  0.00    +0.164 C 
BRANCH  21   1
ATOM      1  S   UNL     1     -10.503 -13.219  20.571  0.00  0.00    -0.155 S 
ATOM     28  C   UNL     1     -10.926 -14.373  21.899  0.00  0.00    +0.085 C 
ENDBRANCH  21   1
ENDBRANCH  19  21
TORSDOF 9
ENDMDL
MODEL 10
REMARK VINA RESULT:      -5.7     24.507     26.726
REMARK  Name = 11882059
REMARK  10 active torsions:
REMARK  status: ('A' for Active; 'I' for Inactive)
REMARK    1  A    between atoms: S_1  and  C_21
REMARK    2  A    between atoms: S_1  and  C_28
REMARK    3  A    between atoms: N_10  and  C_14
REMARK    4  A    between atoms: N_11  and  C_20
REMARK    5  A    between atoms: N_12  and  C_26
REMARK    6  A    between atoms: C_15  and  C_18
REMARK    7  A    between atoms: C_19  and  C_21
REMARK    8  A    between atoms: C_20  and  C_23
REMARK    9  A    between atoms: C_20  and  C_24
REMARK   10  A    between atoms: C_23  and  C_25
REMARK                            x       y       z     vdW  Elec       q    Type
REMARK                         _______ _______ _______ _____ _____    ______ ____
ROOT
ATOM      6  O   UNL     1      21.150  -8.215   4.303  0.00  0.00    -0.275 OA
ATOM      9  N   UNL     1      21.441  -8.379   2.012  0.00  0.00    -0.287 N 
ATOM     14  C   UNL     1      19.986  -8.112   0.158  0.00  0.00    +0.105 C 
ATOM     15  C   UNL     1      20.024  -8.373   1.664  0.00  0.00    +0.182 C 
ATOM     16  C   UNL     1      21.324  -8.674  -0.333  0.00  0.00    +0.043 C 
ATOM     17  C   UNL     1      22.281  -8.395   0.818  0.00  0.00    +0.110 C 
ATOM     19  C   UNL     1      21.887  -8.224   3.316  0.00  0.00    +0.226 C 
ENDROOT
BRANCH  14  10
ATOM      7  O   UNL     1      18.639  -6.904  -2.061  0.00  0.00    -0.252 OA
ATOM     10  N   UNL     1      19.875  -6.700  -0.119  0.00  0.00    -0.294 N 
ATOM     12  N   UNL     1      19.256  -4.794  -1.238  0.00  0.00    -0.267 N 
ATOM     22  C   UNL     1      19.196  -6.191  -1.231  0.00  0.00    +0.304 C 
ATOM     36  H   UNL     1      20.253  -6.042   0.556  0.00  0.00    +0.151 HD
ATOM     38  H   UNL     1      19.761  -4.352  -0.474  0.00  0.00    +0.156 HD
BRANCH  12  26
ATOM      3  F   UNL     1      20.825  -3.568  -3.188  0.00  0.00    -0.203 F 
ATOM      4  F   UNL     1      17.056  -1.318  -4.954  0.00  0.00    -0.205 F 
ATOM     26  C   UNL     1      18.697  -3.906  -2.187  0.00  0.00    +0.070 A 
ATOM     29  C   UNL     1      19.510  -3.309  -3.151  0.00  0.00    +0.147 A 
ATOM     30  C   UNL     1      17.331  -3.629  -2.158  0.00  0.00    +0.029 A 
ATOM     33  C   UNL     1      18.955  -2.435  -4.085  0.00  0.00    +0.078 A 
ATOM     34  C   UNL     1      16.776  -2.754  -3.092  0.00  0.00    +0.040 A 
ATOM     35  C   UNL     1      17.588  -2.157  -4.056  0.00  0.00    +0.126 A 
ENDBRANCH  12  26
ENDBRANCH  14  10
BRANCH  15  18
ATOM      5  O   UNL     1      20.153 -10.542   2.656  0.00  0.00    -0.274 OA
ATOM     11  N   UNL     1      18.239  -9.959   1.467  0.00  0.00    -0.302 N 
ATOM     18  C   UNL     1      19.498  -9.737   1.998  0.00  0.00    +0.236 C 
ATOM     37  H   UNL     1      17.827  -9.247   0.870  0.00  0.00    +0.150 HD
BRANCH  11  20
ATOM     20  C   UNL     1      17.521 -11.202   1.626  0.00  0.00    +0.163 C 
BRANCH  20  24
ATOM      8  O   UNL     1      17.790 -12.011  -0.650  0.00  0.00    -0.274 OA
ATOM     13  N   UNL     1      15.670 -11.568   0.114  0.00  0.00    -0.328 N 
ATOM     24  C   UNL     1      17.042 -11.622   0.243  0.00  0.00    +0.231 C 
ATOM     39  H   UNL     1      15.218 -11.838  -0.753  0.00  0.00    +0.145 HD
ATOM     40  H   UNL     1      15.063 -11.248   0.862  0.00  0.00    +0.145 HD
ENDBRANCH  20  24
BRANCH  20  23
ATOM     23  C   UNL     1      16.331 -11.069   2.585  0.00  0.00    +0.074 C 
BRANCH  23  25
ATOM      2  S   UNL     1      17.751 -13.100   3.857  0.00  0.00    -0.102 S 
ATOM     25  C   UNL     1      16.428 -12.018   3.755  0.00  0.00    -0.008 A 
ATOM     27  C   UNL     1      15.563 -12.158   4.819  0.00  0.00    +0.011 A 
ATOM     31  C   UNL     1      15.993 -13.166   5.729  0.00  0.00    +0.008 A 
ATOM     32  C   UNL     1      17.170 -13.759   5.327  0.00  0.00    +0.045 A 
ENDBRANCH  23  25
ENDBRANCH  20  23
ENDBRANCH  11  20
ENDBRANCH  15  18
BRANCH  19  21
ATOM     21  C   UNL     1      23.379  -8.071   3.479  0.00  0.00    +0.164 C 
BRANCH  21   1
ATOM      1  S   UNL     1      23.988  -9.534   4.329  0.00  0.00    -0.155 S 
ATOM     28  C   UNL     1      25.382  -8.785   5.208  0.00  0.00    +0.085 C 
ENDBRANCH  21   1
ENDBRANCH  19  21
TORSDOF 9
ENDMDL
