MODEL 1
REMARK VINA RESULT:      -7.6      0.000      0.000
REMARK  Name = 40777680
REMARK  10 active torsions:
REMARK  status: ('A' for Active; 'I' for Inactive)
REMARK    1  A    between atoms: N_5  and  C_11
REMARK    2  A    between atoms: N_6  and  C_20
REMARK    3  A    between atoms: N_8  and  C_29
REMARK    4  A    between atoms: N_8  and  C_33
REMARK    5  A    between atoms: N_8  and  C_34
REMARK    6  A    between atoms: C_9  and  C_12
REMARK    7  A    between atoms: C_15  and  C_17
REMARK    8  A    between atoms: C_16  and  C_18
REMARK    9  A    between atoms: C_19  and  C_21
REMARK   10  A    between atoms: C_28  and  C_32
REMARK                            x       y       z     vdW  Elec       q    Type
REMARK                         _______ _______ _______ _____ _____    ______ ____
ROOT
ATOM      9  C   UNL     1      -3.570 -10.504  10.232  0.00  0.00    +0.047 C 
ATOM     10  C   UNL     1      -4.621 -11.546   9.794  0.00  0.00    +0.039 C 
ATOM     11  C   UNL     1      -5.347 -10.930   8.592  0.00  0.00    +0.097 C 
ATOM     13  C   UNL     1      -4.119  -9.231   9.655  0.00  0.00    -0.021 C 
ATOM     14  C   UNL     1      -5.084  -9.469   8.759  0.00  0.00    -0.009 C 
ENDROOT
BRANCH   9  12
ATOM      6  N   UNL     1      -3.590 -10.559  13.894  0.00  0.00    -0.236 N 
ATOM      7  N   UNL     1      -2.287 -10.271  13.741  0.00  0.00    -0.171 NA
ATOM     12  C   UNL     1      -3.345 -10.475  11.726  0.00  0.00    +0.003 A 
ATOM     15  C   UNL     1      -4.268 -10.693  12.718  0.00  0.00    +0.046 A 
ATOM     16  C   UNL     1      -2.143 -10.220  12.413  0.00  0.00    +0.064 A 
ATOM     17  C   UNL     1      -5.709 -11.011  12.644  0.00  0.00    +0.066 C 
ATOM     18  C   UNL     1      -0.818  -9.921  11.840  0.00  0.00    +0.068 C 
BRANCH   6  20
ATOM     20  C   UNL     1      -4.123 -10.695  15.177  0.00  0.00    +0.066 A 
ATOM     22  C   UNL     1      -5.219  -9.923  15.563  0.00  0.00    +0.028 A 
ATOM     23  C   UNL     1      -3.556 -11.599  16.074  0.00  0.00    +0.028 A 
ATOM     24  C   UNL     1      -5.748 -10.056  16.846  0.00  0.00    +0.014 A 
ATOM     25  C   UNL     1      -4.085 -11.732  17.358  0.00  0.00    +0.014 A 
ATOM     28  C   UNL     1      -5.181 -10.961  17.745  0.00  0.00    +0.055 A 
BRANCH  28  32
ATOM      1  F   UNL     1      -4.864 -11.617  20.023  0.00  0.00    -0.166 F 
ATOM      2  F   UNL     1      -6.833 -11.929  19.155  0.00  0.00    -0.166 F 
ATOM      3  F   UNL     1      -6.167  -9.922  19.660  0.00  0.00    -0.166 F 
ATOM     32  C   UNL     1      -5.747 -11.103  19.117  0.00  0.00    +0.417 C 
ENDBRANCH  28  32
ENDBRANCH   6  20
ENDBRANCH   9  12
BRANCH  11   5
ATOM      4  O   UNL     1      -6.768 -11.161   6.107  0.00  0.00    -0.270 OA
ATOM      5  N   UNL     1      -4.808 -11.365   7.332  0.00  0.00    -0.305 N 
ATOM     19  C   UNL     1      -5.574 -11.446   6.175  0.00  0.00    +0.245 C 
ATOM     35  H   UNL     1      -3.853 -11.710   7.330  0.00  0.00    +0.150 HD
BRANCH  19  21
ATOM     21  C   UNL     1      -4.875 -11.940   4.961  0.00  0.00    +0.037 A 
ATOM     26  C   UNL     1      -5.595 -12.172   3.788  0.00  0.00    +0.015 A 
ATOM     27  C   UNL     1      -3.501 -12.172   4.993  0.00  0.00    +0.015 A 
ATOM     29  C   UNL     1      -3.563 -12.869   2.681  0.00  0.00    +0.029 A 
ATOM     30  C   UNL     1      -4.939 -12.637   2.649  0.00  0.00    +0.024 A 
ATOM     31  C   UNL     1      -2.844 -12.637   3.853  0.00  0.00    +0.024 A 
BRANCH  29   8
ATOM      8  N   UNL     1      -2.899 -13.338   1.529  0.00  0.00    -0.336 N 
ATOM     33  C   UNL     1      -3.415 -13.034   0.210  0.00  0.00    +0.129 C 
ATOM     34  C   UNL     1      -1.696 -14.137   1.649  0.00  0.00    +0.129 C 
ENDBRANCH  29   8
ENDBRANCH  19  21
ENDBRANCH  11   5
TORSDOF 6
ENDMDL
MODEL 2
REMARK VINA RESULT:      -7.3      8.037     14.903
REMARK  Name = 40777680
REMARK  10 active torsions:
REMARK  status: ('A' for Active; 'I' for Inactive)
REMARK    1  A    between atoms: N_5  and  C_11
REMARK    2  A    between atoms: N_6  and  C_20
REMARK    3  A    between atoms: N_8  and  C_29
REMARK    4  A    between atoms: N_8  and  C_33
REMARK    5  A    between atoms: N_8  and  C_34
REMARK    6  A    between atoms: C_9  and  C_12
REMARK    7  A    between atoms: C_15  and  C_17
REMARK    8  A    between atoms: C_16  and  C_18
REMARK    9  A    between atoms: C_19  and  C_21
REMARK   10  A    between atoms: C_28  and  C_32
REMARK                            x       y       z     vdW  Elec       q    Type
REMARK                         _______ _______ _______ _____ _____    ______ ____
ROOT
ATOM      9  C   UNL     1      -9.796 -11.371  18.963  0.00  0.00    +0.047 C 
ATOM     10  C   UNL     1     -10.431 -10.375  19.956  0.00  0.00    +0.039 C 
ATOM     11  C   UNL     1     -11.906 -10.779  20.070  0.00  0.00    +0.097 C 
ATOM     13  C   UNL     1     -10.990 -11.873  18.204  0.00  0.00    -0.021 C 
ATOM     14  C   UNL     1     -12.137 -11.552  18.813  0.00  0.00    -0.009 C 
ENDROOT
BRANCH   9  12
ATOM      6  N   UNL     1      -6.881 -10.361  16.990  0.00  0.00    -0.236 N 
ATOM      7  N   UNL     1      -7.617  -9.258  16.773  0.00  0.00    -0.171 NA
ATOM     12  C   UNL     1      -8.716 -10.754  18.105  0.00  0.00    +0.003 A 
ATOM     15  C   UNL     1      -7.494 -11.287  17.781  0.00  0.00    +0.046 A 
ATOM     16  C   UNL     1      -8.738  -9.503  17.457  0.00  0.00    +0.064 A 
ATOM     17  C   UNL     1      -6.874 -12.576  18.150  0.00  0.00    +0.066 C 
ATOM     18  C   UNL     1      -9.818  -8.500  17.462  0.00  0.00    +0.068 C 
BRANCH   6  20
ATOM     20  C   UNL     1      -5.612 -10.469  16.418  0.00  0.00    +0.066 A 
ATOM     22  C   UNL     1      -4.479 -10.487  17.233  0.00  0.00    +0.028 A 
ATOM     23  C   UNL     1      -5.476 -10.554  15.034  0.00  0.00    +0.028 A 
ATOM     24  C   UNL     1      -3.211 -10.592  16.662  0.00  0.00    +0.014 A 
ATOM     25  C   UNL     1      -4.208 -10.658  14.462  0.00  0.00    +0.014 A 
ATOM     28  C   UNL     1      -3.075 -10.677  15.275  0.00  0.00    +0.055 A 
BRANCH  28  32
ATOM      1  F   UNL     1      -1.472 -12.006  14.099  0.00  0.00    -0.166 F 
ATOM      2  F   UNL     1      -0.718 -10.596  15.572  0.00  0.00    -0.166 F 
ATOM      3  F   UNL     1      -1.492  -9.880  13.671  0.00  0.00    -0.166 F 
ATOM     32  C   UNL     1      -1.720 -10.788  14.665  0.00  0.00    +0.417 C 
ENDBRANCH  28  32
ENDBRANCH   6  20
ENDBRANCH   9  12
BRANCH  11   5
ATOM      4  O   UNL     1     -14.381 -11.017  21.508  0.00  0.00    -0.270 OA
ATOM      5  N   UNL     1     -12.164 -11.629  21.201  0.00  0.00    -0.305 N 
ATOM     19  C   UNL     1     -13.399 -11.679  21.837  0.00  0.00    +0.245 C 
ATOM     35  H   UNL     1     -11.375 -12.135  21.591  0.00  0.00    +0.150 HD
BRANCH  19  21
ATOM     21  C   UNL     1     -13.496 -12.589  23.007  0.00  0.00    +0.037 A 
ATOM     26  C   UNL     1     -14.475 -12.374  23.978  0.00  0.00    +0.015 A 
ATOM     27  C   UNL     1     -12.610 -13.657  23.135  0.00  0.00    +0.015 A 
ATOM     29  C   UNL     1     -13.678 -14.297  25.205  0.00  0.00    +0.029 A 
ATOM     30  C   UNL     1     -14.565 -13.228  25.077  0.00  0.00    +0.024 A 
ATOM     31  C   UNL     1     -12.700 -14.512  24.235  0.00  0.00    +0.024 A 
BRANCH  29   8
ATOM      8  N   UNL     1     -13.770 -15.161  26.317  0.00  0.00    -0.336 N 
ATOM     33  C   UNL     1     -14.383 -14.708  27.548  0.00  0.00    +0.129 C 
ATOM     34  C   UNL     1     -13.245 -16.509  26.243  0.00  0.00    +0.129 C 
ENDBRANCH  29   8
ENDBRANCH  19  21
ENDBRANCH  11   5
TORSDOF 6
ENDMDL
MODEL 3
REMARK VINA RESULT:      -7.2     29.039     32.828
REMARK  Name = 40777680
REMARK  10 active torsions:
REMARK  status: ('A' for Active; 'I' for Inactive)
REMARK    1  A    between atoms: N_5  and  C_11
REMARK    2  A    between atoms: N_6  and  C_20
REMARK    3  A    between atoms: N_8  and  C_29
REMARK    4  A    between atoms: N_8  and  C_33
REMARK    5  A    between atoms: N_8  and  C_34
REMARK    6  A    between atoms: C_9  and  C_12
REMARK    7  A    between atoms: C_15  and  C_17
REMARK    8  A    between atoms: C_16  and  C_18
REMARK    9  A    between atoms: C_19  and  C_21
REMARK   10  A    between atoms: C_28  and  C_32
REMARK                            x       y       z     vdW  Elec       q    Type
REMARK                         _______ _______ _______ _____ _____    ______ ____
ROOT
ATOM      9  C   UNL     1      20.579   6.080  21.875  0.00  0.00    +0.047 C 
ATOM     10  C   UNL     1      19.920   6.896  23.007  0.00  0.00    +0.039 C 
ATOM     11  C   UNL     1      19.366   8.162  22.344  0.00  0.00    +0.097 C 
ATOM     13  C   UNL     1      20.838   7.129  20.832  0.00  0.00    -0.021 C 
ATOM     14  C   UNL     1      20.171   8.259  21.090  0.00  0.00    -0.009 C 
ENDROOT
BRANCH   9  12
ATOM      6  N   UNL     1      23.342   3.801  22.641  0.00  0.00    -0.236 N 
ATOM      7  N   UNL     1      23.784   4.844  23.363  0.00  0.00    -0.171 NA
ATOM     12  C   UNL     1      21.806   5.320  22.323  0.00  0.00    +0.003 A 
ATOM     15  C   UNL     1      22.162   4.035  21.999  0.00  0.00    +0.046 A 
ATOM     16  C   UNL     1      22.841   5.770  23.166  0.00  0.00    +0.064 A 
ATOM     17  C   UNL     1      21.491   3.032  21.146  0.00  0.00    +0.066 C 
ATOM     18  C   UNL     1      22.974   7.089  23.811  0.00  0.00    +0.068 C 
BRANCH   6  20
ATOM     20  C   UNL     1      24.086   2.621  22.604  0.00  0.00    +0.066 A 
ATOM     22  C   UNL     1      24.999   2.402  21.571  0.00  0.00    +0.028 A 
ATOM     23  C   UNL     1      23.915   1.658  23.598  0.00  0.00    +0.028 A 
ATOM     24  C   UNL     1      25.739   1.222  21.533  0.00  0.00    +0.014 A 
ATOM     25  C   UNL     1      24.655   0.476  23.560  0.00  0.00    +0.014 A 
ATOM     28  C   UNL     1      25.567   0.257  22.527  0.00  0.00    +0.055 A 
BRANCH  28  32
ATOM      1  F   UNL     1      26.208  -1.784  23.598  0.00  0.00    -0.166 F 
ATOM      2  F   UNL     1      27.701  -0.781  22.376  0.00  0.00    -0.166 F 
ATOM      3  F   UNL     1      26.037  -1.818  21.436  0.00  0.00    -0.166 F 
ATOM     32  C   UNL     1      26.359  -1.005  22.486  0.00  0.00    +0.417 C 
ENDBRANCH  28  32
ENDBRANCH   6  20
ENDBRANCH   9  12
BRANCH  11   5
ATOM      4  O   UNL     1      17.602  10.302  21.595  0.00  0.00    -0.270 OA
ATOM      5  N   UNL     1      17.973   8.048  22.003  0.00  0.00    -0.305 N 
ATOM     19  C   UNL     1      17.194   9.144  21.650  0.00  0.00    +0.245 C 
ATOM     35  H   UNL     1      17.539   7.137  22.119  0.00  0.00    +0.150 HD
BRANCH  19  21
ATOM     21  C   UNL     1      15.766   8.862  21.352  0.00  0.00    +0.037 A 
ATOM     26  C   UNL     1      15.413   8.258  20.145  0.00  0.00    +0.015 A 
ATOM     27  C   UNL     1      14.780   9.201  22.277  0.00  0.00    +0.015 A 
ATOM     29  C   UNL     1      13.085   8.334  20.790  0.00  0.00    +0.029 A 
ATOM     30  C   UNL     1      14.072   7.994  19.864  0.00  0.00    +0.024 A 
ATOM     31  C   UNL     1      13.439   8.937  21.996  0.00  0.00    +0.024 A 
BRANCH  29   8
ATOM      8  N   UNL     1      11.730   8.066  20.507  0.00  0.00    -0.336 N 
ATOM     33  C   UNL     1      10.931   7.276  21.422  0.00  0.00    +0.129 C 
ATOM     34  C   UNL     1      11.120   8.571  19.293  0.00  0.00    +0.129 C 
ENDBRANCH  29   8
ENDBRANCH  19  21
ENDBRANCH  11   5
TORSDOF 6
ENDMDL
MODEL 4
REMARK VINA RESULT:      -7.2      1.466      2.068
REMARK  Name = 40777680
REMARK  10 active torsions:
REMARK  status: ('A' for Active; 'I' for Inactive)
REMARK    1  A    between atoms: N_5  and  C_11
REMARK    2  A    between atoms: N_6  and  C_20
REMARK    3  A    between atoms: N_8  and  C_29
REMARK    4  A    between atoms: N_8  and  C_33
REMARK    5  A    between atoms: N_8  and  C_34
REMARK    6  A    between atoms: C_9  and  C_12
REMARK    7  A    between atoms: C_15  and  C_17
REMARK    8  A    between atoms: C_16  and  C_18
REMARK    9  A    between atoms: C_19  and  C_21
REMARK   10  A    between atoms: C_28  and  C_32
REMARK                            x       y       z     vdW  Elec       q    Type
REMARK                         _______ _______ _______ _____ _____    ______ ____
ROOT
ATOM      9  C   UNL     1      -3.731 -11.990  10.918  0.00  0.00    +0.047 C 
ATOM     10  C   UNL     1      -5.112 -11.990  10.229  0.00  0.00    +0.039 C 
ATOM     11  C   UNL     1      -5.028 -10.932   9.122  0.00  0.00    +0.097 C 
ATOM     13  C   UNL     1      -3.192 -10.636  10.557  0.00  0.00    -0.021 C 
ATOM     14  C   UNL     1      -3.899 -10.066   9.576  0.00  0.00    -0.009 C 
ENDROOT
BRANCH   9  12
ATOM      6  N   UNL     1      -4.277 -12.207  14.533  0.00  0.00    -0.236 N 
ATOM      7  N   UNL     1      -3.425 -13.242  14.433  0.00  0.00    -0.171 NA
ATOM     12  C   UNL     1      -3.804 -12.265  12.402  0.00  0.00    +0.003 A 
ATOM     15  C   UNL     1      -4.537 -11.590  13.346  0.00  0.00    +0.046 A 
ATOM     16  C   UNL     1      -3.139 -13.272  13.128  0.00  0.00    +0.064 A 
ATOM     17  C   UNL     1      -5.446 -10.432  13.217  0.00  0.00    +0.066 C 
ATOM     18  C   UNL     1      -2.213 -14.297  12.613  0.00  0.00    +0.068 C 
BRANCH   6  20
ATOM     20  C   UNL     1      -4.803 -11.864  15.780  0.00  0.00    +0.066 A 
ATOM     22  C   UNL     1      -4.137 -10.942  16.588  0.00  0.00    +0.028 A 
ATOM     23  C   UNL     1      -5.992 -12.444  16.218  0.00  0.00    +0.028 A 
ATOM     24  C   UNL     1      -4.661 -10.601  17.835  0.00  0.00    +0.014 A 
ATOM     25  C   UNL     1      -6.516 -12.104  17.465  0.00  0.00    +0.014 A 
ATOM     28  C   UNL     1      -5.851 -11.183  18.274  0.00  0.00    +0.055 A 
BRANCH  28  32
ATOM      1  F   UNL     1      -7.774 -10.875  19.663  0.00  0.00    -0.166 F 
ATOM      2  F   UNL     1      -6.082  -9.549  19.986  0.00  0.00    -0.166 F 
ATOM      3  F   UNL     1      -5.979 -11.626  20.620  0.00  0.00    -0.166 F 
ATOM     32  C   UNL     1      -6.410 -10.819  19.607  0.00  0.00    +0.417 C 
ENDBRANCH  28  32
ENDBRANCH   6  20
ENDBRANCH   9  12
BRANCH  11   5
ATOM      4  O   UNL     1      -5.843  -9.930   6.557  0.00  0.00    -0.270 OA
ATOM      5  N   UNL     1      -4.705 -11.494   7.838  0.00  0.00    -0.305 N 
ATOM     19  C   UNL     1      -5.145 -10.938   6.642  0.00  0.00    +0.245 C 
ATOM     35  H   UNL     1      -4.213 -12.383   7.830  0.00  0.00    +0.150 HD
BRANCH  19  21
ATOM     21  C   UNL     1      -4.748 -11.654   5.403  0.00  0.00    +0.037 A 
ATOM     26  C   UNL     1      -3.465 -12.191   5.290  0.00  0.00    +0.015 A 
ATOM     27  C   UNL     1      -5.656 -11.789   4.354  0.00  0.00    +0.015 A 
ATOM     29  C   UNL     1      -3.999 -12.997   3.075  0.00  0.00    +0.029 A 
ATOM     30  C   UNL     1      -3.091 -12.862   4.126  0.00  0.00    +0.024 A 
ATOM     31  C   UNL     1      -5.281 -12.461   3.189  0.00  0.00    +0.024 A 
BRANCH  29   8
ATOM      8  N   UNL     1      -3.622 -13.677   1.898  0.00  0.00    -0.336 N 
ATOM     33  C   UNL     1      -3.589 -15.125   1.866  0.00  0.00    +0.129 C 
ATOM     34  C   UNL     1      -3.254 -12.935   0.709  0.00  0.00    +0.129 C 
ENDBRANCH  29   8
ENDBRANCH  19  21
ENDBRANCH  11   5
TORSDOF 6
ENDMDL
MODEL 5
REMARK VINA RESULT:      -7.2     22.974     26.290
REMARK  Name = 40777680
REMARK  10 active torsions:
REMARK  status: ('A' for Active; 'I' for Inactive)
REMARK    1  A    between atoms: N_5  and  C_11
REMARK    2  A    between atoms: N_6  and  C_20
REMARK    3  A    between atoms: N_8  and  C_29
REMARK    4  A    between atoms: N_8  and  C_33
REMARK    5  A    between atoms: N_8  and  C_34
REMARK    6  A    between atoms: C_9  and  C_12
REMARK    7  A    between atoms: C_15  and  C_17
REMARK    8  A    between atoms: C_16  and  C_18
REMARK    9  A    between atoms: C_19  and  C_21
REMARK   10  A    between atoms: C_28  and  C_32
REMARK                            x       y       z     vdW  Elec       q    Type
REMARK                         _______ _______ _______ _____ _____    ______ ____
ROOT
ATOM      9  C   UNL     1     -15.945   4.915  23.519  0.00  0.00    +0.047 C 
ATOM     10  C   UNL     1     -16.710   5.584  24.681  0.00  0.00    +0.039 C 
ATOM     11  C   UNL     1     -17.723   4.542  25.170  0.00  0.00    +0.097 C 
ATOM     13  C   UNL     1     -16.895   3.834  23.089  0.00  0.00    -0.021 C 
ATOM     14  C   UNL     1     -17.858   3.632  23.994  0.00  0.00    -0.009 C 
ENDROOT
BRANCH   9  12
ATOM      6  N   UNL     1     -14.476   7.006  20.895  0.00  0.00    -0.236 N 
ATOM      7  N   UNL     1     -15.701   7.558  20.879  0.00  0.00    -0.171 NA
ATOM     12  C   UNL     1     -15.554   5.883  22.426  0.00  0.00    +0.003 A 
ATOM     15  C   UNL     1     -14.336   5.998  21.804  0.00  0.00    +0.046 A 
ATOM     16  C   UNL     1     -16.356   6.868  21.817  0.00  0.00    +0.064 A 
ATOM     17  C   UNL     1     -13.079   5.247  21.994  0.00  0.00    +0.066 C 
ATOM     18  C   UNL     1     -17.766   7.189  22.100  0.00  0.00    +0.068 C 
BRANCH   6  20
ATOM     20  C   UNL     1     -13.492   7.480  20.026  0.00  0.00    +0.066 A 
ATOM     22  C   UNL     1     -12.205   7.734  20.501  0.00  0.00    +0.028 A 
ATOM     23  C   UNL     1     -13.797   7.703  18.684  0.00  0.00    +0.028 A 
ATOM     24  C   UNL     1     -11.223   8.211  19.633  0.00  0.00    +0.014 A 
ATOM     25  C   UNL     1     -12.815   8.181  17.815  0.00  0.00    +0.014 A 
ATOM     28  C   UNL     1     -11.528   8.435  18.289  0.00  0.00    +0.055 A 
BRANCH  28  32
ATOM      1  F   UNL     1      -9.329   9.328  17.993  0.00  0.00    -0.166 F 
ATOM      2  F   UNL     1     -10.888  10.039  16.655  0.00  0.00    -0.166 F 
ATOM      3  F   UNL     1     -10.084   8.032  16.427  0.00  0.00    -0.166 F 
ATOM     32  C   UNL     1     -10.478   8.946  17.362  0.00  0.00    +0.417 C 
ENDBRANCH  28  32
ENDBRANCH   6  20
ENDBRANCH   9  12
BRANCH  11   5
ATOM      4  O   UNL     1     -17.171   5.553  27.801  0.00  0.00    -0.270 OA
ATOM      5  N   UNL     1     -17.244   3.787  26.297  0.00  0.00    -0.305 N 
ATOM     19  C   UNL     1     -17.004   4.364  27.540  0.00  0.00    +0.245 C 
ATOM     35  H   UNL     1     -16.991   2.817  26.134  0.00  0.00    +0.150 HD
BRANCH  19  21
ATOM     21  C   UNL     1     -16.486   3.454  28.593  0.00  0.00    +0.037 A 
ATOM     26  C   UNL     1     -16.652   2.074  28.466  0.00  0.00    +0.015 A 
ATOM     27  C   UNL     1     -15.833   3.978  29.708  0.00  0.00    +0.015 A 
ATOM     29  C   UNL     1     -15.514   1.745  30.572  0.00  0.00    +0.029 A 
ATOM     30  C   UNL     1     -16.167   1.220  29.456  0.00  0.00    +0.024 A 
ATOM     31  C   UNL     1     -15.347   3.123  30.699  0.00  0.00    +0.024 A 
BRANCH  29   8
ATOM      8  N   UNL     1     -15.022   0.881  31.573  0.00  0.00    -0.336 N 
ATOM     33  C   UNL     1     -14.956  -0.548  31.341  0.00  0.00    +0.129 C 
ATOM     34  C   UNL     1     -14.583   1.410  32.848  0.00  0.00    +0.129 C 
ENDBRANCH  29   8
ENDBRANCH  19  21
ENDBRANCH  11   5
TORSDOF 6
ENDMDL
MODEL 6
REMARK VINA RESULT:      -7.2      1.510      2.439
REMARK  Name = 40777680
REMARK  10 active torsions:
REMARK  status: ('A' for Active; 'I' for Inactive)
REMARK    1  A    between atoms: N_5  and  C_11
REMARK    2  A    between atoms: N_6  and  C_20
REMARK    3  A    between atoms: N_8  and  C_29
REMARK    4  A    between atoms: N_8  and  C_33
REMARK    5  A    between atoms: N_8  and  C_34
REMARK    6  A    between atoms: C_9  and  C_12
REMARK    7  A    between atoms: C_15  and  C_17
REMARK    8  A    between atoms: C_16  and  C_18
REMARK    9  A    between atoms: C_19  and  C_21
REMARK   10  A    between atoms: C_28  and  C_32
REMARK                            x       y       z     vdW  Elec       q    Type
REMARK                         _______ _______ _______ _____ _____    ______ ____
ROOT
ATOM      9  C   UNL     1      -4.418 -10.744   9.932  0.00  0.00    +0.047 C 
ATOM     10  C   UNL     1      -5.381 -11.582   9.065  0.00  0.00    +0.039 C 
ATOM     11  C   UNL     1      -5.376 -10.927   7.679  0.00  0.00    +0.097 C 
ATOM     13  C   UNL     1      -4.381  -9.435   9.196  0.00  0.00    -0.021 C 
ATOM     14  C   UNL     1      -4.900  -9.541   7.968  0.00  0.00    -0.009 C 
ENDROOT
BRANCH   9  12
ATOM      6  N   UNL     1      -4.993 -10.825  13.548  0.00  0.00    -0.236 N 
ATOM      7  N   UNL     1      -6.060 -10.074  13.228  0.00  0.00    -0.171 NA
ATOM     12  C   UNL     1      -4.849 -10.644  11.377  0.00  0.00    +0.003 A 
ATOM     15  C   UNL     1      -4.235 -11.192  12.475  0.00  0.00    +0.046 A 
ATOM     16  C   UNL     1      -5.968  -9.966  11.900  0.00  0.00    +0.064 A 
ATOM     17  C   UNL     1      -3.014 -12.016  12.589  0.00  0.00    +0.066 C 
ATOM     18  C   UNL     1      -6.984  -9.195  11.163  0.00  0.00    +0.068 C 
BRANCH   6  20
ATOM     20  C   UNL     1      -4.754 -11.155  14.883  0.00  0.00    +0.066 A 
ATOM     22  C   UNL     1      -4.934 -12.468  15.321  0.00  0.00    +0.028 A 
ATOM     23  C   UNL     1      -4.341 -10.171  15.780  0.00  0.00    +0.028 A 
ATOM     24  C   UNL     1      -4.698 -12.796  16.655  0.00  0.00    +0.014 A 
ATOM     25  C   UNL     1      -4.106 -10.499  17.116  0.00  0.00    +0.014 A 
ATOM     28  C   UNL     1      -4.284 -11.811  17.554  0.00  0.00    +0.055 A 
BRANCH  28  32
ATOM      1  F   UNL     1      -4.925 -11.599  19.849  0.00  0.00    -0.166 F 
ATOM      2  F   UNL     1      -2.801 -11.762  19.412  0.00  0.00    -0.166 F 
ATOM      3  F   UNL     1      -4.091 -13.504  19.232  0.00  0.00    -0.166 F 
ATOM     32  C   UNL     1      -4.033 -12.162  18.981  0.00  0.00    +0.417 C 
ENDBRANCH  28  32
ENDBRANCH   6  20
ENDBRANCH   9  12
BRANCH  11   5
ATOM      4  O   UNL     1      -5.762 -11.324   4.861  0.00  0.00    -0.270 OA
ATOM      5  N   UNL     1      -4.461 -11.560   6.767  0.00  0.00    -0.305 N 
ATOM     19  C   UNL     1      -4.733 -11.708   5.412  0.00  0.00    +0.245 C 
ATOM     35  H   UNL     1      -3.631 -11.989   7.166  0.00  0.00    +0.150 HD
BRANCH  19  21
ATOM     21  C   UNL     1      -3.697 -12.408   4.610  0.00  0.00    +0.037 A 
ATOM     26  C   UNL     1      -3.756 -12.378   3.216  0.00  0.00    +0.015 A 
ATOM     27  C   UNL     1      -2.665 -13.094   5.250  0.00  0.00    +0.015 A 
ATOM     29  C   UNL     1      -1.751 -13.722   3.103  0.00  0.00    +0.029 A 
ATOM     30  C   UNL     1      -2.784 -13.035   2.463  0.00  0.00    +0.024 A 
ATOM     31  C   UNL     1      -1.692 -13.751   4.496  0.00  0.00    +0.024 A 
BRANCH  29   8
ATOM      8  N   UNL     1      -0.767 -14.386   2.342  0.00  0.00    -0.336 N 
ATOM     33  C   UNL     1       0.339 -15.055   2.997  0.00  0.00    +0.129 C 
ATOM     34  C   UNL     1      -0.845 -14.401   0.895  0.00  0.00    +0.129 C 
ENDBRANCH  29   8
ENDBRANCH  19  21
ENDBRANCH  11   5
TORSDOF 6
ENDMDL
MODEL 7
REMARK VINA RESULT:      -7.1      6.319      8.251
REMARK  Name = 40777680
REMARK  10 active torsions:
REMARK  status: ('A' for Active; 'I' for Inactive)
REMARK    1  A    between atoms: N_5  and  C_11
REMARK    2  A    between atoms: N_6  and  C_20
REMARK    3  A    between atoms: N_8  and  C_29
REMARK    4  A    between atoms: N_8  and  C_33
REMARK    5  A    between atoms: N_8  and  C_34
REMARK    6  A    between atoms: C_9  and  C_12
REMARK    7  A    between atoms: C_15  and  C_17
REMARK    8  A    between atoms: C_16  and  C_18
REMARK    9  A    between atoms: C_19  and  C_21
REMARK   10  A    between atoms: C_28  and  C_32
REMARK                            x       y       z     vdW  Elec       q    Type
REMARK                         _______ _______ _______ _____ _____    ______ ____
ROOT
ATOM      9  C   UNL     1      -8.413  -8.621   5.645  0.00  0.00    +0.047 C 
ATOM     10  C   UNL     1      -7.483  -8.309   4.454  0.00  0.00    +0.039 C 
ATOM     11  C   UNL     1      -7.941  -9.226   3.313  0.00  0.00    +0.097 C 
ATOM     13  C   UNL     1      -8.920  -9.993   5.306  0.00  0.00    -0.021 C 
ATOM     14  C   UNL     1      -8.665 -10.316   4.034  0.00  0.00    -0.009 C 
ENDROOT
BRANCH   9  12
ATOM      6  N   UNL     1      -6.381  -8.781   8.689  0.00  0.00    -0.236 N 
ATOM      7  N   UNL     1      -7.230  -7.827   9.107  0.00  0.00    -0.171 NA
ATOM     12  C   UNL     1      -7.721  -8.517   6.985  0.00  0.00    +0.003 A 
ATOM     15  C   UNL     1      -6.632  -9.227   7.424  0.00  0.00    +0.046 A 
ATOM     16  C   UNL     1      -8.047  -7.670   8.062  0.00  0.00    +0.064 A 
ATOM     17  C   UNL     1      -5.826 -10.270   6.758  0.00  0.00    +0.066 C 
ATOM     18  C   UNL     1      -9.140  -6.684   8.138  0.00  0.00    +0.068 C 
BRANCH   6  20
ATOM     20  C   UNL     1      -5.360  -9.218   9.534  0.00  0.00    +0.066 A 
ATOM     22  C   UNL     1      -5.647 -10.101  10.576  0.00  0.00    +0.028 A 
ATOM     23  C   UNL     1      -4.055  -8.768   9.342  0.00  0.00    +0.028 A 
ATOM     24  C   UNL     1      -4.628 -10.535  11.423  0.00  0.00    +0.014 A 
ATOM     25  C   UNL     1      -3.035  -9.201  10.190  0.00  0.00    +0.014 A 
ATOM     28  C   UNL     1      -3.321 -10.085  11.230  0.00  0.00    +0.055 A 
BRANCH  28  32
ATOM      1  F   UNL     1      -2.013 -11.896  12.085  0.00  0.00    -0.166 F 
ATOM      2  F   UNL     1      -2.487 -10.270  13.449  0.00  0.00    -0.166 F 
ATOM      3  F   UNL     1      -1.020  -9.980  11.870  0.00  0.00    -0.166 F 
ATOM     32  C   UNL     1      -2.232 -10.549  12.137  0.00  0.00    +0.417 C 
ENDBRANCH  28  32
ENDBRANCH   6  20
ENDBRANCH   9  12
BRANCH  11   5
ATOM      4  O   UNL     1      -8.118  -9.634   0.476  0.00  0.00    -0.270 OA
ATOM      5  N   UNL     1      -8.849  -8.576   2.407  0.00  0.00    -0.305 N 
ATOM     19  C   UNL     1      -8.864  -8.837   1.041  0.00  0.00    +0.245 C 
ATOM     35  H   UNL     1      -9.431  -7.834   2.784  0.00  0.00    +0.150 HD
BRANCH  19  21
ATOM     21  C   UNL     1      -9.844  -8.063   0.238  0.00  0.00    +0.037 A 
ATOM     26  C   UNL     1     -10.057  -8.387  -1.103  0.00  0.00    +0.015 A 
ATOM     27  C   UNL     1     -10.551  -7.013   0.822  0.00  0.00    +0.015 A 
ATOM     29  C   UNL     1     -11.684  -6.609  -1.273  0.00  0.00    +0.029 A 
ATOM     30  C   UNL     1     -10.977  -7.660  -1.858  0.00  0.00    +0.024 A 
ATOM     31  C   UNL     1     -11.471  -6.285   0.066  0.00  0.00    +0.024 A 
BRANCH  29   8
ATOM      8  N   UNL     1     -12.615  -5.874  -2.036  0.00  0.00    -0.336 N 
ATOM     33  C   UNL     1     -13.449  -4.870  -1.407  0.00  0.00    +0.129 C 
ATOM     34  C   UNL     1     -12.754  -6.118  -3.458  0.00  0.00    +0.129 C 
ENDBRANCH  29   8
ENDBRANCH  19  21
ENDBRANCH  11   5
TORSDOF 6
ENDMDL
MODEL 8
REMARK VINA RESULT:      -7.1     29.367     32.351
REMARK  Name = 40777680
REMARK  10 active torsions:
REMARK  status: ('A' for Active; 'I' for Inactive)
REMARK    1  A    between atoms: N_5  and  C_11
REMARK    2  A    between atoms: N_6  and  C_20
REMARK    3  A    between atoms: N_8  and  C_29
REMARK    4  A    between atoms: N_8  and  C_33
REMARK    5  A    between atoms: N_8  and  C_34
REMARK    6  A    between atoms: C_9  and  C_12
REMARK    7  A    between atoms: C_15  and  C_17
REMARK    8  A    between atoms: C_16  and  C_18
REMARK    9  A    between atoms: C_19  and  C_21
REMARK   10  A    between atoms: C_28  and  C_32
REMARK                            x       y       z     vdW  Elec       q    Type
REMARK                         _______ _______ _______ _____ _____    ______ ____
ROOT
ATOM      9  C   UNL     1      16.334   7.463  21.041  0.00  0.00    +0.047 C 
ATOM     10  C   UNL     1      15.826   8.469  19.987  0.00  0.00    +0.039 C 
ATOM     11  C   UNL     1      14.298   8.338  19.986  0.00  0.00    +0.097 C 
ATOM     13  C   UNL     1      15.188   6.498  21.144  0.00  0.00    -0.021 C 
ATOM     14  C   UNL     1      14.080   6.981  20.572  0.00  0.00    -0.009 C 
ENDROOT
BRANCH   9  12
ATOM      6  N   UNL     1      19.748   6.201  20.629  0.00  0.00    -0.236 N 
ATOM      7  N   UNL     1      19.222   5.611  19.542  0.00  0.00    -0.171 NA
ATOM     12  C   UNL     1      17.658   6.833  20.674  0.00  0.00    +0.003 A 
ATOM     15  C   UNL     1      18.853   6.943  21.341  0.00  0.00    +0.046 A 
ATOM     16  C   UNL     1      17.944   6.001  19.575  0.00  0.00    +0.064 A 
ATOM     17  C   UNL     1      19.208   7.679  22.572  0.00  0.00    +0.066 C 
ATOM     18  C   UNL     1      17.021   5.546  18.520  0.00  0.00    +0.068 C 
BRANCH   6  20
ATOM     20  C   UNL     1      21.098   6.017  20.930  0.00  0.00    +0.066 A 
ATOM     22  C   UNL     1      22.056   6.884  20.402  0.00  0.00    +0.028 A 
ATOM     23  C   UNL     1      21.491   4.964  21.755  0.00  0.00    +0.028 A 
ATOM     24  C   UNL     1      23.405   6.698  20.700  0.00  0.00    +0.014 A 
ATOM     25  C   UNL     1      22.841   4.777  22.052  0.00  0.00    +0.014 A 
ATOM     28  C   UNL     1      23.799   5.644  21.526  0.00  0.00    +0.055 A 
BRANCH  28  32
ATOM      1  F   UNL     1      25.458   4.818  23.037  0.00  0.00    -0.166 F 
ATOM      2  F   UNL     1      25.930   6.622  21.919  0.00  0.00    -0.166 F 
ATOM      3  F   UNL     1      25.906   4.691  20.919  0.00  0.00    -0.166 F 
ATOM     32  C   UNL     1      25.241   5.445  21.843  0.00  0.00    +0.417 C 
ENDBRANCH  28  32
ENDBRANCH   6  20
ENDBRANCH   9  12
BRANCH  11   5
ATOM      4  O   UNL     1      11.536   9.120  19.893  0.00  0.00    -0.270 OA
ATOM      5  N   UNL     1      13.654   9.320  20.818  0.00  0.00    -0.305 N 
ATOM     19  C   UNL     1      12.305   9.635  20.701  0.00  0.00    +0.245 C 
ATOM     35  H   UNL     1      14.246   9.857  21.445  0.00  0.00    +0.150 HD
BRANCH  19  21
ATOM     21  C   UNL     1      11.799  10.689  21.616  0.00  0.00    +0.037 A 
ATOM     26  C   UNL     1      11.923  12.035  21.266  0.00  0.00    +0.015 A 
ATOM     27  C   UNL     1      11.199  10.336  22.824  0.00  0.00    +0.015 A 
ATOM     29  C   UNL     1      10.849  12.671  23.335  0.00  0.00    +0.029 A 
ATOM     30  C   UNL     1      11.449  13.025  22.126  0.00  0.00    +0.024 A 
ATOM     31  C   UNL     1      10.723  11.327  23.684  0.00  0.00    +0.024 A 
BRANCH  29   8
ATOM      8  N   UNL     1      10.368  13.672  24.204  0.00  0.00    -0.336 N 
ATOM     33  C   UNL     1       9.514  14.730  23.703  0.00  0.00    +0.129 C 
ATOM     34  C   UNL     1      10.727  13.660  25.608  0.00  0.00    +0.129 C 
ENDBRANCH  29   8
ENDBRANCH  19  21
ENDBRANCH  11   5
TORSDOF 6
ENDMDL
MODEL 9
REMARK VINA RESULT:      -7.1     28.618     32.500
REMARK  Name = 40777680
REMARK  10 active torsions:
REMARK  status: ('A' for Active; 'I' for Inactive)
REMARK    1  A    between atoms: N_5  and  C_11
REMARK    2  A    between atoms: N_6  and  C_20
REMARK    3  A    between atoms: N_8  and  C_29
REMARK    4  A    between atoms: N_8  and  C_33
REMARK    5  A    between atoms: N_8  and  C_34
REMARK    6  A    between atoms: C_9  and  C_12
REMARK    7  A    between atoms: C_15  and  C_17
REMARK    8  A    between atoms: C_16  and  C_18
REMARK    9  A    between atoms: C_19  and  C_21
REMARK   10  A    between atoms: C_28  and  C_32
REMARK                            x       y       z     vdW  Elec       q    Type
REMARK                         _______ _______ _______ _____ _____    ______ ____
ROOT
ATOM      9  C   UNL     1      20.821   6.203  21.507  0.00  0.00    +0.047 C 
ATOM     10  C   UNL     1      20.992   5.187  20.358  0.00  0.00    +0.039 C 
ATOM     11  C   UNL     1      22.489   5.179  20.024  0.00  0.00    +0.097 C 
ATOM     13  C   UNL     1      22.049   7.057  21.366  0.00  0.00    -0.021 C 
ATOM     14  C   UNL     1      22.955   6.492  20.561  0.00  0.00    -0.009 C 
ENDROOT
BRANCH   9  12
ATOM      6  N   UNL     1      17.503   7.650  20.951  0.00  0.00    -0.236 N 
ATOM      7  N   UNL     1      17.906   8.519  21.893  0.00  0.00    -0.171 NA
ATOM     12  C   UNL     1      19.515   6.961  21.444  0.00  0.00    +0.003 A 
ATOM     15  C   UNL     1      18.429   6.697  20.647  0.00  0.00    +0.046 A 
ATOM     16  C   UNL     1      19.137   8.093  22.191  0.00  0.00    +0.064 A 
ATOM     17  C   UNL     1      18.203   5.637  19.643  0.00  0.00    +0.066 C 
ATOM     18  C   UNL     1      19.925   8.809  23.210  0.00  0.00    +0.068 C 
BRANCH   6  20
ATOM     20  C   UNL     1      16.233   7.782  20.387  0.00  0.00    +0.066 A 
ATOM     22  C   UNL     1      15.296   6.758  20.530  0.00  0.00    +0.028 A 
ATOM     23  C   UNL     1      15.902   8.935  19.676  0.00  0.00    +0.028 A 
ATOM     24  C   UNL     1      14.029   6.888  19.963  0.00  0.00    +0.014 A 
ATOM     25  C   UNL     1      14.635   9.065  19.108  0.00  0.00    +0.014 A 
ATOM     28  C   UNL     1      13.697   8.042  19.251  0.00  0.00    +0.055 A 
BRANCH  28  32
ATOM      1  F   UNL     1      12.078   7.253  17.678  0.00  0.00    -0.166 F 
ATOM      2  F   UNL     1      12.155   9.394  18.049  0.00  0.00    -0.166 F 
ATOM      3  F   UNL     1      11.325   8.055  19.547  0.00  0.00    -0.166 F 
ATOM     32  C   UNL     1      12.343   8.180  18.645  0.00  0.00    +0.417 C 
ENDBRANCH  28  32
ENDBRANCH   6  20
ENDBRANCH   9  12
BRANCH  11   5
ATOM      4  O   UNL     1      25.005   4.045  19.229  0.00  0.00    -0.270 OA
ATOM      5  N   UNL     1      23.201   4.119  20.686  0.00  0.00    -0.305 N 
ATOM     19  C   UNL     1      24.420   3.632  20.227  0.00  0.00    +0.245 C 
ATOM     35  H   UNL     1      22.735   3.660  21.464  0.00  0.00    +0.150 HD
BRANCH  19  21
ATOM     21  C   UNL     1      25.014   2.517  21.008  0.00  0.00    +0.037 A 
ATOM     26  C   UNL     1      26.323   2.617  21.481  0.00  0.00    +0.015 A 
ATOM     27  C   UNL     1      24.264   1.371  21.269  0.00  0.00    +0.015 A 
ATOM     29  C   UNL     1      26.131   0.423  22.474  0.00  0.00    +0.029 A 
ATOM     30  C   UNL     1      26.882   1.570  22.213  0.00  0.00    +0.024 A 
ATOM     31  C   UNL     1      24.823   0.323  22.002  0.00  0.00    +0.024 A 
BRANCH  29   8
ATOM      8  N   UNL     1      26.695  -0.636  23.216  0.00  0.00    -0.336 N 
ATOM     33  C   UNL     1      26.981  -0.473  24.626  0.00  0.00    +0.129 C 
ATOM     34  C   UNL     1      27.004  -1.898  22.574  0.00  0.00    +0.129 C 
ENDBRANCH  29   8
ENDBRANCH  19  21
ENDBRANCH  11   5
TORSDOF 6
ENDMDL
MODEL 10
REMARK VINA RESULT:      -6.9     25.017     30.262
REMARK  Name = 40777680
REMARK  10 active torsions:
REMARK  status: ('A' for Active; 'I' for Inactive)
REMARK    1  A    between atoms: N_5  and  C_11
REMARK    2  A    between atoms: N_6  and  C_20
REMARK    3  A    between atoms: N_8  and  C_29
REMARK    4  A    between atoms: N_8  and  C_33
REMARK    5  A    between atoms: N_8  and  C_34
REMARK    6  A    between atoms: C_9  and  C_12
REMARK    7  A    between atoms: C_15  and  C_17
REMARK    8  A    between atoms: C_16  and  C_18
REMARK    9  A    between atoms: C_19  and  C_21
REMARK   10  A    between atoms: C_28  and  C_32
REMARK                            x       y       z     vdW  Elec       q    Type
REMARK                         _______ _______ _______ _____ _____    ______ ____
ROOT
ATOM      9  C   UNL     1     -14.336   6.474  32.872  0.00  0.00    +0.047 C 
ATOM     10  C   UNL     1     -13.871   5.005  32.788  0.00  0.00    +0.039 C 
ATOM     11  C   UNL     1     -15.150   4.163  32.711  0.00  0.00    +0.097 C 
ATOM     13  C   UNL     1     -15.744   6.336  33.378  0.00  0.00    -0.021 C 
ATOM     14  C   UNL     1     -16.184   5.077  33.284  0.00  0.00    -0.009 C 
ENDROOT
BRANCH   9  12
ATOM      6  N   UNL     1     -12.280   8.186  35.373  0.00  0.00    -0.236 N 
ATOM      7  N   UNL     1     -12.037   9.028  34.355  0.00  0.00    -0.171 NA
ATOM     12  C   UNL     1     -13.439   7.336  33.729  0.00  0.00    +0.003 A 
ATOM     15  C   UNL     1     -13.113   7.156  35.050  0.00  0.00    +0.046 A 
ATOM     16  C   UNL     1     -12.748   8.504  33.352  0.00  0.00    +0.064 A 
ATOM     17  C   UNL     1     -13.517   6.108  36.010  0.00  0.00    +0.066 C 
ATOM     18  C   UNL     1     -12.736   9.163  32.034  0.00  0.00    +0.068 C 
BRANCH   6  20
ATOM     20  C   UNL     1     -11.691   8.417  36.617  0.00  0.00    +0.066 A 
ATOM     22  C   UNL     1     -10.550   7.707  36.992  0.00  0.00    +0.028 A 
ATOM     23  C   UNL     1     -12.246   9.354  37.487  0.00  0.00    +0.028 A 
ATOM     24  C   UNL     1      -9.964   7.935  38.236  0.00  0.00    +0.014 A 
ATOM     25  C   UNL     1     -11.661   9.582  38.733  0.00  0.00    +0.014 A 
ATOM     28  C   UNL     1     -10.520   8.873  39.108  0.00  0.00    +0.055 A 
BRANCH  28  32
ATOM      1  F   UNL     1      -9.708  10.439  40.723  0.00  0.00    -0.166 F 
ATOM      2  F   UNL     1      -8.661   8.541  40.552  0.00  0.00    -0.166 F 
ATOM      3  F   UNL     1     -10.623   8.626  41.484  0.00  0.00    -0.166 F 
ATOM     32  C   UNL     1      -9.894   9.116  40.439  0.00  0.00    +0.417 C 
ENDBRANCH  28  32
ENDBRANCH   6  20
ENDBRANCH   9  12
BRANCH  11   5
ATOM      4  O   UNL     1     -15.027   1.562  31.500  0.00  0.00    -0.270 OA
ATOM      5  N   UNL     1     -15.514   3.826  31.361  0.00  0.00    -0.305 N 
ATOM     19  C   UNL     1     -15.422   2.533  30.859  0.00  0.00    +0.245 C 
ATOM     35  H   UNL     1     -15.759   4.592  30.741  0.00  0.00    +0.150 HD
BRANCH  19  21
ATOM     21  C   UNL     1     -15.811   2.355  29.437  0.00  0.00    +0.037 A 
ATOM     26  C   UNL     1     -16.241   1.107  28.983  0.00  0.00    +0.015 A 
ATOM     27  C   UNL     1     -15.748   3.433  28.556  0.00  0.00    +0.015 A 
ATOM     29  C   UNL     1     -16.542   2.019  26.765  0.00  0.00    +0.029 A 
ATOM     30  C   UNL     1     -16.605   0.939  27.647  0.00  0.00    +0.024 A 
ATOM     31  C   UNL     1     -16.113   3.265  27.219  0.00  0.00    +0.024 A 
BRANCH  29   8
ATOM      8  N   UNL     1     -16.911   1.850  25.415  0.00  0.00    -0.336 N 
ATOM     33  C   UNL     1     -17.718   0.716  25.012  0.00  0.00    +0.129 C 
ATOM     34  C   UNL     1     -16.482   2.803  24.412  0.00  0.00    +0.129 C 
ENDBRANCH  29   8
ENDBRANCH  19  21
ENDBRANCH  11   5
TORSDOF 6
ENDMDL
