MODEL 1
REMARK VINA RESULT:      -7.0      0.000      0.000
REMARK  Name = 45783972
REMARK  15 active torsions:
REMARK  status: ('A' for Active; 'I' for Inactive)
REMARK    1  A    between atoms: N_2  and  C_13
REMARK    2  A    between atoms: N_2  and  C_19
REMARK    3  A    between atoms: N_5  and  C_28
REMARK    4  A    between atoms: N_5  and  C_29
REMARK    5  A    between atoms: N_5  and  C_30
REMARK    6  A    between atoms: C_6  and  C_10
REMARK    7  A    between atoms: C_7  and  C_13
REMARK    8  A    between atoms: C_9  and  C_14
REMARK    9  A    between atoms: C_10  and  C_15
REMARK   10  A    between atoms: C_10  and  C_16
REMARK   11  A    between atoms: C_11  and  C_17
REMARK   12  A    between atoms: C_14  and  C_18
REMARK   13  A    between atoms: C_19  and  C_20
REMARK   14  A    between atoms: C_19  and  C_21
REMARK   15  A    between atoms: C_22  and  C_23
REMARK                            x       y       z     vdW  Elec       q    Type
REMARK                         _______ _______ _______ _____ _____    ______ ____
ROOT
ATOM      6  C   UNL     1      12.704  10.570  22.014  0.00  0.00    +0.000 C 
ATOM      7  C   UNL     1      11.238  10.291  22.429  0.00  0.00    +0.029 C 
ATOM      8  C   UNL     1      13.080   9.736  20.780  0.00  0.00    +0.012 C 
ATOM      9  C   UNL     1      12.923   8.224  21.028  0.00  0.00    +0.024 C 
ATOM     11  C   UNL     1      11.598   7.897  21.687  0.00  0.00    -0.073 C 
ATOM     12  C   UNL     1      10.853   8.835  22.297  0.00  0.00    -0.023 C 
ATOM     17  C   UNL     1      11.128   6.472  21.590  0.00  0.00    +0.039 C 
ENDROOT
BRANCH   6  10
ATOM     10  C   UNL     1      12.941  12.056  21.730  0.00  0.00    -0.013 C 
ATOM     15  C   UNL     1      12.786  12.343  20.240  0.00  0.00    +0.007 C 
ATOM     16  C   UNL     1      14.322  12.478  22.221  0.00  0.00    +0.007 C 
ENDBRANCH   6  10
BRANCH   7  13
ATOM     13  C   UNL     1      10.969  10.761  23.863  0.00  0.00    +0.089 C 
BRANCH  13   2
ATOM      2  N   UNL     1      10.055  11.890  23.870  0.00  0.00    -0.313 NA
ATOM     31  H   UNL     1       9.929  12.231  22.918  0.00  0.00    +0.122 HD
BRANCH   2  19
ATOM     19  C   UNL     1      10.562  12.970  24.708  0.00  0.00    +0.047 C 
ATOM     20  C   UNL     1      11.862  12.529  25.373  0.00  0.00    +0.023 C 
ATOM     21  C   UNL     1      10.772  14.233  23.876  0.00  0.00    +0.023 C 
ENDBRANCH   2  19
ENDBRANCH  13   2
ENDBRANCH   7  13
BRANCH   9  14
ATOM     14  C   UNL     1      14.095   7.675  21.846  0.00  0.00    +0.105 C 
BRANCH  14  18
ATOM      1  O   UNL     1      16.428   7.061  21.479  0.00  0.00    -0.420 OA
ATOM      3  N   UNL     1      15.091   6.666  19.729  0.00  0.00    -0.112 NA
ATOM      4  N   UNL     1      16.371   6.275  19.385  0.00  0.00    -0.107 NA
ATOM     18  C   UNL     1      15.171   7.118  20.959  0.00  0.00    +0.218 A 
ATOM     22  C   UNL     1      17.118   6.523  20.435  0.00  0.00    +0.248 A 
BRANCH  22  23
ATOM     23  C   UNL     1      18.521   6.320  20.650  0.00  0.00    +0.039 A 
ATOM     24  C   UNL     1      19.245   7.223  21.428  0.00  0.00    +0.015 A 
ATOM     25  C   UNL     1      19.161   5.218  20.082  0.00  0.00    +0.015 A 
ATOM     26  C   UNL     1      20.610   7.025  21.637  0.00  0.00    +0.024 A 
ATOM     27  C   UNL     1      20.525   5.019  20.292  0.00  0.00    +0.024 A 
ATOM     28  C   UNL     1      21.250   5.923  21.069  0.00  0.00    +0.029 A 
BRANCH  28   5
ATOM      5  N   UNL     1      22.630   5.723  21.281  0.00  0.00    -0.336 N 
ATOM     29  C   UNL     1      23.378   4.812  20.437  0.00  0.00    +0.129 C 
ATOM     30  C   UNL     1      23.318   6.421  22.349  0.00  0.00    +0.129 C 
ENDBRANCH  28   5
ENDBRANCH  22  23
ENDBRANCH  14  18
ENDBRANCH   9  14
TORSDOF 8
ENDMDL
MODEL 2
REMARK VINA RESULT:      -6.8      4.556      7.466
REMARK  Name = 45783972
REMARK  15 active torsions:
REMARK  status: ('A' for Active; 'I' for Inactive)
REMARK    1  A    between atoms: N_2  and  C_13
REMARK    2  A    between atoms: N_2  and  C_19
REMARK    3  A    between atoms: N_5  and  C_28
REMARK    4  A    between atoms: N_5  and  C_29
REMARK    5  A    between atoms: N_5  and  C_30
REMARK    6  A    between atoms: C_6  and  C_10
REMARK    7  A    between atoms: C_7  and  C_13
REMARK    8  A    between atoms: C_9  and  C_14
REMARK    9  A    between atoms: C_10  and  C_15
REMARK   10  A    between atoms: C_10  and  C_16
REMARK   11  A    between atoms: C_11  and  C_17
REMARK   12  A    between atoms: C_14  and  C_18
REMARK   13  A    between atoms: C_19  and  C_20
REMARK   14  A    between atoms: C_19  and  C_21
REMARK   15  A    between atoms: C_22  and  C_23
REMARK                            x       y       z     vdW  Elec       q    Type
REMARK                         _______ _______ _______ _____ _____    ______ ____
ROOT
ATOM      6  C   UNL     1      13.474   9.543  20.437  0.00  0.00    +0.000 C 
ATOM      7  C   UNL     1      13.627   8.923  21.848  0.00  0.00    +0.029 C 
ATOM      8  C   UNL     1      12.023   9.415  19.949  0.00  0.00    +0.012 C 
ATOM      9  C   UNL     1      11.556   7.949  19.890  0.00  0.00    +0.024 C 
ATOM     11  C   UNL     1      11.914   7.193  21.154  0.00  0.00    -0.073 C 
ATOM     12  C   UNL     1      12.831   7.649  22.024  0.00  0.00    -0.023 C 
ATOM     17  C   UNL     1      11.158   5.920  21.417  0.00  0.00    +0.039 C 
ENDROOT
BRANCH   6  10
ATOM     10  C   UNL     1      13.902  11.014  20.414  0.00  0.00    -0.013 C 
ATOM     15  C   UNL     1      12.913  11.868  21.200  0.00  0.00    +0.007 C 
ATOM     16  C   UNL     1      14.022  11.511  18.976  0.00  0.00    +0.007 C 
ENDBRANCH   6  10
BRANCH   7  13
ATOM     13  C   UNL     1      15.099   8.654  22.179  0.00  0.00    +0.089 C 
BRANCH  13   2
ATOM      2  N   UNL     1      15.374   7.227  22.171  0.00  0.00    -0.313 NA
ATOM     31  H   UNL     1      15.711   6.942  23.090  0.00  0.00    +0.122 HD
BRANCH   2  19
ATOM     19  C   UNL     1      16.373   6.891  21.164  0.00  0.00    +0.047 C 
ATOM     20  C   UNL     1      15.672   6.477  19.874  0.00  0.00    +0.023 C 
ATOM     21  C   UNL     1      17.305   8.077  20.926  0.00  0.00    +0.023 C 
ENDBRANCH   2  19
ENDBRANCH  13   2
ENDBRANCH   7  13
BRANCH   9  14
ATOM     14  C   UNL     1      12.113   7.242  18.650  0.00  0.00    +0.105 C 
BRANCH  14  18
ATOM      1  O   UNL     1      13.043   8.824  17.042  0.00  0.00    -0.420 OA
ATOM      3  N   UNL     1      10.924   8.239  16.629  0.00  0.00    -0.112 NA
ATOM      4  N   UNL     1      11.319   9.130  15.651  0.00  0.00    -0.107 NA
ATOM     18  C   UNL     1      11.961   8.089  17.420  0.00  0.00    +0.218 A 
ATOM     22  C   UNL     1      12.561   9.445  15.931  0.00  0.00    +0.248 A 
BRANCH  22  23
ATOM     23  C   UNL     1      13.473  10.325  15.259  0.00  0.00    +0.039 A 
ATOM     24  C   UNL     1      14.849  10.127  15.380  0.00  0.00    +0.015 A 
ATOM     25  C   UNL     1      12.985  11.378  14.485  0.00  0.00    +0.015 A 
ATOM     26  C   UNL     1      15.737  10.983  14.727  0.00  0.00    +0.024 A 
ATOM     27  C   UNL     1      13.872  12.233  13.831  0.00  0.00    +0.024 A 
ATOM     28  C   UNL     1      15.248  12.035  13.953  0.00  0.00    +0.029 A 
BRANCH  28   5
ATOM      5  N   UNL     1      16.146  12.900  13.293  0.00  0.00    -0.336 N 
ATOM     29  C   UNL     1      16.930  12.427  12.169  0.00  0.00    +0.129 C 
ATOM     30  C   UNL     1      16.302  14.272  13.736  0.00  0.00    +0.129 C 
ENDBRANCH  28   5
ENDBRANCH  22  23
ENDBRANCH  14  18
ENDBRANCH   9  14
TORSDOF 8
ENDMDL
MODEL 3
REMARK VINA RESULT:      -6.7      1.472      2.157
REMARK  Name = 45783972
REMARK  15 active torsions:
REMARK  status: ('A' for Active; 'I' for Inactive)
REMARK    1  A    between atoms: N_2  and  C_13
REMARK    2  A    between atoms: N_2  and  C_19
REMARK    3  A    between atoms: N_5  and  C_28
REMARK    4  A    between atoms: N_5  and  C_29
REMARK    5  A    between atoms: N_5  and  C_30
REMARK    6  A    between atoms: C_6  and  C_10
REMARK    7  A    between atoms: C_7  and  C_13
REMARK    8  A    between atoms: C_9  and  C_14
REMARK    9  A    between atoms: C_10  and  C_15
REMARK   10  A    between atoms: C_10  and  C_16
REMARK   11  A    between atoms: C_11  and  C_17
REMARK   12  A    between atoms: C_14  and  C_18
REMARK   13  A    between atoms: C_19  and  C_20
REMARK   14  A    between atoms: C_19  and  C_21
REMARK   15  A    between atoms: C_22  and  C_23
REMARK                            x       y       z     vdW  Elec       q    Type
REMARK                         _______ _______ _______ _____ _____    ______ ____
ROOT
ATOM      6  C   UNL     1      13.280   9.780  20.015  0.00  0.00    +0.000 C 
ATOM      7  C   UNL     1      11.821   9.801  20.534  0.00  0.00    +0.029 C 
ATOM      8  C   UNL     1      13.555   8.483  19.239  0.00  0.00    +0.012 C 
ATOM      9  C   UNL     1      13.327   7.229  20.103  0.00  0.00    +0.024 C 
ATOM     11  C   UNL     1      12.018   7.298  20.861  0.00  0.00    -0.073 C 
ATOM     12  C   UNL     1      11.352   8.454  21.033  0.00  0.00    -0.023 C 
ATOM     17  C   UNL     1      11.467   5.999  21.381  0.00  0.00    +0.039 C 
ENDROOT
BRANCH   6  10
ATOM     10  C   UNL     1      13.585  10.991  19.127  0.00  0.00    -0.013 C 
ATOM     15  C   UNL     1      13.487  10.608  17.654  0.00  0.00    +0.007 C 
ATOM     16  C   UNL     1      14.967  11.553  19.449  0.00  0.00    +0.007 C 
ENDBRANCH   6  10
BRANCH   7  13
ATOM     13  C   UNL     1      11.642  10.845  21.641  0.00  0.00    +0.089 C 
BRANCH  13   2
ATOM      2  N   UNL     1      12.309  10.420  22.861  0.00  0.00    -0.313 NA
ATOM     31  H   UNL     1      11.611  10.195  23.568  0.00  0.00    +0.122 HD
BRANCH   2  19
ATOM     19  C   UNL     1      13.192  11.464  23.367  0.00  0.00    +0.047 C 
ATOM     20  C   UNL     1      14.620  10.934  23.430  0.00  0.00    +0.023 C 
ATOM     21  C   UNL     1      13.106  12.706  22.482  0.00  0.00    +0.023 C 
ENDBRANCH   2  19
ENDBRANCH  13   2
ENDBRANCH   7  13
BRANCH   9  14
ATOM     14  C   UNL     1      14.503   6.994  21.056  0.00  0.00    +0.105 C 
BRANCH  14  18
ATOM      1  O   UNL     1      16.912   6.610  20.984  0.00  0.00    -0.420 OA
ATOM      3  N   UNL     1      15.842   6.069  19.096  0.00  0.00    -0.112 NA
ATOM      4  N   UNL     1      17.185   5.803  18.916  0.00  0.00    -0.107 NA
ATOM     18  C   UNL     1      15.728   6.538  20.317  0.00  0.00    +0.218 A 
ATOM     22  C   UNL     1      17.772   6.133  20.042  0.00  0.00    +0.248 A 
BRANCH  22  23
ATOM     23  C   UNL     1      19.152   6.071  20.428  0.00  0.00    +0.039 A 
ATOM     24  C   UNL     1      19.903   4.929  20.147  0.00  0.00    +0.015 A 
ATOM     25  C   UNL     1      19.743   7.152  21.082  0.00  0.00    +0.015 A 
ATOM     26  C   UNL     1      21.245   4.868  20.522  0.00  0.00    +0.024 A 
ATOM     27  C   UNL     1      21.086   7.091  21.456  0.00  0.00    +0.024 A 
ATOM     28  C   UNL     1      21.836   5.949  21.175  0.00  0.00    +0.029 A 
BRANCH  28   5
ATOM      5  N   UNL     1      23.194   5.887  21.555  0.00  0.00    -0.336 N 
ATOM     29  C   UNL     1      23.591   6.203  22.913  0.00  0.00    +0.129 C 
ATOM     30  C   UNL     1      24.209   5.513  20.590  0.00  0.00    +0.129 C 
ENDBRANCH  28   5
ENDBRANCH  22  23
ENDBRANCH  14  18
ENDBRANCH   9  14
TORSDOF 8
ENDMDL
MODEL 4
REMARK VINA RESULT:      -6.5      3.531      8.949
REMARK  Name = 45783972
REMARK  15 active torsions:
REMARK  status: ('A' for Active; 'I' for Inactive)
REMARK    1  A    between atoms: N_2  and  C_13
REMARK    2  A    between atoms: N_2  and  C_19
REMARK    3  A    between atoms: N_5  and  C_28
REMARK    4  A    between atoms: N_5  and  C_29
REMARK    5  A    between atoms: N_5  and  C_30
REMARK    6  A    between atoms: C_6  and  C_10
REMARK    7  A    between atoms: C_7  and  C_13
REMARK    8  A    between atoms: C_9  and  C_14
REMARK    9  A    between atoms: C_10  and  C_15
REMARK   10  A    between atoms: C_10  and  C_16
REMARK   11  A    between atoms: C_11  and  C_17
REMARK   12  A    between atoms: C_14  and  C_18
REMARK   13  A    between atoms: C_19  and  C_20
REMARK   14  A    between atoms: C_19  and  C_21
REMARK   15  A    between atoms: C_22  and  C_23
REMARK                            x       y       z     vdW  Elec       q    Type
REMARK                         _______ _______ _______ _____ _____    ______ ____
ROOT
ATOM      6  C   UNL     1      14.060   9.342  18.926  0.00  0.00    +0.000 C 
ATOM      7  C   UNL     1      14.076   7.841  18.546  0.00  0.00    +0.029 C 
ATOM      8  C   UNL     1      15.469   9.812  19.318  0.00  0.00    +0.012 C 
ATOM      9  C   UNL     1      16.039   9.014  20.506  0.00  0.00    +0.024 C 
ATOM     11  C   UNL     1      15.849   7.522  20.325  0.00  0.00    -0.073 C 
ATOM     12  C   UNL     1      14.977   7.015  19.436  0.00  0.00    -0.023 C 
ATOM     17  C   UNL     1      16.718   6.623  21.160  0.00  0.00    +0.039 C 
ENDROOT
BRANCH   6  10
ATOM     10  C   UNL     1      13.522  10.212  17.785  0.00  0.00    -0.013 C 
ATOM     15  C   UNL     1      14.261   9.902  16.487  0.00  0.00    +0.007 C 
ATOM     16  C   UNL     1      13.646  11.691  18.138  0.00  0.00    +0.007 C 
ENDBRANCH   6  10
BRANCH   7  13
ATOM     13  C   UNL     1      12.662   7.250  18.564  0.00  0.00    +0.089 C 
BRANCH  13   2
ATOM      2  N   UNL     1      12.434   6.502  19.789  0.00  0.00    -0.313 NA
ATOM     31  H   UNL     1      12.038   5.591  19.561  0.00  0.00    +0.122 HD
BRANCH   2  19
ATOM     19  C   UNL     1      11.526   7.216  20.678  0.00  0.00    +0.047 C 
ATOM     20  C   UNL     1      12.292   7.699  21.905  0.00  0.00    +0.023 C 
ATOM     21  C   UNL     1      10.875   8.385  19.943  0.00  0.00    +0.023 C 
ENDBRANCH   2  19
ENDBRANCH  13   2
ENDBRANCH   7  13
BRANCH   9  14
ATOM     14  C   UNL     1      15.433   9.490  21.831  0.00  0.00    +0.105 C 
BRANCH  14  18
ATOM      1  O   UNL     1      13.721  11.226  21.741  0.00  0.00    -0.420 OA
ATOM      3  N   UNL     1      15.817  12.007  21.743  0.00  0.00    -0.112 NA
ATOM      4  N   UNL     1      14.959  13.088  21.689  0.00  0.00    -0.107 NA
ATOM     18  C   UNL     1      15.051  10.941  21.771  0.00  0.00    +0.218 A 
ATOM     22  C   UNL     1      13.747  12.586  21.690  0.00  0.00    +0.248 A 
BRANCH  22  23
ATOM     23  C   UNL     1      12.469  13.236  21.648  0.00  0.00    +0.039 A 
ATOM     24  C   UNL     1      11.561  13.057  22.693  0.00  0.00    +0.015 A 
ATOM     25  C   UNL     1      12.135  14.048  20.564  0.00  0.00    +0.015 A 
ATOM     26  C   UNL     1      10.318  13.690  22.652  0.00  0.00    +0.024 A 
ATOM     27  C   UNL     1      10.893  14.681  20.524  0.00  0.00    +0.024 A 
ATOM     28  C   UNL     1       9.985  14.502  21.568  0.00  0.00    +0.029 A 
BRANCH  28   5
ATOM      5  N   UNL     1       8.727  15.140  21.526  0.00  0.00    -0.336 N 
ATOM     29  C   UNL     1       8.165  15.573  20.262  0.00  0.00    +0.129 C 
ATOM     30  C   UNL     1       7.985  15.380  22.748  0.00  0.00    +0.129 C 
ENDBRANCH  28   5
ENDBRANCH  22  23
ENDBRANCH  14  18
ENDBRANCH   9  14
TORSDOF 8
ENDMDL
MODEL 5
REMARK VINA RESULT:      -6.4     27.819     29.906
REMARK  Name = 45783972
REMARK  15 active torsions:
REMARK  status: ('A' for Active; 'I' for Inactive)
REMARK    1  A    between atoms: N_2  and  C_13
REMARK    2  A    between atoms: N_2  and  C_19
REMARK    3  A    between atoms: N_5  and  C_28
REMARK    4  A    between atoms: N_5  and  C_29
REMARK    5  A    between atoms: N_5  and  C_30
REMARK    6  A    between atoms: C_6  and  C_10
REMARK    7  A    between atoms: C_7  and  C_13
REMARK    8  A    between atoms: C_9  and  C_14
REMARK    9  A    between atoms: C_10  and  C_15
REMARK   10  A    between atoms: C_10  and  C_16
REMARK   11  A    between atoms: C_11  and  C_17
REMARK   12  A    between atoms: C_14  and  C_18
REMARK   13  A    between atoms: C_19  and  C_20
REMARK   14  A    between atoms: C_19  and  C_21
REMARK   15  A    between atoms: C_22  and  C_23
REMARK                            x       y       z     vdW  Elec       q    Type
REMARK                         _______ _______ _______ _____ _____    ______ ____
ROOT
ATOM      6  C   UNL     1      -6.443 -11.037  16.269  0.00  0.00    +0.000 C 
ATOM      7  C   UNL     1      -6.946 -11.146  17.730  0.00  0.00    +0.029 C 
ATOM      8  C   UNL     1      -5.363 -12.094  15.993  0.00  0.00    +0.012 C 
ATOM      9  C   UNL     1      -4.154 -11.953  16.937  0.00  0.00    +0.024 C 
ATOM     11  C   UNL     1      -4.585 -11.786  18.380  0.00  0.00    -0.073 C 
ATOM     12  C   UNL     1      -5.839 -11.438  18.717  0.00  0.00    -0.023 C 
ATOM     17  C   UNL     1      -3.549 -12.073  19.432  0.00  0.00    +0.039 C 
ENDROOT
BRANCH   6  10
ATOM     10  C   UNL     1      -7.586 -11.186  15.261  0.00  0.00    -0.013 C 
ATOM     15  C   UNL     1      -7.388 -12.439  14.415  0.00  0.00    +0.007 C 
ATOM     16  C   UNL     1      -7.682  -9.946  14.377  0.00  0.00    +0.007 C 
ENDBRANCH   6  10
BRANCH   7  13
ATOM     13  C   UNL     1      -7.687  -9.874  18.157  0.00  0.00    +0.089 C 
BRANCH  13   2
ATOM      2  N   UNL     1      -8.993 -10.201  18.705  0.00  0.00    -0.313 NA
ATOM     31  H   UNL     1      -9.146 -11.206  18.641  0.00  0.00    +0.122 HD
BRANCH   2  19
ATOM     19  C   UNL     1     -10.053  -9.503  17.987  0.00  0.00    +0.047 C 
ATOM     20  C   UNL     1      -9.461  -8.309  17.245  0.00  0.00    +0.023 C 
ATOM     21  C   UNL     1     -10.756 -10.455  17.024  0.00  0.00    +0.023 C 
ENDBRANCH   2  19
ENDBRANCH  13   2
ENDBRANCH   7  13
BRANCH   9  14
ATOM     14  C   UNL     1      -3.243 -10.802  16.498  0.00  0.00    +0.105 C 
BRANCH  14  18
ATOM      1  O   UNL     1      -3.817 -10.475  14.150  0.00  0.00    -0.420 OA
ATOM      3  N   UNL     1      -1.791 -11.363  14.481  0.00  0.00    -0.112 NA
ATOM      4  N   UNL     1      -1.983 -11.235  13.119  0.00  0.00    -0.107 NA
ATOM     18  C   UNL     1      -2.887 -10.908  15.044  0.00  0.00    +0.218 A 
ATOM     22  C   UNL     1      -3.178 -10.713  12.972  0.00  0.00    +0.248 A 
BRANCH  22  23
ATOM     23  C   UNL     1      -3.901 -10.360  11.784  0.00  0.00    +0.039 A 
ATOM     24  C   UNL     1      -5.260 -10.655  11.682  0.00  0.00    +0.015 A 
ATOM     25  C   UNL     1      -3.244  -9.720  10.733  0.00  0.00    +0.015 A 
ATOM     26  C   UNL     1      -5.963 -10.311  10.527  0.00  0.00    +0.024 A 
ATOM     27  C   UNL     1      -3.947  -9.376   9.578  0.00  0.00    +0.024 A 
ATOM     28  C   UNL     1      -5.307  -9.671   9.476  0.00  0.00    +0.029 A 
BRANCH  28   5
ATOM      5  N   UNL     1      -6.018  -9.325   8.308  0.00  0.00    -0.336 N 
ATOM     29  C   UNL     1      -5.666  -9.917   7.032  0.00  0.00    +0.129 C 
ATOM     30  C   UNL     1      -7.104  -8.367   8.366  0.00  0.00    +0.129 C 
ENDBRANCH  28   5
ENDBRANCH  22  23
ENDBRANCH  14  18
ENDBRANCH   9  14
TORSDOF 8
ENDMDL
MODEL 6
REMARK VINA RESULT:      -6.0     27.051     31.054
REMARK  Name = 45783972
REMARK  15 active torsions:
REMARK  status: ('A' for Active; 'I' for Inactive)
REMARK    1  A    between atoms: N_2  and  C_13
REMARK    2  A    between atoms: N_2  and  C_19
REMARK    3  A    between atoms: N_5  and  C_28
REMARK    4  A    between atoms: N_5  and  C_29
REMARK    5  A    between atoms: N_5  and  C_30
REMARK    6  A    between atoms: C_6  and  C_10
REMARK    7  A    between atoms: C_7  and  C_13
REMARK    8  A    between atoms: C_9  and  C_14
REMARK    9  A    between atoms: C_10  and  C_15
REMARK   10  A    between atoms: C_10  and  C_16
REMARK   11  A    between atoms: C_11  and  C_17
REMARK   12  A    between atoms: C_14  and  C_18
REMARK   13  A    between atoms: C_19  and  C_20
REMARK   14  A    between atoms: C_19  and  C_21
REMARK   15  A    between atoms: C_22  and  C_23
REMARK                            x       y       z     vdW  Elec       q    Type
REMARK                         _______ _______ _______ _____ _____    ______ ____
ROOT
ATOM      6  C   UNL     1      -4.193 -11.206  12.993  0.00  0.00    +0.000 C 
ATOM      7  C   UNL     1      -2.857 -11.127  13.773  0.00  0.00    +0.029 C 
ATOM      8  C   UNL     1      -3.926 -11.398  11.492  0.00  0.00    +0.012 C 
ATOM      9  C   UNL     1      -3.083 -10.253  10.900  0.00  0.00    +0.024 C 
ATOM     11  C   UNL     1      -1.880  -9.935  11.765  0.00  0.00    -0.073 C 
ATOM     12  C   UNL     1      -1.790 -10.344  13.042  0.00  0.00    -0.023 C 
ATOM     17  C   UNL     1      -0.761  -9.171  11.113  0.00  0.00    +0.039 C 
ENDROOT
BRANCH   6  10
ATOM     10  C   UNL     1      -5.087 -12.337  13.510  0.00  0.00    -0.013 C 
ATOM     15  C   UNL     1      -4.325 -13.658  13.512  0.00  0.00    +0.007 C 
ATOM     16  C   UNL     1      -6.353 -12.444  12.664  0.00  0.00    +0.007 C 
ENDBRANCH   6  10
BRANCH   7  13
ATOM     13  C   UNL     1      -3.065 -10.526  15.168  0.00  0.00    +0.089 C 
BRANCH  13   2
ATOM      2  N   UNL     1      -2.945 -11.550  16.192  0.00  0.00    -0.313 NA
ATOM     31  H   UNL     1      -2.983 -12.471  15.757  0.00  0.00    +0.122 HD
BRANCH   2  19
ATOM     19  C   UNL     1      -4.014 -11.435  17.176  0.00  0.00    +0.047 C 
ATOM     20  C   UNL     1      -4.894 -10.237  16.832  0.00  0.00    +0.023 C 
ATOM     21  C   UNL     1      -4.834 -12.722  17.222  0.00  0.00    +0.023 C 
ENDBRANCH   2  19
ENDBRANCH  13   2
ENDBRANCH   7  13
BRANCH   9  14
ATOM     14  C   UNL     1      -3.937  -9.003  10.664  0.00  0.00    +0.105 C 
BRANCH  14  18
ATOM      1  O   UNL     1      -4.498  -9.932   8.478  0.00  0.00    -0.420 OA
ATOM      3  N   UNL     1      -6.169  -8.806   9.451  0.00  0.00    -0.112 NA
ATOM      4  N   UNL     1      -6.621  -9.272   8.231  0.00  0.00    -0.107 NA
ATOM     18  C   UNL     1      -4.925  -9.214   9.553  0.00  0.00    +0.218 A 
ATOM     22  C   UNL     1      -5.614  -9.923   7.698  0.00  0.00    +0.248 A 
BRANCH  22  23
ATOM     23  C   UNL     1      -5.509 -10.614   6.446  0.00  0.00    +0.039 A 
ATOM     24  C   UNL     1      -4.459 -11.507   6.229  0.00  0.00    +0.015 A 
ATOM     25  C   UNL     1      -6.457 -10.395   5.447  0.00  0.00    +0.015 A 
ATOM     26  C   UNL     1      -4.357 -12.180   5.011  0.00  0.00    +0.024 A 
ATOM     27  C   UNL     1      -6.355 -11.068   4.229  0.00  0.00    +0.024 A 
ATOM     28  C   UNL     1      -5.305 -11.960   4.012  0.00  0.00    +0.029 A 
BRANCH  28   5
ATOM      5  N   UNL     1      -5.201 -12.640   2.780  0.00  0.00    -0.336 N 
ATOM     29  C   UNL     1      -3.905 -13.048   2.274  0.00  0.00    +0.129 C 
ATOM     30  C   UNL     1      -6.387 -12.932   2.000  0.00  0.00    +0.129 C 
ENDBRANCH  28   5
ENDBRANCH  22  23
ENDBRANCH  14  18
ENDBRANCH   9  14
TORSDOF 8
ENDMDL
MODEL 7
REMARK VINA RESULT:      -6.0     27.410     30.610
REMARK  Name = 45783972
REMARK  15 active torsions:
REMARK  status: ('A' for Active; 'I' for Inactive)
REMARK    1  A    between atoms: N_2  and  C_13
REMARK    2  A    between atoms: N_2  and  C_19
REMARK    3  A    between atoms: N_5  and  C_28
REMARK    4  A    between atoms: N_5  and  C_29
REMARK    5  A    between atoms: N_5  and  C_30
REMARK    6  A    between atoms: C_6  and  C_10
REMARK    7  A    between atoms: C_7  and  C_13
REMARK    8  A    between atoms: C_9  and  C_14
REMARK    9  A    between atoms: C_10  and  C_15
REMARK   10  A    between atoms: C_10  and  C_16
REMARK   11  A    between atoms: C_11  and  C_17
REMARK   12  A    between atoms: C_14  and  C_18
REMARK   13  A    between atoms: C_19  and  C_20
REMARK   14  A    between atoms: C_19  and  C_21
REMARK   15  A    between atoms: C_22  and  C_23
REMARK                            x       y       z     vdW  Elec       q    Type
REMARK                         _______ _______ _______ _____ _____    ______ ____
ROOT
ATOM      6  C   UNL     1     -10.363  -9.703  18.567  0.00  0.00    +0.000 C 
ATOM      7  C   UNL     1     -11.322 -10.669  19.307  0.00  0.00    +0.029 C 
ATOM      8  C   UNL     1      -9.360 -10.492  17.712  0.00  0.00    +0.012 C 
ATOM      9  C   UNL     1      -8.516 -11.467  18.555  0.00  0.00    +0.024 C 
ATOM     11  C   UNL     1      -9.374 -12.273  19.509  0.00  0.00    -0.073 C 
ATOM     12  C   UNL     1     -10.629 -11.909  19.823  0.00  0.00    -0.023 C 
ATOM     17  C   UNL     1      -8.769 -13.535  20.061  0.00  0.00    +0.039 C 
ENDROOT
BRANCH   6  10
ATOM     10  C   UNL     1     -11.125  -8.707  17.687  0.00  0.00    -0.013 C 
ATOM     15  C   UNL     1     -11.963  -9.449  16.650  0.00  0.00    +0.007 C 
ATOM     16  C   UNL     1     -10.156  -7.743  17.011  0.00  0.00    +0.007 C 
ENDBRANCH   6  10
BRANCH   7  13
ATOM     13  C   UNL     1     -12.035  -9.963  20.465  0.00  0.00    +0.089 C 
BRANCH  13   2
ATOM      2  N   UNL     1     -12.707 -10.928  21.319  0.00  0.00    -0.313 NA
ATOM     31  H   UNL     1     -12.414 -11.870  21.063  0.00  0.00    +0.122 HD
BRANCH   2  19
ATOM     19  C   UNL     1     -14.156 -10.820  21.192  0.00  0.00    +0.047 C 
ATOM     20  C   UNL     1     -14.516  -9.443  20.646  0.00  0.00    +0.023 C 
ATOM     21  C   UNL     1     -14.692 -11.927  20.288  0.00  0.00    +0.023 C 
ENDBRANCH   2  19
ENDBRANCH  13   2
ENDBRANCH   7  13
BRANCH   9  14
ATOM     14  C   UNL     1      -7.405 -10.727  19.307  0.00  0.00    +0.105 C 
BRANCH  14  18
ATOM      1  O   UNL     1      -5.904 -10.699  17.383  0.00  0.00    -0.420 OA
ATOM      3  N   UNL     1      -4.975 -11.492  19.257  0.00  0.00    -0.112 NA
ATOM      4  N   UNL     1      -4.022 -11.534  18.257  0.00  0.00    -0.107 NA
ATOM     18  C   UNL     1      -6.058 -10.998  18.701  0.00  0.00    +0.218 A 
ATOM     22  C   UNL     1      -4.608 -11.062  17.182  0.00  0.00    +0.248 A 
BRANCH  22  23
ATOM     23  C   UNL     1      -4.102 -10.873  15.853  0.00  0.00    +0.039 A 
ATOM     24  C   UNL     1      -2.728 -10.769  15.638  0.00  0.00    +0.015 A 
ATOM     25  C   UNL     1      -4.985 -10.794  14.776  0.00  0.00    +0.015 A 
ATOM     26  C   UNL     1      -2.236 -10.584  14.346  0.00  0.00    +0.024 A 
ATOM     27  C   UNL     1      -4.493 -10.611  13.483  0.00  0.00    +0.024 A 
ATOM     28  C   UNL     1      -3.119 -10.506  13.269  0.00  0.00    +0.029 A 
BRANCH  28   5
ATOM      5  N   UNL     1      -2.621 -10.319  11.962  0.00  0.00    -0.336 N 
ATOM     29  C   UNL     1      -3.445 -10.630  10.811  0.00  0.00    +0.129 C 
ATOM     30  C   UNL     1      -1.276  -9.820  11.753  0.00  0.00    +0.129 C 
ENDBRANCH  28   5
ENDBRANCH  22  23
ENDBRANCH  14  18
ENDBRANCH   9  14
TORSDOF 8
ENDMDL
MODEL 8
REMARK VINA RESULT:      -6.0     27.228     31.830
REMARK  Name = 45783972
REMARK  15 active torsions:
REMARK  status: ('A' for Active; 'I' for Inactive)
REMARK    1  A    between atoms: N_2  and  C_13
REMARK    2  A    between atoms: N_2  and  C_19
REMARK    3  A    between atoms: N_5  and  C_28
REMARK    4  A    between atoms: N_5  and  C_29
REMARK    5  A    between atoms: N_5  and  C_30
REMARK    6  A    between atoms: C_6  and  C_10
REMARK    7  A    between atoms: C_7  and  C_13
REMARK    8  A    between atoms: C_9  and  C_14
REMARK    9  A    between atoms: C_10  and  C_15
REMARK   10  A    between atoms: C_10  and  C_16
REMARK   11  A    between atoms: C_11  and  C_17
REMARK   12  A    between atoms: C_14  and  C_18
REMARK   13  A    between atoms: C_19  and  C_20
REMARK   14  A    between atoms: C_19  and  C_21
REMARK   15  A    between atoms: C_22  and  C_23
REMARK                            x       y       z     vdW  Elec       q    Type
REMARK                         _______ _______ _______ _____ _____    ______ ____
ROOT
ATOM      6  C   UNL     1      -5.639 -10.753  17.676  0.00  0.00    +0.000 C 
ATOM      7  C   UNL     1      -5.030 -11.161  16.311  0.00  0.00    +0.029 C 
ATOM      8  C   UNL     1      -7.140 -11.074  17.711  0.00  0.00    +0.012 C 
ATOM      9  C   UNL     1      -7.917 -10.350  16.595  0.00  0.00    +0.024 C 
ATOM     11  C   UNL     1      -7.228 -10.485  15.252  0.00  0.00    -0.073 C 
ATOM     12  C   UNL     1      -5.941 -10.861  15.143  0.00  0.00    -0.023 C 
ATOM     17  C   UNL     1      -8.065 -10.220  14.032  0.00  0.00    +0.039 C 
ENDROOT
BRANCH   6  10
ATOM     10  C   UNL     1      -4.931 -11.448  18.844  0.00  0.00    -0.013 C 
ATOM     15  C   UNL     1      -4.684 -12.917  18.517  0.00  0.00    +0.007 C 
ATOM     16  C   UNL     1      -5.753 -11.309  20.122  0.00  0.00    +0.007 C 
ENDBRANCH   6  10
BRANCH   7  13
ATOM     13  C   UNL     1      -3.673 -10.486  16.086  0.00  0.00    +0.089 C 
BRANCH  13   2
ATOM      2  N   UNL     1      -3.423 -10.297  14.667  0.00  0.00    -0.313 NA
ATOM     31  H   UNL     1      -3.962 -10.977  14.133  0.00  0.00    +0.122 HD
BRANCH   2  19
ATOM     19  C   UNL     1      -2.006 -10.452  14.358  0.00  0.00    +0.047 C 
ATOM     20  C   UNL     1      -1.281 -11.016  15.576  0.00  0.00    +0.023 C 
ATOM     21  C   UNL     1      -1.825 -11.359  13.144  0.00  0.00    +0.023 C 
ENDBRANCH   2  19
ENDBRANCH  13   2
ENDBRANCH   7  13
BRANCH   9  14
ATOM     14  C   UNL     1      -8.149  -8.878  16.949  0.00  0.00    +0.105 C 
BRANCH  14  18
ATOM      1  O   UNL     1     -10.110  -7.793  15.984  0.00  0.00    -0.420 OA
ATOM      3  N   UNL     1     -10.514  -8.883  17.895  0.00  0.00    -0.112 NA
ATOM      4  N   UNL     1     -11.701  -8.322  17.464  0.00  0.00    -0.107 NA
ATOM     18  C   UNL     1      -9.613  -8.549  17.001  0.00  0.00    +0.218 A 
ATOM     22  C   UNL     1     -11.418  -7.696  16.346  0.00  0.00    +0.248 A 
BRANCH  22  23
ATOM     23  C   UNL     1     -12.258  -6.939  15.463  0.00  0.00    +0.039 A 
ATOM     24  C   UNL     1     -13.575  -7.344  15.238  0.00  0.00    +0.015 A 
ATOM     25  C   UNL     1     -11.760  -5.800  14.832  0.00  0.00    +0.015 A 
ATOM     26  C   UNL     1     -14.392  -6.608  14.379  0.00  0.00    +0.024 A 
ATOM     27  C   UNL     1     -12.578  -5.064  13.975  0.00  0.00    +0.024 A 
ATOM     28  C   UNL     1     -13.893  -5.468  13.748  0.00  0.00    +0.029 A 
BRANCH  28   5
ATOM      5  N   UNL     1     -14.720  -4.726  12.880  0.00  0.00    -0.336 N 
ATOM     29  C   UNL     1     -15.699  -5.396  12.046  0.00  0.00    +0.129 C 
ATOM     30  C   UNL     1     -14.597  -3.283  12.803  0.00  0.00    +0.129 C 
ENDBRANCH  28   5
ENDBRANCH  22  23
ENDBRANCH  14  18
ENDBRANCH   9  14
TORSDOF 8
ENDMDL
MODEL 9
REMARK VINA RESULT:      -6.0     26.894     31.257
REMARK  Name = 45783972
REMARK  15 active torsions:
REMARK  status: ('A' for Active; 'I' for Inactive)
REMARK    1  A    between atoms: N_2  and  C_13
REMARK    2  A    between atoms: N_2  and  C_19
REMARK    3  A    between atoms: N_5  and  C_28
REMARK    4  A    between atoms: N_5  and  C_29
REMARK    5  A    between atoms: N_5  and  C_30
REMARK    6  A    between atoms: C_6  and  C_10
REMARK    7  A    between atoms: C_7  and  C_13
REMARK    8  A    between atoms: C_9  and  C_14
REMARK    9  A    between atoms: C_10  and  C_15
REMARK   10  A    between atoms: C_10  and  C_16
REMARK   11  A    between atoms: C_11  and  C_17
REMARK   12  A    between atoms: C_14  and  C_18
REMARK   13  A    between atoms: C_19  and  C_20
REMARK   14  A    between atoms: C_19  and  C_21
REMARK   15  A    between atoms: C_22  and  C_23
REMARK                            x       y       z     vdW  Elec       q    Type
REMARK                         _______ _______ _______ _____ _____    ______ ____
ROOT
ATOM      6  C   UNL     1      -4.791 -11.048  13.388  0.00  0.00    +0.000 C 
ATOM      7  C   UNL     1      -3.423 -10.669  12.769  0.00  0.00    +0.029 C 
ATOM      8  C   UNL     1      -4.997 -10.317  14.723  0.00  0.00    +0.012 C 
ATOM      9  C   UNL     1      -3.892 -10.648  15.744  0.00  0.00    +0.024 C 
ATOM     11  C   UNL     1      -2.511 -10.555  15.128  0.00  0.00    -0.073 C 
ATOM     12  C   UNL     1      -2.321 -10.553  13.797  0.00  0.00    -0.023 C 
ATOM     17  C   UNL     1      -1.354 -10.419  16.079  0.00  0.00    +0.039 C 
ENDROOT
BRANCH   6  10
ATOM     10  C   UNL     1      -5.952 -10.732  12.438  0.00  0.00    -0.013 C 
ATOM     15  C   UNL     1      -6.039  -9.230  12.188  0.00  0.00    +0.007 C 
ATOM     16  C   UNL     1      -7.264 -11.264  13.006  0.00  0.00    +0.007 C 
ENDBRANCH   6  10
BRANCH   7  13
ATOM     13  C   UNL     1      -3.007 -11.672  11.688  0.00  0.00    +0.089 C 
BRANCH  13   2
ATOM      2  N   UNL     1      -2.054 -12.633  12.218  0.00  0.00    -0.313 NA
ATOM     31  H   UNL     1      -1.212 -12.628  11.643  0.00  0.00    +0.122 HD
BRANCH   2  19
ATOM     19  C   UNL     1      -2.619 -13.976  12.238  0.00  0.00    +0.047 C 
ATOM     20  C   UNL     1      -3.073 -14.315  13.654  0.00  0.00    +0.023 C 
ATOM     21  C   UNL     1      -3.779 -14.077  11.251  0.00  0.00    +0.023 C 
ENDBRANCH   2  19
ENDBRANCH  13   2
ENDBRANCH   7  13
BRANCH   9  14
ATOM     14  C   UNL     1      -4.120 -12.024  16.378  0.00  0.00    +0.105 C 
BRANCH  14  18
ATOM      1  O   UNL     1      -6.153 -12.015  17.728  0.00  0.00    -0.420 OA
ATOM      3  N   UNL     1      -4.273 -11.715  18.902  0.00  0.00    -0.112 NA
ATOM      4  N   UNL     1      -5.336 -11.688  19.784  0.00  0.00    -0.107 NA
ATOM     18  C   UNL     1      -4.796 -11.909  17.714  0.00  0.00    +0.218 A 
ATOM     22  C   UNL     1      -6.413 -11.867  19.056  0.00  0.00    +0.248 A 
BRANCH  22  23
ATOM     23  C   UNL     1      -7.794 -11.930  19.436  0.00  0.00    +0.039 A 
ATOM     24  C   UNL     1      -8.304 -13.089  20.021  0.00  0.00    +0.015 A 
ATOM     25  C   UNL     1      -8.627 -10.831  19.221  0.00  0.00    +0.015 A 
ATOM     26  C   UNL     1      -9.648 -13.151  20.390  0.00  0.00    +0.024 A 
ATOM     27  C   UNL     1      -9.971 -10.893  19.592  0.00  0.00    +0.024 A 
ATOM     28  C   UNL     1     -10.480 -12.052  20.176  0.00  0.00    +0.029 A 
BRANCH  28   5
ATOM      5  N   UNL     1     -11.840 -12.115  20.549  0.00  0.00    -0.336 N 
ATOM     29  C   UNL     1     -12.653 -10.915  20.564  0.00  0.00    +0.129 C 
ATOM     30  C   UNL     1     -12.439 -13.379  20.929  0.00  0.00    +0.129 C 
ENDBRANCH  28   5
ENDBRANCH  22  23
ENDBRANCH  14  18
ENDBRANCH   9  14
TORSDOF 8
ENDMDL
MODEL 10
REMARK VINA RESULT:      -5.9     27.148     31.340
REMARK  Name = 45783972
REMARK  15 active torsions:
REMARK  status: ('A' for Active; 'I' for Inactive)
REMARK    1  A    between atoms: N_2  and  C_13
REMARK    2  A    between atoms: N_2  and  C_19
REMARK    3  A    between atoms: N_5  and  C_28
REMARK    4  A    between atoms: N_5  and  C_29
REMARK    5  A    between atoms: N_5  and  C_30
REMARK    6  A    between atoms: C_6  and  C_10
REMARK    7  A    between atoms: C_7  and  C_13
REMARK    8  A    between atoms: C_9  and  C_14
REMARK    9  A    between atoms: C_10  and  C_15
REMARK   10  A    between atoms: C_10  and  C_16
REMARK   11  A    between atoms: C_11  and  C_17
REMARK   12  A    between atoms: C_14  and  C_18
REMARK   13  A    between atoms: C_19  and  C_20
REMARK   14  A    between atoms: C_19  and  C_21
REMARK   15  A    between atoms: C_22  and  C_23
REMARK                            x       y       z     vdW  Elec       q    Type
REMARK                         _______ _______ _______ _____ _____    ______ ____
ROOT
ATOM      6  C   UNL     1      -5.400 -10.983  13.995  0.00  0.00    +0.000 C 
ATOM      7  C   UNL     1      -4.098 -10.817  13.172  0.00  0.00    +0.029 C 
ATOM      8  C   UNL     1      -5.322 -10.165  15.293  0.00  0.00    +0.012 C 
ATOM      9  C   UNL     1      -4.131 -10.585  16.175  0.00  0.00    +0.024 C 
ATOM     11  C   UNL     1      -2.851 -10.703  15.373  0.00  0.00    -0.073 C 
ATOM     12  C   UNL     1      -2.854 -10.793  14.031  0.00  0.00    -0.023 C 
ATOM     17  C   UNL     1      -1.562 -10.672  16.146  0.00  0.00    +0.039 C 
ENDROOT
BRANCH   6  10
ATOM     10  C   UNL     1      -6.637 -10.567  13.192  0.00  0.00    -0.013 C 
ATOM     15  C   UNL     1      -6.431  -9.187  12.577  0.00  0.00    +0.007 C 
ATOM     16  C   UNL     1      -7.878 -10.585  14.080  0.00  0.00    +0.007 C 
ENDBRANCH   6  10
BRANCH   7  13
ATOM     13  C   UNL     1      -3.966 -11.919  12.115  0.00  0.00    +0.089 C 
BRANCH  13   2
ATOM      2  N   UNL     1      -3.198 -11.447  10.975  0.00  0.00    -0.313 NA
ATOM     31  H   UNL     1      -2.235 -11.280  11.260  0.00  0.00    +0.122 HD
BRANCH   2  19
ATOM     19  C   UNL     1      -3.764 -10.217  10.434  0.00  0.00    +0.047 C 
ATOM     20  C   UNL     1      -2.672  -9.157  10.337  0.00  0.00    +0.023 C 
ATOM     21  C   UNL     1      -4.397 -10.479   9.070  0.00  0.00    +0.023 C 
ENDBRANCH   2  19
ENDBRANCH  13   2
ENDBRANCH   7  13
BRANCH   9  14
ATOM     14  C   UNL     1      -4.432 -11.886  16.926  0.00  0.00    +0.105 C 
BRANCH  14  18
ATOM      1  O   UNL     1      -6.526 -12.074  18.164  0.00  0.00    -0.420 OA
ATOM      3  N   UNL     1      -4.893 -11.031  19.281  0.00  0.00    -0.112 NA
ATOM      4  N   UNL     1      -6.010 -11.066  20.093  0.00  0.00    -0.107 NA
ATOM     18  C   UNL     1      -5.239 -11.631  18.166  0.00  0.00    +0.218 A 
ATOM     22  C   UNL     1      -6.939 -11.684  19.401  0.00  0.00    +0.248 A 
BRANCH  22  23
ATOM     23  C   UNL     1      -8.295 -12.005  19.740  0.00  0.00    +0.039 A 
ATOM     24  C   UNL     1      -9.280 -11.019  19.685  0.00  0.00    +0.015 A 
ATOM     25  C   UNL     1      -8.628 -13.304  20.123  0.00  0.00    +0.015 A 
ATOM     26  C   UNL     1     -10.598 -11.332  20.014  0.00  0.00    +0.024 A 
ATOM     27  C   UNL     1      -9.947 -13.617  20.452  0.00  0.00    +0.024 A 
ATOM     28  C   UNL     1     -10.932 -12.631  20.397  0.00  0.00    +0.029 A 
BRANCH  28   5
ATOM      5  N   UNL     1     -12.266 -12.946  20.731  0.00  0.00    -0.336 N 
ATOM     29  C   UNL     1     -13.176 -11.909  21.177  0.00  0.00    +0.129 C 
ATOM     30  C   UNL     1     -12.742 -14.312  20.641  0.00  0.00    +0.129 C 
ENDBRANCH  28   5
ENDBRANCH  22  23
ENDBRANCH  14  18
ENDBRANCH   9  14
TORSDOF 8
ENDMDL
