MODEL 1
REMARK VINA RESULT:      -7.7      0.000      0.000
REMARK  Name = 26743958
REMARK  5 active torsions:
REMARK  status: ('A' for Active; 'I' for Inactive)
REMARK    1  A    between atoms: O_2  and  C_10
REMARK    2  A    between atoms: N_4  and  C_12
REMARK    3  A    between atoms: C_8  and  C_13
REMARK    4  A    between atoms: C_12  and  C_14
REMARK    5  A    between atoms: C_17  and  C_20
REMARK                            x       y       z     vdW  Elec       q    Type
REMARK                         _______ _______ _______ _____ _____    ______ ____
ROOT
ATOM      4  N   UNL     1      13.111   8.019  20.548  0.00  0.00    -0.285 NA
ATOM      8  C   UNL     1      11.799   8.674  20.368  0.00  0.00    +0.149 C 
ATOM      9  C   UNL     1      10.779   7.676  20.947  0.00  0.00    +0.061 C 
ATOM     10  C   UNL     1      11.606   6.475  21.385  0.00  0.00    +0.130 C 
ATOM     11  C   UNL     1      12.860   6.579  20.538  0.00  0.00    +0.116 C 
ENDROOT
BRANCH   8  13
ATOM      3  O   UNL     1      12.197  11.085  20.307  0.00  0.00    -0.336 OA
ATOM      5  N   UNL     1      11.282  10.356  22.217  0.00  0.00    -0.190 NA
ATOM      6  N   UNL     1      12.032  12.216  21.116  0.00  0.00    -0.056 NA
ATOM     13  C   UNL     1      11.730  10.034  21.031  0.00  0.00    +0.245 A 
ATOM     17  C   UNL     1      11.488  11.705  22.224  0.00  0.00    +0.204 A 
BRANCH  17  20
ATOM      7  N   UNL     1      10.519  12.649  25.688  0.00  0.00    -0.263 NA
ATOM     20  C   UNL     1      11.137  12.516  23.354  0.00  0.00    +0.041 A 
ATOM     22  C   UNL     1      11.068  13.901  23.250  0.00  0.00    +0.014 A 
ATOM     23  C   UNL     1      10.856  11.944  24.585  0.00  0.00    +0.122 A 
ATOM     24  C   UNL     1      10.725  14.661  24.363  0.00  0.00    +0.020 A 
ATOM     25  C   UNL     1      10.463  13.993  25.547  0.00  0.00    +0.111 A 
ENDBRANCH  17  20
ENDBRANCH   8  13
BRANCH  10   2
ATOM      2  O   UNL     1      10.908   5.269  21.143  0.00  0.00    -0.390 OA
ATOM     26  H   UNL     1      10.041   5.340  21.578  0.00  0.00    +0.210 HD
ENDBRANCH  10   2
BRANCH   4  12
ATOM     12  C   UNL     1      14.092   8.413  19.545  0.00  0.00    +0.120 C 
BRANCH  12  14
ATOM      1 CL   UNL     1      19.434   5.817  20.499  0.00  0.00    -0.084 Cl
ATOM     14  C   UNL     1      15.429   7.763  19.784  0.00  0.00    -0.033 A 
ATOM     15  C   UNL     1      15.827   6.679  19.002  0.00  0.00    +0.006 A 
ATOM     16  C   UNL     1      16.269   8.244  20.789  0.00  0.00    +0.006 A 
ATOM     18  C   UNL     1      17.065   6.077  19.223  0.00  0.00    +0.020 A 
ATOM     19  C   UNL     1      17.507   7.642  21.009  0.00  0.00    +0.020 A 
ATOM     21  C   UNL     1      17.906   6.559  20.226  0.00  0.00    +0.041 A 
ENDBRANCH  12  14
ENDBRANCH   4  12
TORSDOF 5
ENDMDL
MODEL 2
REMARK VINA RESULT:      -7.4      3.653      7.440
REMARK  Name = 26743958
REMARK  5 active torsions:
REMARK  status: ('A' for Active; 'I' for Inactive)
REMARK    1  A    between atoms: O_2  and  C_10
REMARK    2  A    between atoms: N_4  and  C_12
REMARK    3  A    between atoms: C_8  and  C_13
REMARK    4  A    between atoms: C_12  and  C_14
REMARK    5  A    between atoms: C_17  and  C_20
REMARK                            x       y       z     vdW  Elec       q    Type
REMARK                         _______ _______ _______ _____ _____    ______ ____
ROOT
ATOM      4  N   UNL     1      12.594   8.653  18.669  0.00  0.00    -0.285 NA
ATOM      8  C   UNL     1      13.384   7.440  18.369  0.00  0.00    +0.149 C 
ATOM      9  C   UNL     1      13.887   7.645  16.928  0.00  0.00    +0.061 C 
ATOM     10  C   UNL     1      13.294   8.977  16.488  0.00  0.00    +0.130 C 
ATOM     11  C   UNL     1      12.085   9.142  17.389  0.00  0.00    +0.116 C 
ENDROOT
BRANCH   8  13
ATOM      3  O   UNL     1      14.181   6.586  20.515  0.00  0.00    -0.336 OA
ATOM      5  N   UNL     1      15.771   7.547  19.265  0.00  0.00    -0.190 NA
ATOM      6  N   UNL     1      15.366   6.496  21.256  0.00  0.00    -0.056 NA
ATOM     13  C   UNL     1      14.509   7.217  19.357  0.00  0.00    +0.245 A 
ATOM     17  C   UNL     1      16.257   7.084  20.453  0.00  0.00    +0.204 A 
BRANCH  17  20
ATOM      7  N   UNL     1      19.361   8.471  21.961  0.00  0.00    -0.263 NA
ATOM     20  C   UNL     1      17.640   7.224  20.808  0.00  0.00    +0.041 A 
ATOM     22  C   UNL     1      18.587   6.302  20.376  0.00  0.00    +0.014 A 
ATOM     23  C   UNL     1      18.074   8.281  21.591  0.00  0.00    +0.122 A 
ATOM     24  C   UNL     1      19.921   6.463  20.736  0.00  0.00    +0.020 A 
ATOM     25  C   UNL     1      20.253   7.554  21.522  0.00  0.00    +0.111 A 
ENDBRANCH  17  20
ENDBRANCH   8  13
BRANCH  10   2
ATOM      2  O   UNL     1      12.929   8.938  15.122  0.00  0.00    -0.390 OA
ATOM     26  H   UNL     1      12.418   9.743  14.933  0.00  0.00    +0.210 HD
ENDBRANCH  10   2
BRANCH   4  12
ATOM     12  C   UNL     1      11.527   8.420  19.632  0.00  0.00    +0.120 C 
BRANCH  12  14
ATOM      1 CL   UNL     1      11.896  12.161  24.328  0.00  0.00    -0.084 Cl
ATOM     14  C   UNL     1      11.619   9.356  20.808  0.00  0.00    -0.033 A 
ATOM     15  C   UNL     1      12.560  10.385  20.807  0.00  0.00    +0.006 A 
ATOM     16  C   UNL     1      10.764   9.193  21.898  0.00  0.00    +0.006 A 
ATOM     18  C   UNL     1      12.646  11.253  21.896  0.00  0.00    +0.020 A 
ATOM     19  C   UNL     1      10.850  10.061  22.987  0.00  0.00    +0.020 A 
ATOM     21  C   UNL     1      11.791  11.091  22.985  0.00  0.00    +0.041 A 
ENDBRANCH  12  14
ENDBRANCH   4  12
TORSDOF 5
ENDMDL
MODEL 3
REMARK VINA RESULT:      -7.2      3.563      5.911
REMARK  Name = 26743958
REMARK  5 active torsions:
REMARK  status: ('A' for Active; 'I' for Inactive)
REMARK    1  A    between atoms: O_2  and  C_10
REMARK    2  A    between atoms: N_4  and  C_12
REMARK    3  A    between atoms: C_8  and  C_13
REMARK    4  A    between atoms: C_12  and  C_14
REMARK    5  A    between atoms: C_17  and  C_20
REMARK                            x       y       z     vdW  Elec       q    Type
REMARK                         _______ _______ _______ _____ _____    ______ ____
ROOT
ATOM      4  N   UNL     1      13.188   7.773  20.248  0.00  0.00    -0.285 NA
ATOM      8  C   UNL     1      12.260   7.823  19.099  0.00  0.00    +0.149 C 
ATOM      9  C   UNL     1      11.004   8.531  19.638  0.00  0.00    +0.061 C 
ATOM     10  C   UNL     1      11.302   8.801  21.107  0.00  0.00    +0.130 C 
ATOM     11  C   UNL     1      12.357   7.766  21.450  0.00  0.00    +0.116 C 
ENDROOT
BRANCH   8  13
ATOM      3  O   UNL     1      12.492   8.047  16.677  0.00  0.00    -0.336 OA
ATOM      5  N   UNL     1      13.687   9.532  17.853  0.00  0.00    -0.190 NA
ATOM      6  N   UNL     1      13.162   8.840  15.736  0.00  0.00    -0.056 NA
ATOM     13  C   UNL     1      12.857   8.522  17.896  0.00  0.00    +0.245 A 
ATOM     17  C   UNL     1      13.846   9.692  16.507  0.00  0.00    +0.204 A 
BRANCH  17  20
ATOM      7  N   UNL     1      16.207  11.429  14.219  0.00  0.00    -0.263 NA
ATOM     20  C   UNL     1      14.693  10.713  15.963  0.00  0.00    +0.041 A 
ATOM     22  C   UNL     1      14.838  11.940  16.601  0.00  0.00    +0.014 A 
ATOM     23  C   UNL     1      15.393  10.509  14.784  0.00  0.00    +0.122 A 
ATOM     24  C   UNL     1      15.666  12.911  16.050  0.00  0.00    +0.020 A 
ATOM     25  C   UNL     1      16.322  12.609  14.868  0.00  0.00    +0.111 A 
ENDBRANCH  17  20
ENDBRANCH   8  13
BRANCH  10   2
ATOM      2  O   UNL     1      10.137   8.643  21.894  0.00  0.00    -0.390 OA
ATOM     26  H   UNL     1       9.969   9.491  22.341  0.00  0.00    +0.210 HD
ENDBRANCH  10   2
BRANCH   4  12
ATOM     12  C   UNL     1      14.097   6.636  20.202  0.00  0.00    +0.120 C 
BRANCH  12  14
ATOM      1 CL   UNL     1      19.781   8.275  21.297  0.00  0.00    -0.084 Cl
ATOM     14  C   UNL     1      15.520   7.046  20.476  0.00  0.00    -0.033 A 
ATOM     15  C   UNL     1      15.783   8.160  21.273  0.00  0.00    +0.006 A 
ATOM     16  C   UNL     1      16.575   6.313  19.931  0.00  0.00    +0.006 A 
ATOM     18  C   UNL     1      17.101   8.540  21.527  0.00  0.00    +0.020 A 
ATOM     19  C   UNL     1      17.892   6.693  20.186  0.00  0.00    +0.020 A 
ATOM     21  C   UNL     1      18.155   7.807  20.984  0.00  0.00    +0.041 A 
ENDBRANCH  12  14
ENDBRANCH   4  12
TORSDOF 5
ENDMDL
MODEL 4
REMARK VINA RESULT:      -6.8      3.512      7.027
REMARK  Name = 26743958
REMARK  5 active torsions:
REMARK  status: ('A' for Active; 'I' for Inactive)
REMARK    1  A    between atoms: O_2  and  C_10
REMARK    2  A    between atoms: N_4  and  C_12
REMARK    3  A    between atoms: C_8  and  C_13
REMARK    4  A    between atoms: C_12  and  C_14
REMARK    5  A    between atoms: C_17  and  C_20
REMARK                            x       y       z     vdW  Elec       q    Type
REMARK                         _______ _______ _______ _____ _____    ______ ____
ROOT
ATOM      4  N   UNL     1      12.439   8.308  20.155  0.00  0.00    -0.285 NA
ATOM      8  C   UNL     1      13.144   7.135  19.599  0.00  0.00    +0.149 C 
ATOM      9  C   UNL     1      12.830   7.166  18.091  0.00  0.00    +0.061 C 
ATOM     10  C   UNL     1      11.908   8.364  17.904  0.00  0.00    +0.130 C 
ATOM     11  C   UNL     1      11.296   8.558  19.279  0.00  0.00    +0.116 C 
ENDROOT
BRANCH   8  13
ATOM      3  O   UNL     1      15.380   6.205  19.272  0.00  0.00    -0.336 OA
ATOM      5  N   UNL     1      15.313   7.963  20.659  0.00  0.00    -0.190 NA
ATOM      6  N   UNL     1      16.699   6.422  19.689  0.00  0.00    -0.056 NA
ATOM     13  C   UNL     1      14.630   7.155  19.889  0.00  0.00    +0.245 A 
ATOM     17  C   UNL     1      16.578   7.474  20.505  0.00  0.00    +0.204 A 
BRANCH  17  20
ATOM      7  N   UNL     1      19.854   7.773  22.239  0.00  0.00    -0.263 NA
ATOM     20  C   UNL     1      17.700   8.061  21.178  0.00  0.00    +0.041 A 
ATOM     22  C   UNL     1      17.752   9.428  21.427  0.00  0.00    +0.014 A 
ATOM     23  C   UNL     1      18.767   7.284  21.600  0.00  0.00    +0.122 A 
ATOM     24  C   UNL     1      18.853   9.969  22.082  0.00  0.00    +0.020 A 
ATOM     25  C   UNL     1      19.868   9.107  22.463  0.00  0.00    +0.111 A 
ENDBRANCH  17  20
ENDBRANCH   8  13
BRANCH  10   2
ATOM      2  O   UNL     1      10.924   8.092  16.925  0.00  0.00    -0.390 OA
ATOM     26  H   UNL     1      10.746   7.136  16.947  0.00  0.00    +0.210 HD
ENDBRANCH  10   2
BRANCH   4  12
ATOM     12  C   UNL     1      12.037   8.131  21.544  0.00  0.00    +0.120 C 
BRANCH  12  14
ATOM      1 CL   UNL     1      12.040  13.340  24.554  0.00  0.00    -0.084 Cl
ATOM     14  C   UNL     1      12.038   9.435  22.298  0.00  0.00    -0.033 A 
ATOM     15  C   UNL     1      13.188  10.222  22.326  0.00  0.00    +0.006 A 
ATOM     16  C   UNL     1      10.888   9.854  22.968  0.00  0.00    +0.006 A 
ATOM     18  C   UNL     1      13.189  11.430  23.024  0.00  0.00    +0.020 A 
ATOM     19  C   UNL     1      10.890  11.062  23.665  0.00  0.00    +0.020 A 
ATOM     21  C   UNL     1      12.040  11.850  23.693  0.00  0.00    +0.041 A 
ENDBRANCH  12  14
ENDBRANCH   4  12
TORSDOF 5
ENDMDL
MODEL 5
REMARK VINA RESULT:      -6.8      3.871      8.311
REMARK  Name = 26743958
REMARK  5 active torsions:
REMARK  status: ('A' for Active; 'I' for Inactive)
REMARK    1  A    between atoms: O_2  and  C_10
REMARK    2  A    between atoms: N_4  and  C_12
REMARK    3  A    between atoms: C_8  and  C_13
REMARK    4  A    between atoms: C_12  and  C_14
REMARK    5  A    between atoms: C_17  and  C_20
REMARK                            x       y       z     vdW  Elec       q    Type
REMARK                         _______ _______ _______ _____ _____    ______ ____
ROOT
ATOM      4  N   UNL     1      13.721   7.987  19.788  0.00  0.00    -0.285 NA
ATOM      8  C   UNL     1      14.669   7.024  19.190  0.00  0.00    +0.149 C 
ATOM      9  C   UNL     1      14.638   7.328  17.680  0.00  0.00    +0.061 C 
ATOM     10  C   UNL     1      13.613   8.444  17.523  0.00  0.00    +0.130 C 
ATOM     11  C   UNL     1      12.737   8.297  18.753  0.00  0.00    +0.116 C 
ENDROOT
BRANCH   8  13
ATOM      3  O   UNL     1      16.348   8.277  20.448  0.00  0.00    -0.336 OA
ATOM      5  N   UNL     1      17.042   6.268  19.745  0.00  0.00    -0.190 NA
ATOM      6  N   UNL     1      17.668   8.144  20.896  0.00  0.00    -0.056 NA
ATOM     13  C   UNL     1      16.059   7.129  19.781  0.00  0.00    +0.245 A 
ATOM     17  C   UNL     1      18.008   6.934  20.442  0.00  0.00    +0.204 A 
BRANCH  17  20
ATOM      7  N   UNL     1      21.531   6.590  21.582  0.00  0.00    -0.263 NA
ATOM     20  C   UNL     1      19.304   6.362  20.670  0.00  0.00    +0.041 A 
ATOM     22  C   UNL     1      19.608   5.078  20.229  0.00  0.00    +0.014 A 
ATOM     23  C   UNL     1      20.291   7.069  21.336  0.00  0.00    +0.122 A 
ATOM     24  C   UNL     1      20.873   4.550  20.464  0.00  0.00    +0.020 A 
ATOM     25  C   UNL     1      21.790   5.339  21.139  0.00  0.00    +0.111 A 
ENDBRANCH  17  20
ENDBRANCH   8  13
BRANCH  10   2
ATOM      2  O   UNL     1      12.873   8.282  16.329  0.00  0.00    -0.390 OA
ATOM     26  H   UNL     1      12.126   7.691  16.526  0.00  0.00    +0.210 HD
ENDBRANCH  10   2
BRANCH   4  12
ATOM     12  C   UNL     1      13.098   7.495  21.010  0.00  0.00    +0.120 C 
BRANCH  12  14
ATOM      1 CL   UNL     1      10.549  11.937  24.165  0.00  0.00    -0.084 Cl
ATOM     14  C   UNL     1      12.459   8.606  21.799  0.00  0.00    -0.033 A 
ATOM     15  C   UNL     1      13.195   9.749  22.114  0.00  0.00    +0.006 A 
ATOM     16  C   UNL     1      11.133   8.493  22.217  0.00  0.00    +0.006 A 
ATOM     18  C   UNL     1      12.604  10.779  22.846  0.00  0.00    +0.020 A 
ATOM     19  C   UNL     1      10.543   9.524  22.949  0.00  0.00    +0.020 A 
ATOM     21  C   UNL     1      11.278  10.666  23.263  0.00  0.00    +0.041 A 
ENDBRANCH  12  14
ENDBRANCH   4  12
TORSDOF 5
ENDMDL
MODEL 6
REMARK VINA RESULT:      -6.8      3.444      7.910
REMARK  Name = 26743958
REMARK  5 active torsions:
REMARK  status: ('A' for Active; 'I' for Inactive)
REMARK    1  A    between atoms: O_2  and  C_10
REMARK    2  A    between atoms: N_4  and  C_12
REMARK    3  A    between atoms: C_8  and  C_13
REMARK    4  A    between atoms: C_12  and  C_14
REMARK    5  A    between atoms: C_17  and  C_20
REMARK                            x       y       z     vdW  Elec       q    Type
REMARK                         _______ _______ _______ _____ _____    ______ ____
ROOT
ATOM      4  N   UNL     1      12.774   9.090  20.609  0.00  0.00    -0.285 NA
ATOM      8  C   UNL     1      13.336   8.073  21.522  0.00  0.00    +0.149 C 
ATOM      9  C   UNL     1      12.198   7.055  21.725  0.00  0.00    +0.061 C 
ATOM     10  C   UNL     1      11.026   7.608  20.924  0.00  0.00    +0.130 C 
ATOM     11  C   UNL     1      11.330   9.092  20.831  0.00  0.00    +0.116 C 
ENDROOT
BRANCH   8  13
ATOM      3  O   UNL     1      14.466   6.675  19.866  0.00  0.00    -0.336 OA
ATOM      5  N   UNL     1      15.825   7.516  21.434  0.00  0.00    -0.190 NA
ATOM      6  N   UNL     1      15.749   6.204  19.562  0.00  0.00    -0.056 NA
ATOM     13  C   UNL     1      14.601   7.439  20.982  0.00  0.00    +0.245 A 
ATOM     17  C   UNL     1      16.495   6.742  20.531  0.00  0.00    +0.204 A 
BRANCH  17  20
ATOM      7  N   UNL     1      20.054   7.238  21.486  0.00  0.00    -0.263 NA
ATOM     20  C   UNL     1      17.910   6.528  20.624  0.00  0.00    +0.041 A 
ATOM     22  C   UNL     1      18.516   5.454  19.980  0.00  0.00    +0.014 A 
ATOM     23  C   UNL     1      18.716   7.383  21.358  0.00  0.00    +0.122 A 
ATOM     24  C   UNL     1      19.891   5.272  20.088  0.00  0.00    +0.020 A 
ATOM     25  C   UNL     1      20.608   6.183  20.846  0.00  0.00    +0.111 A 
ENDBRANCH  17  20
ENDBRANCH   8  13
BRANCH  10   2
ATOM      2  O   UNL     1       9.803   7.364  21.591  0.00  0.00    -0.390 OA
ATOM     26  H   UNL     1       9.465   6.507  21.277  0.00  0.00    +0.210 HD
ENDBRANCH  10   2
BRANCH   4  12
ATOM     12  C   UNL     1      13.360  10.412  20.793  0.00  0.00    +0.120 C 
BRANCH  12  14
ATOM      1 CL   UNL     1      10.166  13.757  24.639  0.00  0.00    -0.084 Cl
ATOM     14  C   UNL     1      12.560  11.250  21.755  0.00  0.00    -0.033 A 
ATOM     15  C   UNL     1      12.721  11.076  23.130  0.00  0.00    +0.006 A 
ATOM     16  C   UNL     1      11.658  12.197  21.272  0.00  0.00    +0.006 A 
ATOM     18  C   UNL     1      11.981  11.852  24.022  0.00  0.00    +0.020 A 
ATOM     19  C   UNL     1      10.918  12.973  22.165  0.00  0.00    +0.020 A 
ATOM     21  C   UNL     1      11.080  12.800  23.539  0.00  0.00    +0.041 A 
ENDBRANCH  12  14
ENDBRANCH   4  12
TORSDOF 5
ENDMDL
MODEL 7
REMARK VINA RESULT:      -6.7     25.886     28.288
REMARK  Name = 26743958
REMARK  5 active torsions:
REMARK  status: ('A' for Active; 'I' for Inactive)
REMARK    1  A    between atoms: O_2  and  C_10
REMARK    2  A    between atoms: N_4  and  C_12
REMARK    3  A    between atoms: C_8  and  C_13
REMARK    4  A    between atoms: C_12  and  C_14
REMARK    5  A    between atoms: C_17  and  C_20
REMARK                            x       y       z     vdW  Elec       q    Type
REMARK                         _______ _______ _______ _____ _____    ______ ____
ROOT
ATOM      4  N   UNL     1      -3.336 -10.650  14.333  0.00  0.00    -0.285 NA
ATOM      8  C   UNL     1      -3.604 -11.233  15.664  0.00  0.00    +0.149 C 
ATOM      9  C   UNL     1      -2.386 -10.836  16.519  0.00  0.00    +0.061 C 
ATOM     10  C   UNL     1      -1.470 -10.072  15.572  0.00  0.00    +0.130 C 
ATOM     11  C   UNL     1      -1.883 -10.572  14.200  0.00  0.00    +0.116 C 
ENDROOT
BRANCH   8  13
ATOM      3  O   UNL     1      -5.368  -9.551  15.833  0.00  0.00    -0.336 OA
ATOM      5  N   UNL     1      -5.692 -11.351  17.127  0.00  0.00    -0.190 NA
ATOM      6  N   UNL     1      -6.576  -9.333  16.508  0.00  0.00    -0.056 NA
ATOM     13  C   UNL     1      -4.915 -10.761  16.255  0.00  0.00    +0.245 A 
ATOM     17  C   UNL     1      -6.698 -10.437  17.251  0.00  0.00    +0.204 A 
BRANCH  17  20
ATOM      7  N   UNL     1      -8.729 -11.779  20.062  0.00  0.00    -0.263 NA
ATOM     20  C   UNL     1      -7.813 -10.658  18.126  0.00  0.00    +0.041 A 
ATOM     22  C   UNL     1      -9.024 -10.006  17.921  0.00  0.00    +0.014 A 
ATOM     23  C   UNL     1      -7.717 -11.526  19.201  0.00  0.00    +0.122 A 
ATOM     24  C   UNL     1     -10.088 -10.240  18.786  0.00  0.00    +0.020 A 
ATOM     25  C   UNL     1      -9.891 -11.127  19.831  0.00  0.00    +0.111 A 
ENDBRANCH  17  20
ENDBRANCH   8  13
BRANCH  10   2
ATOM      2  O   UNL     1      -0.112 -10.356  15.848  0.00  0.00    -0.390 OA
ATOM     26  H   UNL     1       0.397 -10.157  15.044  0.00  0.00    +0.210 HD
ENDBRANCH  10   2
BRANCH   4  12
ATOM     12  C   UNL     1      -3.947 -11.401  13.244  0.00  0.00    +0.120 C 
BRANCH  12  14
ATOM      1 CL   UNL     1      -6.384  -7.767   9.115  0.00  0.00    -0.084 Cl
ATOM     14  C   UNL     1      -4.557 -10.491  12.210  0.00  0.00    -0.033 A 
ATOM     15  C   UNL     1      -3.853 -10.190  11.045  0.00  0.00    +0.006 A 
ATOM     16  C   UNL     1      -5.825  -9.949  12.420  0.00  0.00    +0.006 A 
ATOM     18  C   UNL     1      -4.419  -9.348  10.087  0.00  0.00    +0.020 A 
ATOM     19  C   UNL     1      -6.390  -9.107  11.462  0.00  0.00    +0.020 A 
ATOM     21  C   UNL     1      -5.686  -8.806  10.296  0.00  0.00    +0.041 A 
ENDBRANCH  12  14
ENDBRANCH   4  12
TORSDOF 5
ENDMDL
MODEL 8
REMARK VINA RESULT:      -6.4     27.079     29.309
REMARK  Name = 26743958
REMARK  5 active torsions:
REMARK  status: ('A' for Active; 'I' for Inactive)
REMARK    1  A    between atoms: O_2  and  C_10
REMARK    2  A    between atoms: N_4  and  C_12
REMARK    3  A    between atoms: C_8  and  C_13
REMARK    4  A    between atoms: C_12  and  C_14
REMARK    5  A    between atoms: C_17  and  C_20
REMARK                            x       y       z     vdW  Elec       q    Type
REMARK                         _______ _______ _______ _____ _____    ______ ____
ROOT
ATOM      4  N   UNL     1      -7.229 -10.753  17.537  0.00  0.00    -0.285 NA
ATOM      8  C   UNL     1      -5.867 -11.110  17.986  0.00  0.00    +0.149 C 
ATOM      9  C   UNL     1      -5.999 -12.540  18.542  0.00  0.00    +0.061 C 
ATOM     10  C   UNL     1      -7.476 -12.883  18.403  0.00  0.00    +0.130 C 
ATOM     11  C   UNL     1      -8.154 -11.526  18.363  0.00  0.00    +0.116 C 
ENDROOT
BRANCH   8  13
ATOM      3  O   UNL     1      -3.540 -11.160  17.241  0.00  0.00    -0.336 OA
ATOM      5  N   UNL     1      -5.018 -10.778  15.602  0.00  0.00    -0.190 NA
ATOM      6  N   UNL     1      -2.791 -11.020  16.066  0.00  0.00    -0.056 NA
ATOM     13  C   UNL     1      -4.841 -11.003  16.879  0.00  0.00    +0.245 A 
ATOM     17  C   UNL     1      -3.733 -10.797  15.145  0.00  0.00    +0.204 A 
BRANCH  17  20
ATOM      7  N   UNL     1      -4.202 -10.287  11.491  0.00  0.00    -0.263 NA
ATOM     20  C   UNL     1      -3.422 -10.591  13.760  0.00  0.00    +0.041 A 
ATOM     22  C   UNL     1      -2.104 -10.496  13.327  0.00  0.00    +0.014 A 
ATOM     23  C   UNL     1      -4.425 -10.481  12.811  0.00  0.00    +0.122 A 
ATOM     24  C   UNL     1      -1.833 -10.297  11.977  0.00  0.00    +0.020 A 
ATOM     25  C   UNL     1      -2.908 -10.199  11.109  0.00  0.00    +0.111 A 
ENDBRANCH  17  20
ENDBRANCH   8  13
BRANCH  10   2
ATOM      2  O   UNL     1      -7.917 -13.658  19.502  0.00  0.00    -0.390 OA
ATOM     26  H   UNL     1      -8.734 -13.250  19.838  0.00  0.00    +0.210 HD
ENDBRANCH  10   2
BRANCH   4  12
ATOM     12  C   UNL     1      -7.499  -9.322  17.602  0.00  0.00    +0.120 C 
BRANCH  12  14
ATOM      1 CL   UNL     1     -12.111  -7.751  14.075  0.00  0.00    -0.084 Cl
ATOM     14  C   UNL     1      -8.653  -8.929  16.719  0.00  0.00    -0.033 A 
ATOM     15  C   UNL     1      -9.639  -8.070  17.203  0.00  0.00    +0.006 A 
ATOM     16  C   UNL     1      -8.737  -9.425  15.418  0.00  0.00    +0.006 A 
ATOM     18  C   UNL     1     -10.709  -7.706  16.385  0.00  0.00    +0.020 A 
ATOM     19  C   UNL     1      -9.806  -9.060  14.601  0.00  0.00    +0.020 A 
ATOM     21  C   UNL     1     -10.792  -8.200  15.084  0.00  0.00    +0.041 A 
ENDBRANCH  12  14
ENDBRANCH   4  12
TORSDOF 5
ENDMDL
MODEL 9
REMARK VINA RESULT:      -6.4     25.740     28.153
REMARK  Name = 26743958
REMARK  5 active torsions:
REMARK  status: ('A' for Active; 'I' for Inactive)
REMARK    1  A    between atoms: O_2  and  C_10
REMARK    2  A    between atoms: N_4  and  C_12
REMARK    3  A    between atoms: C_8  and  C_13
REMARK    4  A    between atoms: C_12  and  C_14
REMARK    5  A    between atoms: C_17  and  C_20
REMARK                            x       y       z     vdW  Elec       q    Type
REMARK                         _______ _______ _______ _____ _____    ______ ____
ROOT
ATOM      4  N   UNL     1      -2.899 -10.594  13.924  0.00  0.00    -0.285 NA
ATOM      8  C   UNL     1      -3.272 -11.392  15.110  0.00  0.00    +0.149 C 
ATOM      9  C   UNL     1      -2.281 -10.957  16.205  0.00  0.00    +0.061 C 
ATOM     10  C   UNL     1      -1.363  -9.947  15.528  0.00  0.00    +0.130 C 
ATOM     11  C   UNL     1      -1.474 -10.298  14.056  0.00  0.00    +0.116 C 
ENDROOT
BRANCH   8  13
ATOM      3  O   UNL     1      -5.332 -12.251  16.106  0.00  0.00    -0.336 OA
ATOM      5  N   UNL     1      -5.479 -10.138  15.379  0.00  0.00    -0.190 NA
ATOM      6  N   UNL     1      -6.639 -11.834  16.385  0.00  0.00    -0.056 NA
ATOM     13  C   UNL     1      -4.718 -11.193  15.515  0.00  0.00    +0.245 A 
ATOM     17  C   UNL     1      -6.649 -10.579  15.927  0.00  0.00    +0.204 A 
BRANCH  17  20
ATOM      7  N   UNL     1      -9.231  -8.296  17.323  0.00  0.00    -0.263 NA
ATOM     20  C   UNL     1      -7.809  -9.740  16.003  0.00  0.00    +0.041 A 
ATOM     22  C   UNL     1      -8.626  -9.542  14.895  0.00  0.00    +0.014 A 
ATOM     23  C   UNL     1      -8.153  -9.100  17.183  0.00  0.00    +0.122 A 
ATOM     24  C   UNL     1      -9.745  -8.722  14.999  0.00  0.00    +0.020 A 
ATOM     25  C   UNL     1     -10.001  -8.128  16.224  0.00  0.00    +0.111 A 
ENDBRANCH  17  20
ENDBRANCH   8  13
BRANCH  10   2
ATOM      2  O   UNL     1      -0.036 -10.078  16.000  0.00  0.00    -0.390 OA
ATOM     26  H   UNL     1      -0.084 -10.366  16.928  0.00  0.00    +0.210 HD
ENDBRANCH  10   2
BRANCH   4  12
ATOM     12  C   UNL     1      -3.207 -11.259  12.664  0.00  0.00    +0.120 C 
BRANCH  12  14
ATOM      1 CL   UNL     1      -6.424  -7.733   9.003  0.00  0.00    -0.084 Cl
ATOM     14  C   UNL     1      -4.013 -10.376  11.748  0.00  0.00    -0.033 A 
ATOM     15  C   UNL     1      -3.390  -9.725  10.684  0.00  0.00    +0.006 A 
ATOM     16  C   UNL     1      -5.381 -10.209  11.965  0.00  0.00    +0.006 A 
ATOM     18  C   UNL     1      -4.136  -8.907   9.834  0.00  0.00    +0.020 A 
ATOM     19  C   UNL     1      -6.126  -9.392  11.115  0.00  0.00    +0.020 A 
ATOM     21  C   UNL     1      -5.503  -8.741  10.050  0.00  0.00    +0.041 A 
ENDBRANCH  12  14
ENDBRANCH   4  12
TORSDOF 5
ENDMDL
MODEL 10
REMARK VINA RESULT:      -6.3     14.839     16.836
REMARK  Name = 26743958
REMARK  5 active torsions:
REMARK  status: ('A' for Active; 'I' for Inactive)
REMARK    1  A    between atoms: O_2  and  C_10
REMARK    2  A    between atoms: N_4  and  C_12
REMARK    3  A    between atoms: C_8  and  C_13
REMARK    4  A    between atoms: C_12  and  C_14
REMARK    5  A    between atoms: C_17  and  C_20
REMARK                            x       y       z     vdW  Elec       q    Type
REMARK                         _______ _______ _______ _____ _____    ______ ____
ROOT
ATOM      4  N   UNL     1      10.471   5.681   6.088  0.00  0.00    -0.285 NA
ATOM      8  C   UNL     1      10.270   6.822   7.005  0.00  0.00    +0.149 C 
ATOM      9  C   UNL     1      10.077   6.182   8.392  0.00  0.00    +0.061 C 
ATOM     10  C   UNL     1      10.142   4.680   8.147  0.00  0.00    +0.130 C 
ATOM     11  C   UNL     1       9.771   4.544   6.682  0.00  0.00    +0.116 C 
ENDROOT
BRANCH   8  13
ATOM      3  O   UNL     1      11.146   9.070   7.397  0.00  0.00    -0.336 OA
ATOM      5  N   UNL     1      12.653   7.629   6.578  0.00  0.00    -0.190 NA
ATOM      6  N   UNL     1      12.341   9.788   7.270  0.00  0.00    -0.056 NA
ATOM     13  C   UNL     1      11.417   7.809   6.968  0.00  0.00    +0.245 A 
ATOM     17  C   UNL     1      13.182   8.871   6.781  0.00  0.00    +0.204 A 
BRANCH  17  20
ATOM      7  N   UNL     1      16.345  10.785   6.385  0.00  0.00    -0.263 NA
ATOM     20  C   UNL     1      14.555   9.163   6.488  0.00  0.00    +0.041 A 
ATOM     22  C   UNL     1      15.419   8.170   6.039  0.00  0.00    +0.014 A 
ATOM     23  C   UNL     1      15.063  10.443   6.643  0.00  0.00    +0.122 A 
ATOM     24  C   UNL     1      16.746   8.483   5.762  0.00  0.00    +0.020 A 
ATOM     25  C   UNL     1      17.155   9.793   5.950  0.00  0.00    +0.111 A 
ENDBRANCH  17  20
ENDBRANCH   8  13
BRANCH  10   2
ATOM      2  O   UNL     1       9.231   3.995   8.985  0.00  0.00    -0.390 OA
ATOM     26  H   UNL     1       8.697   4.665   9.446  0.00  0.00    +0.210 HD
ENDBRANCH  10   2
BRANCH   4  12
ATOM     12  C   UNL     1      10.023   5.951   4.728  0.00  0.00    +0.120 C 
BRANCH  12  14
ATOM      1 CL   UNL     1      13.896   3.841   0.637  0.00  0.00    -0.084 Cl
ATOM     14  C   UNL     1      10.993   5.423   3.704  0.00  0.00    -0.033 A 
ATOM     15  C   UNL     1      10.844   4.129   3.206  0.00  0.00    +0.006 A 
ATOM     16  C   UNL     1      12.040   6.228   3.255  0.00  0.00    +0.006 A 
ATOM     18  C   UNL     1      11.742   3.640   2.257  0.00  0.00    +0.020 A 
ATOM     19  C   UNL     1      12.938   5.738   2.306  0.00  0.00    +0.020 A 
ATOM     21  C   UNL     1      12.788   4.444   1.807  0.00  0.00    +0.041 A 
ENDBRANCH  12  14
ENDBRANCH   4  12
TORSDOF 5
ENDMDL
