MODEL 1
REMARK VINA RESULT:      -7.1      0.000      0.000
REMARK  Name = 71694321
REMARK  5 active torsions:
REMARK  status: ('A' for Active; 'I' for Inactive)
REMARK    1  A    between atoms: O_6  and  C_24
REMARK    2  A    between atoms: O_6  and  C_25
REMARK    3  A    between atoms: C_10  and  C_13
REMARK    4  A    between atoms: C_15  and  C_19
REMARK    5  A    between atoms: C_16  and  C_18
REMARK                            x       y       z     vdW  Elec       q    Type
REMARK                         _______ _______ _______ _____ _____    ______ ____
ROOT
ATOM      8  N   UNL     1      15.068   8.088  20.562  0.00  0.00    -0.340 N 
ATOM      9  N   UNL     1      14.717   9.809  21.921  0.00  0.00    -0.238 NA
ATOM     13  C   UNL     1      14.168   8.997  21.045  0.00  0.00    +0.130 A 
ATOM     16  C   UNL     1      16.267   8.336  21.170  0.00  0.00    +0.066 A 
ATOM     17  C   UNL     1      16.026   9.402  22.003  0.00  0.00    +0.139 A 
ATOM     26  H   UNL     1      14.875   7.372  19.875  0.00  0.00    +0.167 HD
ENDROOT
BRANCH  13  10
ATOM      4  O   UNL     1      11.576  10.683  21.974  0.00  0.00    -0.376 OA
ATOM      5  O   UNL     1      12.340   6.362  19.622  0.00  0.00    -0.276 OA
ATOM      7  N   UNL     1      11.920   7.964  21.257  0.00  0.00    -0.287 N 
ATOM     10  C   UNL     1      12.718   9.005  20.576  0.00  0.00    +0.167 C 
ATOM     11  C   UNL     1      12.023  10.375  20.654  0.00  0.00    +0.190 C 
ATOM     12  C   UNL     1      11.339   8.348  22.550  0.00  0.00    +0.136 C 
ATOM     14  C   UNL     1      10.657   9.703  22.452  0.00  0.00    +0.179 C 
ATOM     15  C   UNL     1      11.850   6.680  20.709  0.00  0.00    +0.213 C 
ATOM     19  C   UNL     1      11.120   5.637  21.519  0.00  0.00    +0.109 C 
ENDBRANCH  13  10
BRANCH  16  18
ATOM     18  C   UNL     1      17.460   7.573  20.910  0.00  0.00    +0.000 A 
ATOM     20  C   UNL     1      18.680   7.980  21.450  0.00  0.00    +0.013 A 
ATOM     21  C   UNL     1      17.395   6.426  20.119  0.00  0.00    +0.013 A 
ATOM     22  C   UNL     1      19.835   7.240  21.198  0.00  0.00    +0.046 A 
ATOM     23  C   UNL     1      18.550   5.686  19.868  0.00  0.00    +0.046 A 
ATOM     24  C   UNL     1      19.771   6.093  20.407  0.00  0.00    +0.130 A 
BRANCH  24   6
ATOM      6  O   UNL     1      20.897   5.369  20.164  0.00  0.00    -0.406 OA
BRANCH   6  25
ATOM      1  F   UNL     1      20.628   3.198  20.829  0.00  0.00    -0.133 F 
ATOM      2  F   UNL     1      22.594   4.138  20.999  0.00  0.00    -0.133 F 
ATOM      3  F   UNL     1      20.997   4.746  22.361  0.00  0.00    -0.133 F 
ATOM     25  C   UNL     1      21.263   4.359  21.097  0.00  0.00    +0.575 C 
ENDBRANCH   6  25
ENDBRANCH  24   6
ENDBRANCH  16  18
TORSDOF 4
ENDMDL
MODEL 2
REMARK VINA RESULT:      -7.0      2.003      2.876
REMARK  Name = 71694321
REMARK  5 active torsions:
REMARK  status: ('A' for Active; 'I' for Inactive)
REMARK    1  A    between atoms: O_6  and  C_24
REMARK    2  A    between atoms: O_6  and  C_25
REMARK    3  A    between atoms: C_10  and  C_13
REMARK    4  A    between atoms: C_15  and  C_19
REMARK    5  A    between atoms: C_16  and  C_18
REMARK                            x       y       z     vdW  Elec       q    Type
REMARK                         _______ _______ _______ _____ _____    ______ ____
ROOT
ATOM      8  N   UNL     1      16.854   7.330  20.259  0.00  0.00    -0.340 N 
ATOM      9  N   UNL     1      15.813   6.301  18.589  0.00  0.00    -0.238 NA
ATOM     13  C   UNL     1      15.739   7.274  19.468  0.00  0.00    +0.130 A 
ATOM     16  C   UNL     1      17.691   6.327  19.857  0.00  0.00    +0.066 A 
ATOM     17  C   UNL     1      17.028   5.706  18.825  0.00  0.00    +0.139 A 
ATOM     26  H   UNL     1      17.016   7.990  21.007  0.00  0.00    +0.167 HD
ENDROOT
BRANCH  13  10
ATOM      4  O   UNL     1      15.354   9.870  21.351  0.00  0.00    -0.376 OA
ATOM      5  O   UNL     1      12.308   6.706  19.005  0.00  0.00    -0.276 OA
ATOM      7  N   UNL     1      13.598   7.768  20.625  0.00  0.00    -0.287 N 
ATOM     10  C   UNL     1      14.590   8.260  19.647  0.00  0.00    +0.167 C 
ATOM     11  C   UNL     1      15.022   9.700  19.972  0.00  0.00    +0.190 C 
ATOM     12  C   UNL     1      13.877   8.082  22.032  0.00  0.00    +0.136 C 
ATOM     14  C   UNL     1      14.250   9.547  22.193  0.00  0.00    +0.179 C 
ATOM     15  C   UNL     1      12.538   6.967  20.189  0.00  0.00    +0.213 C 
ATOM     19  C   UNL     1      11.634   6.401  21.256  0.00  0.00    +0.109 C 
ENDBRANCH  13  10
BRANCH  16  18
ATOM     18  C   UNL     1      18.973   6.075  20.462  0.00  0.00    +0.000 A 
ATOM     20  C   UNL     1      19.747   4.997  20.033  0.00  0.00    +0.013 A 
ATOM     21  C   UNL     1      19.440   6.909  21.478  0.00  0.00    +0.013 A 
ATOM     22  C   UNL     1      20.988   4.753  20.620  0.00  0.00    +0.046 A 
ATOM     23  C   UNL     1      20.682   6.665  22.064  0.00  0.00    +0.046 A 
ATOM     24  C   UNL     1      21.456   5.586  21.636  0.00  0.00    +0.130 A 
BRANCH  24   6
ATOM      6  O   UNL     1      22.669   5.350  22.206  0.00  0.00    -0.406 OA
BRANCH   6  25
ATOM      1  F   UNL     1      22.031   3.362  23.140  0.00  0.00    -0.133 F 
ATOM      2  F   UNL     1      24.013   4.171  23.583  0.00  0.00    -0.133 F 
ATOM      3  F   UNL     1      22.249   5.133  24.443  0.00  0.00    -0.133 F 
ATOM     25  C   UNL     1      22.723   4.503  23.348  0.00  0.00    +0.575 C 
ENDBRANCH   6  25
ENDBRANCH  24   6
ENDBRANCH  16  18
TORSDOF 4
ENDMDL
MODEL 3
REMARK VINA RESULT:      -6.9     17.730     19.411
REMARK  Name = 71694321
REMARK  5 active torsions:
REMARK  status: ('A' for Active; 'I' for Inactive)
REMARK    1  A    between atoms: O_6  and  C_24
REMARK    2  A    between atoms: O_6  and  C_25
REMARK    3  A    between atoms: C_10  and  C_13
REMARK    4  A    between atoms: C_15  and  C_19
REMARK    5  A    between atoms: C_16  and  C_18
REMARK                            x       y       z     vdW  Elec       q    Type
REMARK                         _______ _______ _______ _____ _____    ______ ____
ROOT
ATOM      8  N   UNL     1      11.720   4.761   3.137  0.00  0.00    -0.340 N 
ATOM      9  N   UNL     1      11.952   6.351   1.604  0.00  0.00    -0.238 NA
ATOM     13  C   UNL     1      12.147   5.081   1.878  0.00  0.00    +0.130 A 
ATOM     16  C   UNL     1      11.222   5.902   3.702  0.00  0.00    +0.066 A 
ATOM     17  C   UNL     1      11.375   6.869   2.737  0.00  0.00    +0.139 A 
ATOM     26  H   UNL     1      11.776   3.848   3.566  0.00  0.00    +0.167 HD
ENDROOT
BRANCH  13  10
ATOM      4  O   UNL     1      15.204   4.326   1.160  0.00  0.00    -0.376 OA
ATOM      5  O   UNL     1      10.782   3.686  -1.038  0.00  0.00    -0.276 OA
ATOM      7  N   UNL     1      12.867   4.521  -0.432  0.00  0.00    -0.287 N 
ATOM     10  C   UNL     1      12.763   4.032   0.959  0.00  0.00    +0.167 C 
ATOM     11  C   UNL     1      14.105   3.458   1.446  0.00  0.00    +0.190 C 
ATOM     12  C   UNL     1      14.079   5.286  -0.752  0.00  0.00    +0.136 C 
ATOM     14  C   UNL     1      15.319   4.570  -0.240  0.00  0.00    +0.179 C 
ATOM     15  C   UNL     1      11.798   4.329  -1.312  0.00  0.00    +0.213 C 
ATOM     19  C   UNL     1      11.924   4.959  -2.677  0.00  0.00    +0.109 C 
ENDBRANCH  13  10
BRANCH  16  18
ATOM     18  C   UNL     1      10.677   5.954   5.033  0.00  0.00    +0.000 A 
ATOM     20  C   UNL     1       9.309   5.771   5.235  0.00  0.00    +0.013 A 
ATOM     21  C   UNL     1      11.518   6.187   6.121  0.00  0.00    +0.013 A 
ATOM     22  C   UNL     1       8.781   5.821   6.525  0.00  0.00    +0.046 A 
ATOM     23  C   UNL     1      10.990   6.237   7.412  0.00  0.00    +0.046 A 
ATOM     24  C   UNL     1       9.622   6.055   7.614  0.00  0.00    +0.130 A 
BRANCH  24   6
ATOM      6  O   UNL     1       9.108   6.101   8.873  0.00  0.00    -0.406 OA
BRANCH   6  25
ATOM      1  F   UNL     1      10.314   5.038  10.500  0.00  0.00    -0.133 F 
ATOM      2  F   UNL     1       8.136   4.848  10.480  0.00  0.00    -0.133 F 
ATOM      3  F   UNL     1       9.312   3.825   8.948  0.00  0.00    -0.133 F 
ATOM     25  C   UNL     1       9.234   4.946   9.695  0.00  0.00    +0.575 C 
ENDBRANCH   6  25
ENDBRANCH  24   6
ENDBRANCH  16  18
TORSDOF 4
ENDMDL
MODEL 4
REMARK VINA RESULT:      -6.9      1.636      2.835
REMARK  Name = 71694321
REMARK  5 active torsions:
REMARK  status: ('A' for Active; 'I' for Inactive)
REMARK    1  A    between atoms: O_6  and  C_24
REMARK    2  A    between atoms: O_6  and  C_25
REMARK    3  A    between atoms: C_10  and  C_13
REMARK    4  A    between atoms: C_15  and  C_19
REMARK    5  A    between atoms: C_16  and  C_18
REMARK                            x       y       z     vdW  Elec       q    Type
REMARK                         _______ _______ _______ _____ _____    ______ ____
ROOT
ATOM      8  N   UNL     1      15.787   7.076  21.382  0.00  0.00    -0.340 N 
ATOM      9  N   UNL     1      14.601   6.888  19.515  0.00  0.00    -0.238 NA
ATOM     13  C   UNL     1      14.569   7.236  20.781  0.00  0.00    +0.130 A 
ATOM     16  C   UNL     1      16.649   6.595  20.437  0.00  0.00    +0.066 A 
ATOM     17  C   UNL     1      15.894   6.487  19.293  0.00  0.00    +0.139 A 
ATOM     26  H   UNL     1      15.998   7.272  22.351  0.00  0.00    +0.167 HD
ENDROOT
BRANCH  13  10
ATOM      4  O   UNL     1      11.387   7.075  20.253  0.00  0.00    -0.376 OA
ATOM      5  O   UNL     1      14.402  10.046  22.876  0.00  0.00    -0.276 OA
ATOM      7  N   UNL     1      13.057   9.161  21.196  0.00  0.00    -0.287 N 
ATOM     10  C   UNL     1      13.365   7.762  21.555  0.00  0.00    +0.167 C 
ATOM     11  C   UNL     1      12.109   6.879  21.470  0.00  0.00    +0.190 C 
ATOM     12  C   UNL     1      12.187   9.345  20.027  0.00  0.00    +0.136 C 
ATOM     14  C   UNL     1      10.973   8.432  20.111  0.00  0.00    +0.179 C 
ATOM     15  C   UNL     1      13.671  10.205  21.895  0.00  0.00    +0.213 C 
ATOM     19  C   UNL     1      13.404  11.603  21.396  0.00  0.00    +0.109 C 
ENDBRANCH  13  10
BRANCH  16  18
ATOM     18  C   UNL     1      18.034   6.303  20.704  0.00  0.00    +0.000 A 
ATOM     20  C   UNL     1      18.683   6.916  21.775  0.00  0.00    +0.013 A 
ATOM     21  C   UNL     1      18.725   5.406  19.889  0.00  0.00    +0.013 A 
ATOM     22  C   UNL     1      20.024   6.632  22.032  0.00  0.00    +0.046 A 
ATOM     23  C   UNL     1      20.066   5.121  20.147  0.00  0.00    +0.046 A 
ATOM     24  C   UNL     1      20.716   5.735  21.218  0.00  0.00    +0.130 A 
BRANCH  24   6
ATOM      6  O   UNL     1      22.024   5.456  21.471  0.00  0.00    -0.406 OA
BRANCH   6  25
ATOM      1  F   UNL     1      21.511   3.329  22.140  0.00  0.00    -0.133 F 
ATOM      2  F   UNL     1      23.597   3.982  22.140  0.00  0.00    -0.133 F 
ATOM      3  F   UNL     1      22.228   4.779  23.645  0.00  0.00    -0.133 F 
ATOM     25  C   UNL     1      22.324   4.385  22.359  0.00  0.00    +0.575 C 
ENDBRANCH   6  25
ENDBRANCH  24   6
ENDBRANCH  16  18
TORSDOF 4
ENDMDL
MODEL 5
REMARK VINA RESULT:      -6.8     17.577     19.345
REMARK  Name = 71694321
REMARK  5 active torsions:
REMARK  status: ('A' for Active; 'I' for Inactive)
REMARK    1  A    between atoms: O_6  and  C_24
REMARK    2  A    between atoms: O_6  and  C_25
REMARK    3  A    between atoms: C_10  and  C_13
REMARK    4  A    between atoms: C_15  and  C_19
REMARK    5  A    between atoms: C_16  and  C_18
REMARK                            x       y       z     vdW  Elec       q    Type
REMARK                         _______ _______ _______ _____ _____    ______ ____
ROOT
ATOM      8  N   UNL     1      11.559   5.305   2.650  0.00  0.00    -0.340 N 
ATOM      9  N   UNL     1      10.565   6.216   0.886  0.00  0.00    -0.238 NA
ATOM     13  C   UNL     1      11.564   5.465   1.292  0.00  0.00    +0.130 A 
ATOM     16  C   UNL     1      10.489   5.998   3.140  0.00  0.00    +0.066 A 
ATOM     17  C   UNL     1       9.890   6.552   2.033  0.00  0.00    +0.139 A 
ATOM     26  H   UNL     1      12.235   4.776   3.185  0.00  0.00    +0.167 HD
ENDROOT
BRANCH  13  10
ATOM      4  O   UNL     1      13.644   3.050   1.812  0.00  0.00    -0.376 OA
ATOM      5  O   UNL     1      13.416   6.924  -1.307  0.00  0.00    -0.276 OA
ATOM      7  N   UNL     1      13.917   5.547   0.500  0.00  0.00    -0.287 N 
ATOM     10  C   UNL     1      12.634   4.817   0.420  0.00  0.00    +0.167 C 
ATOM     11  C   UNL     1      12.838   3.312   0.663  0.00  0.00    +0.190 C 
ATOM     12  C   UNL     1      14.805   5.160   1.604  0.00  0.00    +0.136 C 
ATOM     14  C   UNL     1      14.933   3.647   1.686  0.00  0.00    +0.179 C 
ATOM     15  C   UNL     1      14.166   6.603  -0.381  0.00  0.00    +0.213 C 
ATOM     19  C   UNL     1      15.441   7.380  -0.164  0.00  0.00    +0.109 C 
ENDBRANCH  13  10
BRANCH  16  18
ATOM     18  C   UNL     1      10.158   6.060   4.540  0.00  0.00    +0.000 A 
ATOM     20  C   UNL     1       8.823   6.119   4.940  0.00  0.00    +0.013 A 
ATOM     21  C   UNL     1      11.174   6.062   5.496  0.00  0.00    +0.013 A 
ATOM     22  C   UNL     1       8.504   6.179   6.296  0.00  0.00    +0.046 A 
ATOM     23  C   UNL     1      10.855   6.121   6.852  0.00  0.00    +0.046 A 
ATOM     24  C   UNL     1       9.520   6.181   7.253  0.00  0.00    +0.130 A 
BRANCH  24   6
ATOM      6  O   UNL     1       9.208   6.236   8.576  0.00  0.00    -0.406 OA
BRANCH   6  25
ATOM      1  F   UNL     1       9.453   3.962   8.559  0.00  0.00    -0.133 F 
ATOM      2  F   UNL     1      10.474   5.141  10.091  0.00  0.00    -0.133 F 
ATOM      3  F   UNL     1       8.304   4.900  10.197  0.00  0.00    -0.133 F 
ATOM     25  C   UNL     1       9.344   5.050   9.351  0.00  0.00    +0.575 C 
ENDBRANCH   6  25
ENDBRANCH  24   6
ENDBRANCH  16  18
TORSDOF 4
ENDMDL
MODEL 6
REMARK VINA RESULT:      -6.7      1.887      2.431
REMARK  Name = 71694321
REMARK  5 active torsions:
REMARK  status: ('A' for Active; 'I' for Inactive)
REMARK    1  A    between atoms: O_6  and  C_24
REMARK    2  A    between atoms: O_6  and  C_25
REMARK    3  A    between atoms: C_10  and  C_13
REMARK    4  A    between atoms: C_15  and  C_19
REMARK    5  A    between atoms: C_16  and  C_18
REMARK                            x       y       z     vdW  Elec       q    Type
REMARK                         _______ _______ _______ _____ _____    ______ ____
ROOT
ATOM      8  N   UNL     1      15.498   8.625  20.216  0.00  0.00    -0.340 N 
ATOM      9  N   UNL     1      14.104   7.407  18.990  0.00  0.00    -0.238 NA
ATOM     13  C   UNL     1      14.266   8.544  19.627  0.00  0.00    +0.130 A 
ATOM     16  C   UNL     1      16.162   7.464  19.937  0.00  0.00    +0.066 A 
ATOM     17  C   UNL     1      15.282   6.728  19.179  0.00  0.00    +0.139 A 
ATOM     26  H   UNL     1      15.841   9.401  20.765  0.00  0.00    +0.167 HD
ENDROOT
BRANCH  13  10
ATOM      4  O   UNL     1      14.436  11.503  20.910  0.00  0.00    -0.376 OA
ATOM      5  O   UNL     1      10.769   8.325  19.798  0.00  0.00    -0.276 OA
ATOM      7  N   UNL     1      12.401   9.532  20.935  0.00  0.00    -0.287 N 
ATOM     10  C   UNL     1      13.257   9.681  19.740  0.00  0.00    +0.167 C 
ATOM     11  C   UNL     1      13.865  11.092  19.667  0.00  0.00    +0.190 C 
ATOM     12  C   UNL     1      12.937  10.095  22.180  0.00  0.00    +0.136 C 
ATOM     14  C   UNL     1      13.463  11.504  21.951  0.00  0.00    +0.179 C 
ATOM     15  C   UNL     1      11.215   8.796  20.846  0.00  0.00    +0.213 C 
ATOM     19  C   UNL     1      10.453   8.583  22.131  0.00  0.00    +0.109 C 
ENDBRANCH  13  10
BRANCH  16  18
ATOM     18  C   UNL     1      17.499   7.185  20.394  0.00  0.00    +0.000 A 
ATOM     20  C   UNL     1      18.122   8.049  21.294  0.00  0.00    +0.013 A 
ATOM     21  C   UNL     1      18.169   6.052  19.935  0.00  0.00    +0.013 A 
ATOM     22  C   UNL     1      19.417   7.779  21.736  0.00  0.00    +0.046 A 
ATOM     23  C   UNL     1      19.464   5.781  20.378  0.00  0.00    +0.046 A 
ATOM     24  C   UNL     1      20.088   6.645  21.278  0.00  0.00    +0.130 A 
BRANCH  24   6
ATOM      6  O   UNL     1      21.351   6.379  21.712  0.00  0.00    -0.406 OA
BRANCH   6  25
ATOM      1  F   UNL     1      23.546   6.974  21.475  0.00  0.00    -0.133 F 
ATOM      2  F   UNL     1      22.703   5.436  20.171  0.00  0.00    -0.133 F 
ATOM      3  F   UNL     1      22.113   7.521  19.884  0.00  0.00    -0.133 F 
ATOM     25  C   UNL     1      22.432   6.596  20.813  0.00  0.00    +0.575 C 
ENDBRANCH   6  25
ENDBRANCH  24   6
ENDBRANCH  16  18
TORSDOF 4
ENDMDL
MODEL 7
REMARK VINA RESULT:      -6.6      1.496      2.657
REMARK  Name = 71694321
REMARK  5 active torsions:
REMARK  status: ('A' for Active; 'I' for Inactive)
REMARK    1  A    between atoms: O_6  and  C_24
REMARK    2  A    between atoms: O_6  and  C_25
REMARK    3  A    between atoms: C_10  and  C_13
REMARK    4  A    between atoms: C_15  and  C_19
REMARK    5  A    between atoms: C_16  and  C_18
REMARK                            x       y       z     vdW  Elec       q    Type
REMARK                         _______ _______ _______ _____ _____    ______ ____
ROOT
ATOM      8  N   UNL     1      15.883   8.063  20.782  0.00  0.00    -0.340 N 
ATOM      9  N   UNL     1      15.762  10.091  21.678  0.00  0.00    -0.238 NA
ATOM     13  C   UNL     1      15.078   9.113  21.129  0.00  0.00    +0.130 A 
ATOM     16  C   UNL     1      17.161   8.394  21.132  0.00  0.00    +0.066 A 
ATOM     17  C   UNL     1      17.062   9.650  21.683  0.00  0.00    +0.139 A 
ATOM     26  H   UNL     1      15.579   7.207  20.339  0.00  0.00    +0.167 HD
ENDROOT
BRANCH  13  10
ATOM      4  O   UNL     1      12.911   6.718  21.153  0.00  0.00    -0.376 OA
ATOM      5  O   UNL     1      13.170  11.246  19.099  0.00  0.00    -0.276 OA
ATOM      7  N   UNL     1      13.266   8.946  19.439  0.00  0.00    -0.287 N 
ATOM     10  C   UNL     1      13.575   9.077  20.878  0.00  0.00    +0.167 C 
ATOM     11  C   UNL     1      12.808   8.031  21.706  0.00  0.00    +0.190 C 
ATOM     12  C   UNL     1      13.227   7.575  18.915  0.00  0.00    +0.136 C 
ATOM     14  C   UNL     1      12.402   6.676  19.823  0.00  0.00    +0.179 C 
ATOM     15  C   UNL     1      13.136  10.096  18.654  0.00  0.00    +0.213 C 
ATOM     19  C   UNL     1      12.942   9.886  17.173  0.00  0.00    +0.109 C 
ENDBRANCH  13  10
BRANCH  16  18
ATOM     18  C   UNL     1      18.291   7.528  20.919  0.00  0.00    +0.000 A 
ATOM     20  C   UNL     1      19.560   7.920  21.343  0.00  0.00    +0.013 A 
ATOM     21  C   UNL     1      18.115   6.296  20.289  0.00  0.00    +0.013 A 
ATOM     22  C   UNL     1      20.655   7.080  21.137  0.00  0.00    +0.046 A 
ATOM     23  C   UNL     1      19.209   5.456  20.083  0.00  0.00    +0.046 A 
ATOM     24  C   UNL     1      20.479   5.848  20.506  0.00  0.00    +0.130 A 
BRANCH  24   6
ATOM      6  O   UNL     1      21.546   5.026  20.308  0.00  0.00    -0.406 OA
BRANCH   6  25
ATOM      1  F   UNL     1      21.355   4.275  22.459  0.00  0.00    -0.133 F 
ATOM      2  F   UNL     1      20.974   2.900  20.804  0.00  0.00    -0.133 F 
ATOM      3  F   UNL     1      23.024   3.536  21.214  0.00  0.00    -0.133 F 
ATOM     25  C   UNL     1      21.737   3.941  21.208  0.00  0.00    +0.575 C 
ENDBRANCH   6  25
ENDBRANCH  24   6
ENDBRANCH  16  18
TORSDOF 4
ENDMDL
MODEL 8
REMARK VINA RESULT:      -6.6     17.380     18.988
REMARK  Name = 71694321
REMARK  5 active torsions:
REMARK  status: ('A' for Active; 'I' for Inactive)
REMARK    1  A    between atoms: O_6  and  C_24
REMARK    2  A    between atoms: O_6  and  C_25
REMARK    3  A    between atoms: C_10  and  C_13
REMARK    4  A    between atoms: C_15  and  C_19
REMARK    5  A    between atoms: C_16  and  C_18
REMARK                            x       y       z     vdW  Elec       q    Type
REMARK                         _______ _______ _______ _____ _____    ______ ____
ROOT
ATOM      8  N   UNL     1      12.161   5.847   3.594  0.00  0.00    -0.340 N 
ATOM      9  N   UNL     1      11.175   6.541   1.729  0.00  0.00    -0.238 NA
ATOM     13  C   UNL     1      12.273   6.035   2.244  0.00  0.00    +0.130 A 
ATOM     16  C   UNL     1      10.912   6.262   3.962  0.00  0.00    +0.066 A 
ATOM     17  C   UNL     1      10.322   6.686   2.794  0.00  0.00    +0.139 A 
ATOM     26  H   UNL     1      12.879   5.478   4.201  0.00  0.00    +0.167 HD
ENDROOT
BRANCH  13  10
ATOM      4  O   UNL     1      14.133   7.668   0.170  0.00  0.00    -0.376 OA
ATOM      5  O   UNL     1      13.345   2.861   1.200  0.00  0.00    -0.276 OA
ATOM      7  N   UNL     1      13.260   4.973   0.227  0.00  0.00    -0.287 N 
ATOM     10  C   UNL     1      13.551   5.673   1.496  0.00  0.00    +0.167 C 
ATOM     11  C   UNL     1      14.520   6.846   1.271  0.00  0.00    +0.190 C 
ATOM     12  C   UNL     1      13.010   5.835  -0.936  0.00  0.00    +0.136 C 
ATOM     14  C   UNL     1      14.073   6.917  -1.040  0.00  0.00    +0.179 C 
ATOM     15  C   UNL     1      13.135   3.581   0.220  0.00  0.00    +0.213 C 
ATOM     19  C   UNL     1      12.717   2.946  -1.083  0.00  0.00    +0.109 C 
ENDBRANCH  13  10
BRANCH  16  18
ATOM     18  C   UNL     1      10.428   6.215   5.317  0.00  0.00    +0.000 A 
ATOM     20  C   UNL     1      11.332   6.161   6.379  0.00  0.00    +0.013 A 
ATOM     21  C   UNL     1       9.056   6.223   5.568  0.00  0.00    +0.013 A 
ATOM     22  C   UNL     1      10.863   6.115   7.691  0.00  0.00    +0.046 A 
ATOM     23  C   UNL     1       8.587   6.179   6.881  0.00  0.00    +0.046 A 
ATOM     24  C   UNL     1       9.490   6.123   7.943  0.00  0.00    +0.130 A 
BRANCH  24   6
ATOM      6  O   UNL     1       9.033   6.082   9.224  0.00  0.00    -0.406 OA
BRANCH   6  25
ATOM      1  F   UNL     1       9.125   3.804   9.040  0.00  0.00    -0.133 F 
ATOM      2  F   UNL     1      10.165   4.792  10.690  0.00  0.00    -0.133 F 
ATOM      3  F   UNL     1       7.982   4.696  10.707  0.00  0.00    -0.133 F 
ATOM     25  C   UNL     1       9.060   4.835   9.909  0.00  0.00    +0.575 C 
ENDBRANCH   6  25
ENDBRANCH  24   6
ENDBRANCH  16  18
TORSDOF 4
ENDMDL
MODEL 9
REMARK VINA RESULT:      -6.5     17.190     18.806
REMARK  Name = 71694321
REMARK  5 active torsions:
REMARK  status: ('A' for Active; 'I' for Inactive)
REMARK    1  A    between atoms: O_6  and  C_24
REMARK    2  A    between atoms: O_6  and  C_25
REMARK    3  A    between atoms: C_10  and  C_13
REMARK    4  A    between atoms: C_15  and  C_19
REMARK    5  A    between atoms: C_16  and  C_18
REMARK                            x       y       z     vdW  Elec       q    Type
REMARK                         _______ _______ _______ _____ _____    ______ ____
ROOT
ATOM      8  N   UNL     1      11.918   6.161   3.056  0.00  0.00    -0.340 N 
ATOM      9  N   UNL     1      13.817   7.292   2.844  0.00  0.00    -0.238 NA
ATOM     13  C   UNL     1      12.920   6.564   2.217  0.00  0.00    +0.130 A 
ATOM     16  C   UNL     1      12.195   6.665   4.296  0.00  0.00    +0.066 A 
ATOM     17  C   UNL     1      13.371   7.359   4.140  0.00  0.00    +0.139 A 
ATOM     26  H   UNL     1      11.126   5.588   2.799  0.00  0.00    +0.167 HD
ENDROOT
BRANCH  13  10
ATOM      4  O   UNL     1      10.992   4.673   0.446  0.00  0.00    -0.376 OA
ATOM      5  O   UNL     1      15.668   6.338   0.048  0.00  0.00    -0.276 OA
ATOM      7  N   UNL     1      13.805   5.016   0.489  0.00  0.00    -0.287 N 
ATOM     10  C   UNL     1      12.925   6.176   0.744  0.00  0.00    +0.167 C 
ATOM     11  C   UNL     1      11.531   5.958   0.130  0.00  0.00    +0.190 C 
ATOM     12  C   UNL     1      13.191   3.695   0.673  0.00  0.00    +0.136 C 
ATOM     14  C   UNL     1      11.840   3.628  -0.023  0.00  0.00    +0.179 C 
ATOM     15  C   UNL     1      15.157   5.226   0.201  0.00  0.00    +0.213 C 
ATOM     19  C   UNL     1      16.020   3.996   0.072  0.00  0.00    +0.109 C 
ENDBRANCH  13  10
BRANCH  16  18
ATOM     18  C   UNL     1      11.356   6.447   5.446  0.00  0.00    +0.000 A 
ATOM     20  C   UNL     1      10.228   5.633   5.342  0.00  0.00    +0.013 A 
ATOM     21  C   UNL     1      11.672   7.051   6.663  0.00  0.00    +0.013 A 
ATOM     22  C   UNL     1       9.415   5.423   6.456  0.00  0.00    +0.046 A 
ATOM     23  C   UNL     1      10.859   6.840   7.777  0.00  0.00    +0.046 A 
ATOM     24  C   UNL     1       9.731   6.027   7.674  0.00  0.00    +0.130 A 
BRANCH  24   6
ATOM      6  O   UNL     1       8.940   5.819   8.761  0.00  0.00    -0.406 OA
BRANCH   6  25
ATOM      1  F   UNL     1       8.265   4.476  10.486  0.00  0.00    -0.133 F 
ATOM      2  F   UNL     1       9.584   3.664   8.944  0.00  0.00    -0.133 F 
ATOM      3  F   UNL     1      10.382   5.101  10.384  0.00  0.00    -0.133 F 
ATOM     25  C   UNL     1       9.291   4.774   9.660  0.00  0.00    +0.575 C 
ENDBRANCH   6  25
ENDBRANCH  24   6
ENDBRANCH  16  18
TORSDOF 4
ENDMDL
MODEL 10
REMARK VINA RESULT:      -6.5      4.722      8.469
REMARK  Name = 71694321
REMARK  5 active torsions:
REMARK  status: ('A' for Active; 'I' for Inactive)
REMARK    1  A    between atoms: O_6  and  C_24
REMARK    2  A    between atoms: O_6  and  C_25
REMARK    3  A    between atoms: C_10  and  C_13
REMARK    4  A    between atoms: C_15  and  C_19
REMARK    5  A    between atoms: C_16  and  C_18
REMARK                            x       y       z     vdW  Elec       q    Type
REMARK                         _______ _______ _______ _____ _____    ______ ____
ROOT
ATOM      8  N   UNL     1      18.142   6.963  21.843  0.00  0.00    -0.340 N 
ATOM      9  N   UNL     1      19.802   6.004  20.723  0.00  0.00    -0.238 NA
ATOM     13  C   UNL     1      19.469   6.634  21.828  0.00  0.00    +0.130 A 
ATOM     16  C   UNL     1      17.595   6.515  20.673  0.00  0.00    +0.066 A 
ATOM     17  C   UNL     1      18.639   5.927  19.999  0.00  0.00    +0.139 A 
ATOM     26  H   UNL     1      17.663   7.456  22.585  0.00  0.00    +0.167 HD
ENDROOT
BRANCH  13  10
ATOM      4  O   UNL     1      20.806   9.409  22.796  0.00  0.00    -0.376 OA
ATOM      5  O   UNL     1      21.806   4.575  23.443  0.00  0.00    -0.276 OA
ATOM      7  N   UNL     1      21.808   6.763  22.651  0.00  0.00    -0.287 N 
ATOM     10  C   UNL     1      20.388   6.987  22.992  0.00  0.00    +0.167 C 
ATOM     11  C   UNL     1      20.174   8.394  23.577  0.00  0.00    +0.190 C 
ATOM     12  C   UNL     1      22.489   7.878  21.981  0.00  0.00    +0.136 C 
ATOM     14  C   UNL     1      22.211   9.189  22.700  0.00  0.00    +0.179 C 
ATOM     15  C   UNL     1      22.382   5.509  22.880  0.00  0.00    +0.213 C 
ATOM     19  C   UNL     1      23.799   5.315  22.397  0.00  0.00    +0.109 C 
ENDBRANCH  13  10
BRANCH  16  18
ATOM     18  C   UNL     1      16.206   6.681  20.333  0.00  0.00    +0.000 A 
ATOM     20  C   UNL     1      15.242   6.732  21.339  0.00  0.00    +0.013 A 
ATOM     21  C   UNL     1      15.826   6.790  18.995  0.00  0.00    +0.013 A 
ATOM     22  C   UNL     1      13.897   6.894  21.008  0.00  0.00    +0.046 A 
ATOM     23  C   UNL     1      14.481   6.953  18.664  0.00  0.00    +0.046 A 
ATOM     24  C   UNL     1      13.516   7.003  19.670  0.00  0.00    +0.130 A 
BRANCH  24   6
ATOM      6  O   UNL     1      12.203   7.164  19.347  0.00  0.00    -0.406 OA
BRANCH   6  25
ATOM      1  F   UNL     1      12.585   9.409  19.555  0.00  0.00    -0.133 F 
ATOM      2  F   UNL     1      11.652   8.642  17.733  0.00  0.00    -0.133 F 
ATOM      3  F   UNL     1      10.502   8.672  19.591  0.00  0.00    -0.133 F 
ATOM     25  C   UNL     1      11.733   8.478  19.074  0.00  0.00    +0.575 C 
ENDBRANCH   6  25
ENDBRANCH  24   6
ENDBRANCH  16  18
TORSDOF 4
ENDMDL
