REMARK  Name = 40777710
REMARK  14 active torsions:
REMARK  status: ('A' for Active; 'I' for Inactive)
REMARK    1  A    between atoms: O_2  and  C_16
REMARK    2  A    between atoms: N_4  and  C_15
REMARK    3  A    between atoms: N_5  and  C_26
REMARK    4  A    between atoms: C_7  and  C_12
REMARK    5  A    between atoms: C_7  and  C_13
REMARK    6  A    between atoms: C_12  and  C_14
REMARK    7  A    between atoms: C_13  and  C_16
REMARK    8  A    between atoms: C_18  and  C_21
REMARK    9  A    between atoms: C_22  and  C_24
REMARK   10  A    between atoms: C_23  and  C_25
REMARK   11  A    between atoms: C_27  and  C_28
REMARK   12  A    between atoms: C_27  and  C_33
REMARK   13  A    between atoms: C_27  and  C_34
REMARK   14  A    between atoms: C_27  and  C_35
REMARK                            x       y       z     vdW  Elec       q    Type
REMARK                         _______ _______ _______ _____ _____    ______ ____
ROOT
ATOM     15  C   UNL     1      -2.045   1.015  -1.645  0.00  0.00    +0.097 C 
ATOM     17  C   UNL     1      -1.187   0.505  -0.481  0.00  0.00    +0.039 C 
ATOM     18  C   UNL     1      -0.558  -0.817  -0.968  0.00  0.00    +0.047 C 
ATOM     19  C   UNL     1      -1.454   0.316  -2.824  0.00  0.00    -0.009 C 
ATOM     20  C   UNL     1      -0.640  -0.681  -2.461  0.00  0.00    -0.021 C 
ENDROOT
BRANCH  18  21
ATOM      5  N   UNL     1       2.951  -0.876   0.081  0.00  0.00    -0.236 N 
ATOM      6  N   UNL     1       2.587  -2.036   0.653  0.00  0.00    -0.171 NA
ATOM     21  C   UNL     1       0.834  -1.050  -0.430  0.00  0.00    +0.003 A 
ATOM     22  C   UNL     1       1.937  -0.246  -0.580  0.00  0.00    +0.046 A 
ATOM     23  C   UNL     1       1.293  -2.137   0.338  0.00  0.00    +0.064 A 
ATOM     24  C   UNL     1       2.105   1.043  -1.282  0.00  0.00    +0.066 C 
ATOM     25  C   UNL     1       0.524  -3.307   0.799  0.00  0.00    +0.068 C 
BRANCH   5  26
ATOM     26  C   UNL     1       4.267  -0.428   0.200  0.00  0.00    +0.066 A 
ATOM     28  C   UNL     1       6.898   0.466   0.447  0.00  0.00    -0.042 A 
ATOM     29  C   UNL     1       5.316  -1.205  -0.291  0.00  0.00    +0.028 A 
ATOM     30  C   UNL     1       4.533   0.796   0.815  0.00  0.00    +0.028 A 
ATOM     31  C   UNL     1       6.632  -0.758  -0.167  0.00  0.00    +0.006 A 
ATOM     32  C   UNL     1       5.849   1.243   0.938  0.00  0.00    +0.006 A 
BRANCH  28  27
ATOM     27  C   UNL     1       8.305   0.943   0.579  0.00  0.00    -0.013 C 
ATOM     33  C   UNL     1       8.982   1.101  -0.818  0.00  0.00    +0.015 C 
ATOM     34  C   UNL     1       9.166  -0.059   1.409  0.00  0.00    +0.015 C 
ATOM     35  C   UNL     1       8.481   2.328   1.285  0.00  0.00    +0.015 C 
ENDBRANCH  28  27
ENDBRANCH   5  26
ENDBRANCH  18  21
BRANCH  15   4
ATOM      1  O   UNL     1      -4.171   2.576  -0.463  0.00  0.00    -0.276 OA
ATOM      4  N   UNL     1      -3.429   0.644  -1.520  0.00  0.00    -0.309 N 
ATOM     14  C   UNL     1      -4.384   1.462  -0.935  0.00  0.00    +0.214 C 
ATOM     36  H   UNL     1      -3.701  -0.283  -1.838  0.00  0.00    +0.149 HD
BRANCH  14  12
ATOM     12  C   UNL     1      -5.747   0.806  -0.949  0.00  0.00    +0.103 C 
BRANCH  12   7
ATOM      7  C   UNL     1      -6.302   0.596   0.461  0.00  0.00    -0.011 C 
ATOM      8  C   UNL     1      -6.453   1.925   1.213  0.00  0.00    +0.008 C 
ATOM      9  C   UNL     1      -7.752   0.091   0.428  0.00  0.00    +0.008 C 
ATOM     10  C   UNL     1      -7.504   1.656   2.288  0.00  0.00    +0.001 C 
ATOM     11  C   UNL     1      -8.337   0.477   1.785  0.00  0.00    +0.001 C 
BRANCH   7  13
ATOM     13  C   UNL     1      -5.389  -0.377   1.224  0.00  0.00    +0.127 C 
BRANCH  13  16
ATOM      3  O   UNL     1      -6.134  -2.456   0.191  0.00  0.00    -0.251 OA
ATOM     16  C   UNL     1      -5.241  -1.677   0.490  0.00  0.00    +0.305 C 
BRANCH  16   2
ATOM      2  O   UNL     1      -3.932  -1.879   0.190  0.00  0.00    -0.481 OA
ATOM     37  H   UNL     1      -3.792  -2.719  -0.296  0.00  0.00    +0.295 HD
ENDBRANCH  16   2
ENDBRANCH  13  16
ENDBRANCH   7  13
ENDBRANCH  12   7
ENDBRANCH  14  12
ENDBRANCH  15   4
TORSDOF 9
