MODEL 1
REMARK VINA RESULT:      -7.2      0.000      0.000
REMARK  Name = 11867430
REMARK  9 active torsions:
REMARK  status: ('A' for Active; 'I' for Inactive)
REMARK    1  A    between atoms: O_3  and  C_11
REMARK    2  A    between atoms: O_3  and  C_21
REMARK    3  A    between atoms: N_5  and  C_10
REMARK    4  A    between atoms: N_5  and  C_17
REMARK    5  A    between atoms: N_6  and  C_14
REMARK    6  A    between atoms: N_7  and  C_27
REMARK    7  A    between atoms: N_7  and  C_28
REMARK    8  A    between atoms: N_7  and  C_29
REMARK    9  A    between atoms: C_17  and  C_22
REMARK                            x       y       z     vdW  Elec       q    Type
REMARK                         _______ _______ _______ _____ _____    ______ ____
ROOT
ATOM      1  O   UNL     1     -16.540   2.186  23.703  0.00  0.00    -0.369 OA
ATOM      2  O   UNL     1     -16.967   4.801  25.225  0.00  0.00    -0.369 OA
ATOM      8  C   UNL     1     -15.829   4.305  24.486  0.00  0.00    +0.170 C 
ATOM      9  C   UNL     1     -15.761   2.812  24.738  0.00  0.00    +0.191 C 
ATOM     10  C   UNL     1     -16.089   4.419  23.000  0.00  0.00    +0.111 C 
ATOM     11  C   UNL     1     -16.421   2.679  26.089  0.00  0.00    +0.235 C 
ATOM     12  C   UNL     1     -16.927   3.176  22.736  0.00  0.00    +0.181 C 
ATOM     13  C   UNL     1     -17.503   3.733  26.021  0.00  0.00    +0.207 C 
ENDROOT
BRANCH  10   5
ATOM      5  N   UNL     1     -14.847   4.353  22.231  0.00  0.00    -0.305 NA
ATOM     30  H   UNL     1     -15.053   4.500  21.243  0.00  0.00    +0.123 HD
BRANCH   5  17
ATOM     17  C   UNL     1     -13.917   5.385  22.664  0.00  0.00    +0.116 C 
BRANCH  17  22
ATOM     22  C   UNL     1     -13.477   6.260  21.520  0.00  0.00    -0.033 A 
ATOM     23  C   UNL     1     -12.129   6.318  21.166  0.00  0.00    +0.007 A 
ATOM     24  C   UNL     1     -14.417   7.012  20.816  0.00  0.00    +0.007 A 
ATOM     25  C   UNL     1     -11.722   7.129  20.106  0.00  0.00    +0.023 A 
ATOM     26  C   UNL     1     -14.009   7.822  19.757  0.00  0.00    +0.023 A 
ATOM     27  C   UNL     1     -12.662   7.881  19.402  0.00  0.00    +0.029 A 
BRANCH  27   7
ATOM      7  N   UNL     1     -12.250   8.701  18.331  0.00  0.00    -0.336 N 
ATOM     28  C   UNL     1     -11.391   9.843  18.569  0.00  0.00    +0.129 C 
ATOM     29  C   UNL     1     -12.670   8.404  16.976  0.00  0.00    +0.129 C 
ENDBRANCH  27   7
ENDBRANCH  17  22
ENDBRANCH   5  17
ENDBRANCH  10   5
BRANCH  11   3
ATOM      3  O   UNL     1     -16.947   1.394  26.334  0.00  0.00    -0.442 OA
BRANCH   3  21
ATOM      4  O   UNL     1     -18.015   0.269  28.028  0.00  0.00    -0.226 OA
ATOM      6  N   UNL     1     -16.234   1.691  28.462  0.00  0.00    -0.278 N 
ATOM     21  C   UNL     1     -17.144   1.047  27.651  0.00  0.00    +0.401 C 
ATOM     31  H   UNL     1     -15.595   2.345  28.020  0.00  0.00    +0.152 HD
BRANCH   6  14
ATOM     14  C   UNL     1     -16.185   1.532  29.899  0.00  0.00    +0.076 C 
ATOM     15  C   UNL     1     -15.991   2.883  30.597  0.00  0.00    +0.022 C 
ATOM     16  C   UNL     1     -15.095   0.535  30.305  0.00  0.00    +0.022 C 
ATOM     18  C   UNL     1     -14.581   3.442  30.406  0.00  0.00    +0.002 C 
ATOM     19  C   UNL     1     -13.686   1.098  30.116  0.00  0.00    +0.002 C 
ATOM     20  C   UNL     1     -13.515   2.437  30.828  0.00  0.00    +0.000 C 
ENDBRANCH   6  14
ENDBRANCH   3  21
ENDBRANCH  11   3
TORSDOF 7
ENDMDL
MODEL 2
REMARK VINA RESULT:      -7.1      1.577      2.666
REMARK  Name = 11867430
REMARK  9 active torsions:
REMARK  status: ('A' for Active; 'I' for Inactive)
REMARK    1  A    between atoms: O_3  and  C_11
REMARK    2  A    between atoms: O_3  and  C_21
REMARK    3  A    between atoms: N_5  and  C_10
REMARK    4  A    between atoms: N_5  and  C_17
REMARK    5  A    between atoms: N_6  and  C_14
REMARK    6  A    between atoms: N_7  and  C_27
REMARK    7  A    between atoms: N_7  and  C_28
REMARK    8  A    between atoms: N_7  and  C_29
REMARK    9  A    between atoms: C_17  and  C_22
REMARK                            x       y       z     vdW  Elec       q    Type
REMARK                         _______ _______ _______ _____ _____    ______ ____
ROOT
ATOM      1  O   UNL     1     -14.157   4.863  23.693  0.00  0.00    -0.369 OA
ATOM      2  O   UNL     1     -16.639   3.880  22.209  0.00  0.00    -0.369 OA
ATOM      8  C   UNL     1     -16.150   5.215  22.464  0.00  0.00    +0.170 C 
ATOM      9  C   UNL     1     -15.546   5.201  23.854  0.00  0.00    +0.191 C 
ATOM     10  C   UNL     1     -14.980   5.519  21.554  0.00  0.00    +0.111 C 
ATOM     11  C   UNL     1     -16.313   4.090  24.531  0.00  0.00    +0.235 C 
ATOM     12  C   UNL     1     -13.830   4.850  22.294  0.00  0.00    +0.181 C 
ATOM     13  C   UNL     1     -16.501   3.099  23.405  0.00  0.00    +0.207 C 
ENDROOT
BRANCH  10   5
ATOM      5  N   UNL     1     -14.737   6.957  21.455  0.00  0.00    -0.305 NA
ATOM     30  H   UNL     1     -15.099   7.420  22.290  0.00  0.00    +0.123 HD
BRANCH   5  17
ATOM     17  C   UNL     1     -13.313   7.235  21.358  0.00  0.00    +0.116 C 
BRANCH  17  22
ATOM     22  C   UNL     1     -12.910   7.617  19.958  0.00  0.00    -0.033 A 
ATOM     23  C   UNL     1     -13.825   8.255  19.118  0.00  0.00    +0.007 A 
ATOM     24  C   UNL     1     -11.624   7.333  19.500  0.00  0.00    +0.007 A 
ATOM     25  C   UNL     1     -13.451   8.608  17.821  0.00  0.00    +0.023 A 
ATOM     26  C   UNL     1     -11.251   7.686  18.203  0.00  0.00    +0.023 A 
ATOM     27  C   UNL     1     -12.165   8.323  17.364  0.00  0.00    +0.029 A 
BRANCH  27   7
ATOM      7  N   UNL     1     -11.787   8.680  16.052  0.00  0.00    -0.336 N 
ATOM     28  C   UNL     1     -12.654   8.377  14.931  0.00  0.00    +0.129 C 
ATOM     29  C   UNL     1     -10.534   9.367  15.811  0.00  0.00    +0.129 C 
ENDBRANCH  27   7
ENDBRANCH  17  22
ENDBRANCH   5  17
ENDBRANCH  10   5
BRANCH  11   3
ATOM      3  O   UNL     1     -15.632   3.524  25.628  0.00  0.00    -0.442 OA
BRANCH   3  21
ATOM      4  O   UNL     1     -17.493   3.761  26.953  0.00  0.00    -0.226 OA
ATOM      6  N   UNL     1     -15.428   3.220  27.862  0.00  0.00    -0.278 N 
ATOM     21  C   UNL     1     -16.295   3.523  26.834  0.00  0.00    +0.401 C 
ATOM     31  H   UNL     1     -14.450   3.090  27.625  0.00  0.00    +0.152 HD
BRANCH   6  14
ATOM     14  C   UNL     1     -15.825   3.141  29.251  0.00  0.00    +0.076 C 
ATOM     15  C   UNL     1     -14.637   3.414  30.180  0.00  0.00    +0.022 C 
ATOM     16  C   UNL     1     -16.476   1.790  29.562  0.00  0.00    +0.022 C 
ATOM     18  C   UNL     1     -13.629   2.264  30.192  0.00  0.00    +0.002 C 
ATOM     19  C   UNL     1     -15.465   0.643  29.575  0.00  0.00    +0.002 C 
ATOM     20  C   UNL     1     -14.298   0.932  30.514  0.00  0.00    +0.000 C 
ENDBRANCH   6  14
ENDBRANCH   3  21
ENDBRANCH  11   3
TORSDOF 7
ENDMDL
MODEL 3
REMARK VINA RESULT:      -6.6     18.306     20.511
REMARK  Name = 11867430
REMARK  9 active torsions:
REMARK  status: ('A' for Active; 'I' for Inactive)
REMARK    1  A    between atoms: O_3  and  C_11
REMARK    2  A    between atoms: O_3  and  C_21
REMARK    3  A    between atoms: N_5  and  C_10
REMARK    4  A    between atoms: N_5  and  C_17
REMARK    5  A    between atoms: N_6  and  C_14
REMARK    6  A    between atoms: N_7  and  C_27
REMARK    7  A    between atoms: N_7  and  C_28
REMARK    8  A    between atoms: N_7  and  C_29
REMARK    9  A    between atoms: C_17  and  C_22
REMARK                            x       y       z     vdW  Elec       q    Type
REMARK                         _______ _______ _______ _____ _____    ______ ____
ROOT
ATOM      1  O   UNL     1      -5.616  -9.410  16.152  0.00  0.00    -0.369 OA
ATOM      2  O   UNL     1      -5.669 -12.442  16.528  0.00  0.00    -0.369 OA
ATOM      8  C   UNL     1      -5.973 -11.365  17.441  0.00  0.00    +0.170 C 
ATOM      9  C   UNL     1      -4.993 -10.248  17.142  0.00  0.00    +0.191 C 
ATOM     10  C   UNL     1      -7.324 -10.771  17.108  0.00  0.00    +0.111 C 
ATOM     11  C   UNL     1      -3.811 -10.996  16.573  0.00  0.00    +0.235 C 
ATOM     12  C   UNL     1      -6.976  -9.832  15.962  0.00  0.00    +0.181 C 
ATOM     13  C   UNL     1      -4.480 -12.108  15.796  0.00  0.00    +0.207 C 
ENDROOT
BRANCH  10   5
ATOM      5  N   UNL     1      -7.865 -10.006  18.230  0.00  0.00    -0.305 NA
ATOM     30  H   UNL     1      -7.799  -9.009  18.023  0.00  0.00    +0.123 HD
BRANCH   5  17
ATOM     17  C   UNL     1      -9.263 -10.337  18.455  0.00  0.00    +0.116 C 
BRANCH  17  22
ATOM     22  C   UNL     1     -10.187  -9.390  17.735  0.00  0.00    -0.033 A 
ATOM     23  C   UNL     1      -9.765  -8.094  17.439  0.00  0.00    +0.007 A 
ATOM     24  C   UNL     1     -11.465  -9.809  17.366  0.00  0.00    +0.007 A 
ATOM     25  C   UNL     1     -10.621  -7.217  16.772  0.00  0.00    +0.023 A 
ATOM     26  C   UNL     1     -12.321  -8.932  16.699  0.00  0.00    +0.023 A 
ATOM     27  C   UNL     1     -11.899  -7.636  16.403  0.00  0.00    +0.029 A 
BRANCH  27   7
ATOM      7  N   UNL     1     -12.764  -6.750  15.729  0.00  0.00    -0.336 N 
ATOM     28  C   UNL     1     -14.200  -6.852  15.902  0.00  0.00    +0.129 C 
ATOM     29  C   UNL     1     -12.229  -5.716  14.866  0.00  0.00    +0.129 C 
ENDBRANCH  27   7
ENDBRANCH  17  22
ENDBRANCH   5  17
ENDBRANCH  10   5
BRANCH  11   3
ATOM      3  O   UNL     1      -2.984 -10.201  15.754  0.00  0.00    -0.442 OA
BRANCH   3  21
ATOM      4  O   UNL     1      -1.362 -11.686  15.092  0.00  0.00    -0.226 OA
ATOM      6  N   UNL     1      -2.579 -10.462  13.541  0.00  0.00    -0.278 N 
ATOM     21  C   UNL     1      -2.226 -10.860  14.813  0.00  0.00    +0.401 C 
ATOM     31  H   UNL     1      -3.283  -9.735  13.458  0.00  0.00    +0.152 HD
BRANCH   6  14
ATOM     14  C   UNL     1      -1.963 -10.975  12.338  0.00  0.00    +0.076 C 
ATOM     15  C   UNL     1      -1.772  -9.865  11.299  0.00  0.00    +0.022 C 
ATOM     16  C   UNL     1      -2.768 -12.144  11.762  0.00  0.00    +0.022 C 
ATOM     18  C   UNL     1      -3.094  -9.417  10.674  0.00  0.00    +0.002 C 
ATOM     19  C   UNL     1      -4.088 -11.693  11.136  0.00  0.00    +0.002 C 
ATOM     20  C   UNL     1      -3.872 -10.595  10.098  0.00  0.00    +0.000 C 
ENDBRANCH   6  14
ENDBRANCH   3  21
ENDBRANCH  11   3
TORSDOF 7
ENDMDL
MODEL 4
REMARK VINA RESULT:      -6.5     20.826     23.527
REMARK  Name = 11867430
REMARK  9 active torsions:
REMARK  status: ('A' for Active; 'I' for Inactive)
REMARK    1  A    between atoms: O_3  and  C_11
REMARK    2  A    between atoms: O_3  and  C_21
REMARK    3  A    between atoms: N_5  and  C_10
REMARK    4  A    between atoms: N_5  and  C_17
REMARK    5  A    between atoms: N_6  and  C_14
REMARK    6  A    between atoms: N_7  and  C_27
REMARK    7  A    between atoms: N_7  and  C_28
REMARK    8  A    between atoms: N_7  and  C_29
REMARK    9  A    between atoms: C_17  and  C_22
REMARK                            x       y       z     vdW  Elec       q    Type
REMARK                         _______ _______ _______ _____ _____    ______ ____
ROOT
ATOM      1  O   UNL     1      -3.019 -12.391  12.564  0.00  0.00    -0.369 OA
ATOM      2  O   UNL     1      -1.324  -9.879  12.949  0.00  0.00    -0.369 OA
ATOM      8  C   UNL     1      -2.403 -10.427  13.737  0.00  0.00    +0.170 C 
ATOM      9  C   UNL     1      -3.400 -11.018  12.760  0.00  0.00    +0.191 C 
ATOM     10  C   UNL     1      -1.910 -11.620  14.527  0.00  0.00    +0.111 C 
ATOM     11  C   UNL     1      -3.167 -10.192  11.517  0.00  0.00    +0.235 C 
ATOM     12  C   UNL     1      -1.973 -12.729  13.488  0.00  0.00    +0.181 C 
ATOM     13  C   UNL     1      -1.672  -9.968  11.559  0.00  0.00    +0.207 C 
ENDROOT
BRANCH  10   5
ATOM      5  N   UNL     1      -2.804 -11.931  15.641  0.00  0.00    -0.305 NA
ATOM     30  H   UNL     1      -2.407 -12.695  16.190  0.00  0.00    +0.123 HD
BRANCH   5  17
ATOM     17  C   UNL     1      -2.967 -10.776  16.511  0.00  0.00    +0.116 C 
BRANCH  17  22
ATOM     22  C   UNL     1      -4.403 -10.582  16.922  0.00  0.00    -0.033 A 
ATOM     23  C   UNL     1      -5.280  -9.887  16.088  0.00  0.00    +0.007 A 
ATOM     24  C   UNL     1      -4.856 -11.096  18.137  0.00  0.00    +0.007 A 
ATOM     25  C   UNL     1      -6.609  -9.708  16.470  0.00  0.00    +0.023 A 
ATOM     26  C   UNL     1      -6.185 -10.916  18.518  0.00  0.00    +0.023 A 
ATOM     27  C   UNL     1      -7.062 -10.222  17.685  0.00  0.00    +0.029 A 
BRANCH  27   7
ATOM      7  N   UNL     1      -8.406 -10.040  18.071  0.00  0.00    -0.336 N 
ATOM     28  C   UNL     1      -9.236  -9.058  17.401  0.00  0.00    +0.129 C 
ATOM     29  C   UNL     1      -8.980 -10.842  19.133  0.00  0.00    +0.129 C 
ENDBRANCH  27   7
ENDBRANCH  17  22
ENDBRANCH   5  17
ENDBRANCH  10   5
BRANCH  11   3
ATOM      3  O   UNL     1      -3.574 -10.836  10.331  0.00  0.00    -0.442 OA
BRANCH   3  21
ATOM      4  O   UNL     1      -3.942  -8.811   9.310  0.00  0.00    -0.226 OA
ATOM      6  N   UNL     1      -4.721 -10.789   8.379  0.00  0.00    -0.278 N 
ATOM     21  C   UNL     1      -4.072 -10.031   9.331  0.00  0.00    +0.401 C 
ATOM     31  H   UNL     1      -4.791 -11.788   8.545  0.00  0.00    +0.152 HD
BRANCH   6  14
ATOM     14  C   UNL     1      -5.351 -10.233   7.202  0.00  0.00    +0.076 C 
ATOM     15  C   UNL     1      -6.847 -10.000   7.435  0.00  0.00    +0.022 C 
ATOM     16  C   UNL     1      -5.110 -11.121   5.977  0.00  0.00    +0.022 C 
ATOM     18  C   UNL     1      -7.640 -11.306   7.491  0.00  0.00    +0.002 C 
ATOM     19  C   UNL     1      -5.906 -12.425   6.034  0.00  0.00    +0.002 C 
ATOM     20  C   UNL     1      -7.394 -12.167   6.257  0.00  0.00    +0.000 C 
ENDBRANCH   6  14
ENDBRANCH   3  21
ENDBRANCH  11   3
TORSDOF 7
ENDMDL
MODEL 5
REMARK VINA RESULT:      -6.5     18.099     20.170
REMARK  Name = 11867430
REMARK  9 active torsions:
REMARK  status: ('A' for Active; 'I' for Inactive)
REMARK    1  A    between atoms: O_3  and  C_11
REMARK    2  A    between atoms: O_3  and  C_21
REMARK    3  A    between atoms: N_5  and  C_10
REMARK    4  A    between atoms: N_5  and  C_17
REMARK    5  A    between atoms: N_6  and  C_14
REMARK    6  A    between atoms: N_7  and  C_27
REMARK    7  A    between atoms: N_7  and  C_28
REMARK    8  A    between atoms: N_7  and  C_29
REMARK    9  A    between atoms: C_17  and  C_22
REMARK                            x       y       z     vdW  Elec       q    Type
REMARK                         _______ _______ _______ _____ _____    ______ ____
ROOT
ATOM      1  O   UNL     1      -7.267 -11.648  17.380  0.00  0.00    -0.369 OA
ATOM      2  O   UNL     1      -5.299 -11.760  19.714  0.00  0.00    -0.369 OA
ATOM      8  C   UNL     1      -6.348 -10.819  19.399  0.00  0.00    +0.170 C 
ATOM      9  C   UNL     1      -6.355 -10.660  17.892  0.00  0.00    +0.191 C 
ATOM     10  C   UNL     1      -7.698 -11.427  19.713  0.00  0.00    +0.111 C 
ATOM     11  C   UNL     1      -4.926 -10.978  17.524  0.00  0.00    +0.235 C 
ATOM     12  C   UNL     1      -7.952 -12.275  18.475  0.00  0.00    +0.181 C 
ATOM     13  C   UNL     1      -4.577 -12.069  18.512  0.00  0.00    +0.207 C 
ENDROOT
BRANCH  10   5
ATOM      5  N   UNL     1      -8.733 -10.401  19.834  0.00  0.00    -0.305 NA
ATOM     30  H   UNL     1      -8.426  -9.553  19.356  0.00  0.00    +0.123 HD
BRANCH   5  17
ATOM     17  C   UNL     1      -9.976 -10.847  19.226  0.00  0.00    +0.116 C 
BRANCH  17  22
ATOM     22  C   UNL     1     -10.580  -9.788  18.341  0.00  0.00    -0.033 A 
ATOM     23  C   UNL     1     -11.948  -9.807  18.065  0.00  0.00    +0.007 A 
ATOM     24  C   UNL     1      -9.772  -8.790  17.798  0.00  0.00    +0.007 A 
ATOM     25  C   UNL     1     -12.506  -8.826  17.245  0.00  0.00    +0.023 A 
ATOM     26  C   UNL     1     -10.331  -7.810  16.978  0.00  0.00    +0.023 A 
ATOM     27  C   UNL     1     -11.698  -7.827  16.702  0.00  0.00    +0.029 A 
BRANCH  27   7
ATOM      7  N   UNL     1     -12.262  -6.836  15.873  0.00  0.00    -0.336 N 
ATOM     28  C   UNL     1     -13.701  -6.732  15.728  0.00  0.00    +0.129 C 
ATOM     29  C   UNL     1     -11.412  -5.900  15.165  0.00  0.00    +0.129 C 
ENDBRANCH  27   7
ENDBRANCH  17  22
ENDBRANCH   5  17
ENDBRANCH  10   5
BRANCH  11   3
ATOM      3  O   UNL     1      -4.770 -11.402  16.189  0.00  0.00    -0.442 OA
BRANCH   3  21
ATOM      4  O   UNL     1      -2.626 -10.579  16.161  0.00  0.00    -0.226 OA
ATOM      6  N   UNL     1      -3.496 -11.734  14.346  0.00  0.00    -0.278 N 
ATOM     21  C   UNL     1      -3.541 -11.183  15.610  0.00  0.00    +0.401 C 
ATOM     31  H   UNL     1      -4.344 -12.168  13.996  0.00  0.00    +0.152 HD
BRANCH   6  14
ATOM     14  C   UNL     1      -2.338 -11.670  13.483  0.00  0.00    +0.076 C 
ATOM     15  C   UNL     1      -2.323 -10.368  12.675  0.00  0.00    +0.022 C 
ATOM     16  C   UNL     1      -2.267 -12.895  12.565  0.00  0.00    +0.022 C 
ATOM     18  C   UNL     1      -3.392 -10.347  11.582  0.00  0.00    +0.002 C 
ATOM     19  C   UNL     1      -3.336 -12.869  11.472  0.00  0.00    +0.002 C 
ATOM     20  C   UNL     1      -3.295 -11.569  10.675  0.00  0.00    +0.000 C 
ENDBRANCH   6  14
ENDBRANCH   3  21
ENDBRANCH  11   3
TORSDOF 7
ENDMDL
MODEL 6
REMARK VINA RESULT:      -6.5     16.142     18.419
REMARK  Name = 11867430
REMARK  9 active torsions:
REMARK  status: ('A' for Active; 'I' for Inactive)
REMARK    1  A    between atoms: O_3  and  C_11
REMARK    2  A    between atoms: O_3  and  C_21
REMARK    3  A    between atoms: N_5  and  C_10
REMARK    4  A    between atoms: N_5  and  C_17
REMARK    5  A    between atoms: N_6  and  C_14
REMARK    6  A    between atoms: N_7  and  C_27
REMARK    7  A    between atoms: N_7  and  C_28
REMARK    8  A    between atoms: N_7  and  C_29
REMARK    9  A    between atoms: C_17  and  C_22
REMARK                            x       y       z     vdW  Elec       q    Type
REMARK                         _______ _______ _______ _____ _____    ______ ____
ROOT
ATOM      1  O   UNL     1     -10.946  -7.968  17.658  0.00  0.00    -0.369 OA
ATOM      2  O   UNL     1     -10.391  -9.218  14.927  0.00  0.00    -0.369 OA
ATOM      8  C   UNL     1      -9.510  -8.578  15.876  0.00  0.00    +0.170 C 
ATOM      9  C   UNL     1     -10.291  -7.435  16.494  0.00  0.00    +0.191 C 
ATOM     10  C   UNL     1      -9.238  -9.510  17.037  0.00  0.00    +0.111 C 
ATOM     11  C   UNL     1     -11.281  -7.092  15.406  0.00  0.00    +0.235 C 
ATOM     12  C   UNL     1     -10.477  -9.304  17.897  0.00  0.00    +0.181 C 
ATOM     13  C   UNL     1     -11.599  -8.450  14.824  0.00  0.00    +0.207 C 
ENDROOT
BRANCH  10   5
ATOM      5  N   UNL     1      -8.045  -9.107  17.779  0.00  0.00    -0.305 NA
ATOM     30  H   UNL     1      -8.323  -8.576  18.605  0.00  0.00    +0.123 HD
BRANCH   5  17
ATOM     17  C   UNL     1      -7.290 -10.272  18.215  0.00  0.00    +0.116 C 
BRANCH  17  22
ATOM     22  C   UNL     1      -6.025 -10.451  17.416  0.00  0.00    -0.033 A 
ATOM     23  C   UNL     1      -6.005 -10.128  16.059  0.00  0.00    +0.007 A 
ATOM     24  C   UNL     1      -4.875 -10.942  18.034  0.00  0.00    +0.007 A 
ATOM     25  C   UNL     1      -4.834 -10.294  15.320  0.00  0.00    +0.023 A 
ATOM     26  C   UNL     1      -3.704 -11.108  17.294  0.00  0.00    +0.023 A 
ATOM     27  C   UNL     1      -3.683 -10.785  15.938  0.00  0.00    +0.029 A 
BRANCH  27   7
ATOM      7  N   UNL     1      -2.499 -10.954  15.190  0.00  0.00    -0.336 N 
ATOM     28  C   UNL     1      -1.211 -10.642  15.776  0.00  0.00    +0.129 C 
ATOM     29  C   UNL     1      -2.555 -11.455  13.831  0.00  0.00    +0.129 C 
ENDBRANCH  27   7
ENDBRANCH  17  22
ENDBRANCH   5  17
ENDBRANCH  10   5
BRANCH  11   3
ATOM      3  O   UNL     1     -12.434  -6.435  15.883  0.00  0.00    -0.442 OA
BRANCH   3  21
ATOM      4  O   UNL     1     -14.571  -6.667  15.075  0.00  0.00    -0.226 OA
ATOM      6  N   UNL     1     -12.986  -5.404  13.944  0.00  0.00    -0.278 N 
ATOM     21  C   UNL     1     -13.438  -6.208  14.970  0.00  0.00    +0.401 C 
ATOM     31  H   UNL     1     -12.008  -5.132  13.960  0.00  0.00    +0.152 HD
BRANCH   6  14
ATOM     14  C   UNL     1     -13.808  -4.986  12.830  0.00  0.00    +0.076 C 
ATOM     15  C   UNL     1     -13.611  -5.910  11.623  0.00  0.00    +0.022 C 
ATOM     16  C   UNL     1     -13.534  -3.525  12.462  0.00  0.00    +0.022 C 
ATOM     18  C   UNL     1     -12.250  -5.717  10.955  0.00  0.00    +0.002 C 
ATOM     19  C   UNL     1     -12.173  -3.335  11.791  0.00  0.00    +0.002 C 
ATOM     20  C   UNL     1     -12.005  -4.257  10.587  0.00  0.00    +0.000 C 
ENDBRANCH   6  14
ENDBRANCH   3  21
ENDBRANCH  11   3
TORSDOF 7
ENDMDL
MODEL 7
REMARK VINA RESULT:      -6.5     18.817     21.379
REMARK  Name = 11867430
REMARK  9 active torsions:
REMARK  status: ('A' for Active; 'I' for Inactive)
REMARK    1  A    between atoms: O_3  and  C_11
REMARK    2  A    between atoms: O_3  and  C_21
REMARK    3  A    between atoms: N_5  and  C_10
REMARK    4  A    between atoms: N_5  and  C_17
REMARK    5  A    between atoms: N_6  and  C_14
REMARK    6  A    between atoms: N_7  and  C_27
REMARK    7  A    between atoms: N_7  and  C_28
REMARK    8  A    between atoms: N_7  and  C_29
REMARK    9  A    between atoms: C_17  and  C_22
REMARK                            x       y       z     vdW  Elec       q    Type
REMARK                         _______ _______ _______ _____ _____    ______ ____
ROOT
ATOM      1  O   UNL     1      -8.988  -7.940   9.155  0.00  0.00    -0.369 OA
ATOM      2  O   UNL     1      -9.172  -7.360   6.162  0.00  0.00    -0.369 OA
ATOM      8  C   UNL     1      -8.075  -7.223   7.091  0.00  0.00    +0.170 C 
ATOM      9  C   UNL     1      -8.670  -6.756   8.404  0.00  0.00    +0.191 C 
ATOM     10  C   UNL     1      -7.497  -8.585   7.410  0.00  0.00    +0.111 C 
ATOM     11  C   UNL     1      -9.916  -6.029   7.957  0.00  0.00    +0.235 C 
ATOM     12  C   UNL     1      -8.463  -9.090   8.472  0.00  0.00    +0.181 C 
ATOM     13  C   UNL     1     -10.369  -6.867   6.782  0.00  0.00    +0.207 C 
ENDROOT
BRANCH  10   5
ATOM      5  N   UNL     1      -6.152  -8.478   7.973  0.00  0.00    -0.305 NA
ATOM     30  H   UNL     1      -6.217  -8.337   8.982  0.00  0.00    +0.123 HD
BRANCH   5  17
ATOM     17  C   UNL     1      -5.391  -9.693   7.727  0.00  0.00    +0.116 C 
BRANCH  17  22
ATOM     22  C   UNL     1      -4.601 -10.115   8.938  0.00  0.00    -0.033 A 
ATOM     23  C   UNL     1      -4.689 -11.427   9.406  0.00  0.00    +0.007 A 
ATOM     24  C   UNL     1      -3.782  -9.195   9.591  0.00  0.00    +0.007 A 
ATOM     25  C   UNL     1      -3.957 -11.817  10.527  0.00  0.00    +0.023 A 
ATOM     26  C   UNL     1      -3.051  -9.585  10.713  0.00  0.00    +0.023 A 
ATOM     27  C   UNL     1      -3.138 -10.896  11.181  0.00  0.00    +0.029 A 
BRANCH  27   7
ATOM      7  N   UNL     1      -2.398 -11.291  12.315  0.00  0.00    -0.336 N 
ATOM     28  C   UNL     1      -1.832 -10.297  13.204  0.00  0.00    +0.129 C 
ATOM     29  C   UNL     1      -2.207 -12.696  12.614  0.00  0.00    +0.129 C 
ENDBRANCH  27   7
ENDBRANCH  17  22
ENDBRANCH   5  17
ENDBRANCH  10   5
BRANCH  11   3
ATOM      3  O   UNL     1     -10.904  -5.940   8.958  0.00  0.00    -0.442 OA
BRANCH   3  21
ATOM      4  O   UNL     1     -10.479  -3.698   9.214  0.00  0.00    -0.226 OA
ATOM      6  N   UNL     1     -12.277  -4.711  10.274  0.00  0.00    -0.278 N 
ATOM     21  C   UNL     1     -11.161  -4.686   9.463  0.00  0.00    +0.401 C 
ATOM     31  H   UNL     1     -12.721  -5.610  10.429  0.00  0.00    +0.152 HD
BRANCH   6  14
ATOM     14  C   UNL     1     -12.802  -3.547  10.953  0.00  0.00    +0.076 C 
ATOM     15  C   UNL     1     -12.332  -3.500  12.410  0.00  0.00    +0.022 C 
ATOM     16  C   UNL     1     -14.330  -3.498  10.859  0.00  0.00    +0.022 C 
ATOM     18  C   UNL     1     -13.009  -4.563  13.277  0.00  0.00    +0.002 C 
ATOM     19  C   UNL     1     -15.004  -4.560  11.729  0.00  0.00    +0.002 C 
ATOM     20  C   UNL     1     -14.528  -4.487  13.177  0.00  0.00    +0.000 C 
ENDBRANCH   6  14
ENDBRANCH   3  21
ENDBRANCH  11   3
TORSDOF 7
ENDMDL
MODEL 8
REMARK VINA RESULT:      -6.4     19.433     21.719
REMARK  Name = 11867430
REMARK  9 active torsions:
REMARK  status: ('A' for Active; 'I' for Inactive)
REMARK    1  A    between atoms: O_3  and  C_11
REMARK    2  A    between atoms: O_3  and  C_21
REMARK    3  A    between atoms: N_5  and  C_10
REMARK    4  A    between atoms: N_5  and  C_17
REMARK    5  A    between atoms: N_6  and  C_14
REMARK    6  A    between atoms: N_7  and  C_27
REMARK    7  A    between atoms: N_7  and  C_28
REMARK    8  A    between atoms: N_7  and  C_29
REMARK    9  A    between atoms: C_17  and  C_22
REMARK                            x       y       z     vdW  Elec       q    Type
REMARK                         _______ _______ _______ _____ _____    ______ ____
ROOT
ATOM      1  O   UNL     1      -4.006 -12.439  14.238  0.00  0.00    -0.369 OA
ATOM      2  O   UNL     1      -2.452 -10.978  16.426  0.00  0.00    -0.369 OA
ATOM      8  C   UNL     1      -3.823 -10.853  15.987  0.00  0.00    +0.170 C 
ATOM      9  C   UNL     1      -3.818 -11.034  14.483  0.00  0.00    +0.191 C 
ATOM     10  C   UNL     1      -4.637 -12.021  16.498  0.00  0.00    +0.111 C 
ATOM     11  C   UNL     1      -2.427 -10.584  14.105  0.00  0.00    +0.235 C 
ATOM     12  C   UNL     1      -4.305 -13.100  15.477  0.00  0.00    +0.181 C 
ATOM     13  C   UNL     1      -1.603 -11.078  15.272  0.00  0.00    +0.207 C 
ENDROOT
BRANCH  10   5
ATOM      5  N   UNL     1      -6.070 -11.731  16.467  0.00  0.00    -0.305 NA
ATOM     30  H   UNL     1      -6.581 -12.505  16.891  0.00  0.00    +0.123 HD
BRANCH   5  17
ATOM     17  C   UNL     1      -6.368 -10.519  17.214  0.00  0.00    +0.116 C 
BRANCH  17  22
ATOM     22  C   UNL     1      -7.558  -9.790  16.649  0.00  0.00    -0.033 A 
ATOM     23  C   UNL     1      -7.879  -9.920  15.298  0.00  0.00    +0.007 A 
ATOM     24  C   UNL     1      -8.338  -8.983  17.477  0.00  0.00    +0.007 A 
ATOM     25  C   UNL     1      -8.982  -9.244  14.775  0.00  0.00    +0.023 A 
ATOM     26  C   UNL     1      -9.441  -8.307  16.954  0.00  0.00    +0.023 A 
ATOM     27  C   UNL     1      -9.763  -8.438  15.603  0.00  0.00    +0.029 A 
BRANCH  27   7
ATOM      7  N   UNL     1     -10.877  -7.754  15.075  0.00  0.00    -0.336 N 
ATOM     28  C   UNL     1     -11.057  -6.338  15.326  0.00  0.00    +0.129 C 
ATOM     29  C   UNL     1     -11.850  -8.456  14.261  0.00  0.00    +0.129 C 
ENDBRANCH  27   7
ENDBRANCH  17  22
ENDBRANCH   5  17
ENDBRANCH  10   5
BRANCH  11   3
ATOM      3  O   UNL     1      -1.979 -11.114  12.878  0.00  0.00    -0.442 OA
BRANCH   3  21
ATOM      4  O   UNL     1      -1.179  -9.488  11.467  0.00  0.00    -0.226 OA
ATOM      6  N   UNL     1      -3.242 -10.486  11.106  0.00  0.00    -0.278 N 
ATOM     21  C   UNL     1      -2.056 -10.286  11.781  0.00  0.00    +0.401 C 
ATOM     31  H   UNL     1      -3.900 -11.149  11.505  0.00  0.00    +0.152 HD
BRANCH   6  14
ATOM     14  C   UNL     1      -3.618  -9.765   9.910  0.00  0.00    +0.076 C 
ATOM     15  C   UNL     1      -4.450  -8.525  10.253  0.00  0.00    +0.022 C 
ATOM     16  C   UNL     1      -4.357 -10.677   8.926  0.00  0.00    +0.022 C 
ATOM     18  C   UNL     1      -5.861  -8.881  10.726  0.00  0.00    +0.002 C 
ATOM     19  C   UNL     1      -5.767 -11.029   9.401  0.00  0.00    +0.002 C 
ATOM     20  C   UNL     1      -6.580  -9.779   9.726  0.00  0.00    +0.000 C 
ENDBRANCH   6  14
ENDBRANCH   3  21
ENDBRANCH  11   3
TORSDOF 7
ENDMDL
MODEL 9
REMARK VINA RESULT:      -6.3     18.554     19.757
REMARK  Name = 11867430
REMARK  9 active torsions:
REMARK  status: ('A' for Active; 'I' for Inactive)
REMARK    1  A    between atoms: O_3  and  C_11
REMARK    2  A    between atoms: O_3  and  C_21
REMARK    3  A    between atoms: N_5  and  C_10
REMARK    4  A    between atoms: N_5  and  C_17
REMARK    5  A    between atoms: N_6  and  C_14
REMARK    6  A    between atoms: N_7  and  C_27
REMARK    7  A    between atoms: N_7  and  C_28
REMARK    8  A    between atoms: N_7  and  C_29
REMARK    9  A    between atoms: C_17  and  C_22
REMARK                            x       y       z     vdW  Elec       q    Type
REMARK                         _______ _______ _______ _____ _____    ______ ____
ROOT
ATOM      1  O   UNL     1      -6.111 -10.362  17.511  0.00  0.00    -0.369 OA
ATOM      2  O   UNL     1      -4.338 -11.921  19.450  0.00  0.00    -0.369 OA
ATOM      8  C   UNL     1      -4.787 -12.232  18.113  0.00  0.00    +0.170 C 
ATOM      9  C   UNL     1      -6.206 -11.713  17.997  0.00  0.00    +0.191 C 
ATOM     10  C   UNL     1      -4.010 -11.413  17.105  0.00  0.00    +0.111 C 
ATOM     11  C   UNL     1      -6.687 -11.757  19.428  0.00  0.00    +0.235 C 
ATOM     12  C   UNL     1      -4.749 -10.083  17.150  0.00  0.00    +0.181 C 
ATOM     13  C   UNL     1      -5.439 -11.380  20.195  0.00  0.00    +0.207 C 
ENDROOT
BRANCH  10   5
ATOM      5  N   UNL     1      -4.102 -11.987  15.763  0.00  0.00    -0.305 NA
ATOM     30  H   UNL     1      -4.962 -11.666  15.316  0.00  0.00    +0.123 HD
BRANCH   5  17
ATOM     17  C   UNL     1      -2.975 -11.569  14.944  0.00  0.00    +0.116 C 
BRANCH  17  22
ATOM     22  C   UNL     1      -3.421 -11.001  13.623  0.00  0.00    -0.033 A 
ATOM     23  C   UNL     1      -4.743 -10.588  13.451  0.00  0.00    +0.007 A 
ATOM     24  C   UNL     1      -2.513 -10.889  12.570  0.00  0.00    +0.007 A 
ATOM     25  C   UNL     1      -5.156 -10.063  12.227  0.00  0.00    +0.023 A 
ATOM     26  C   UNL     1      -2.926 -10.363  11.346  0.00  0.00    +0.023 A 
ATOM     27  C   UNL     1      -4.248  -9.950  11.174  0.00  0.00    +0.029 A 
BRANCH  27   7
ATOM      7  N   UNL     1      -4.666  -9.419   9.937  0.00  0.00    -0.336 N 
ATOM     28  C   UNL     1      -5.259  -8.099   9.867  0.00  0.00    +0.129 C 
ATOM     29  C   UNL     1      -4.493 -10.181   8.716  0.00  0.00    +0.129 C 
ENDBRANCH  27   7
ENDBRANCH  17  22
ENDBRANCH   5  17
ENDBRANCH  10   5
BRANCH  11   3
ATOM      3  O   UNL     1      -7.756 -10.876  19.688  0.00  0.00    -0.442 OA
BRANCH   3  21
ATOM      4  O   UNL     1      -9.546 -12.176  19.073  0.00  0.00    -0.226 OA
ATOM      6  N   UNL     1      -9.308 -10.006  18.287  0.00  0.00    -0.278 N 
ATOM     21  C   UNL     1      -8.933 -11.115  19.016  0.00  0.00    +0.401 C 
ATOM     31  H   UNL     1      -8.681  -9.208  18.296  0.00  0.00    +0.152 HD
BRANCH   6  14
ATOM     14  C   UNL     1     -10.502  -9.946  17.473  0.00  0.00    +0.076 C 
ATOM     15  C   UNL     1     -10.184 -10.250  16.005  0.00  0.00    +0.022 C 
ATOM     16  C   UNL     1     -11.202  -8.592  17.622  0.00  0.00    +0.022 C 
ATOM     18  C   UNL     1      -9.418  -9.114  15.326  0.00  0.00    +0.002 C 
ATOM     19  C   UNL     1     -10.435  -7.459  16.940  0.00  0.00    +0.002 C 
ATOM     20  C   UNL     1     -10.140  -7.779  15.478  0.00  0.00    +0.000 C 
ENDBRANCH   6  14
ENDBRANCH   3  21
ENDBRANCH  11   3
TORSDOF 7
ENDMDL
MODEL 10
REMARK VINA RESULT:      -6.2      2.584     10.501
REMARK  Name = 11867430
REMARK  9 active torsions:
REMARK  status: ('A' for Active; 'I' for Inactive)
REMARK    1  A    between atoms: O_3  and  C_11
REMARK    2  A    between atoms: O_3  and  C_21
REMARK    3  A    between atoms: N_5  and  C_10
REMARK    4  A    between atoms: N_5  and  C_17
REMARK    5  A    between atoms: N_6  and  C_14
REMARK    6  A    between atoms: N_7  and  C_27
REMARK    7  A    between atoms: N_7  and  C_28
REMARK    8  A    between atoms: N_7  and  C_29
REMARK    9  A    between atoms: C_17  and  C_22
REMARK                            x       y       z     vdW  Elec       q    Type
REMARK                         _______ _______ _______ _____ _____    ______ ____
ROOT
ATOM      1  O   UNL     1     -15.365   6.750  23.487  0.00  0.00    -0.369 OA
ATOM      2  O   UNL     1     -16.494   4.469  21.797  0.00  0.00    -0.369 OA
ATOM      8  C   UNL     1     -15.747   4.457  23.033  0.00  0.00    +0.170 C 
ATOM      9  C   UNL     1     -14.733   5.579  22.942  0.00  0.00    +0.191 C 
ATOM     10  C   UNL     1     -16.644   4.863  24.182  0.00  0.00    +0.111 C 
ATOM     11  C   UNL     1     -14.520   5.704  21.452  0.00  0.00    +0.235 C 
ATOM     12  C   UNL     1     -16.625   6.380  24.070  0.00  0.00    +0.181 C 
ATOM     13  C   UNL     1     -15.903   5.428  20.907  0.00  0.00    +0.207 C 
ENDROOT
BRANCH  10   5
ATOM      5  N   UNL     1     -16.085   4.452  25.470  0.00  0.00    -0.305 NA
ATOM     30  H   UNL     1     -15.315   5.073  25.717  0.00  0.00    +0.123 HD
BRANCH   5  17
ATOM     17  C   UNL     1     -17.092   4.527  26.517  0.00  0.00    +0.116 C 
BRANCH  17  22
ATOM     22  C   UNL     1     -16.501   4.286  27.881  0.00  0.00    -0.033 A 
ATOM     23  C   UNL     1     -16.720   5.204  28.909  0.00  0.00    +0.007 A 
ATOM     24  C   UNL     1     -15.734   3.145  28.117  0.00  0.00    +0.007 A 
ATOM     25  C   UNL     1     -16.172   4.979  30.172  0.00  0.00    +0.023 A 
ATOM     26  C   UNL     1     -15.187   2.921  29.380  0.00  0.00    +0.023 A 
ATOM     27  C   UNL     1     -15.405   3.838  30.408  0.00  0.00    +0.029 A 
BRANCH  27   7
ATOM      7  N   UNL     1     -14.851   3.612  31.685  0.00  0.00    -0.336 N 
ATOM     28  C   UNL     1     -13.414   3.622  31.874  0.00  0.00    +0.129 C 
ATOM     29  C   UNL     1     -15.712   3.381  32.827  0.00  0.00    +0.129 C 
ENDBRANCH  27   7
ENDBRANCH  17  22
ENDBRANCH   5  17
ENDBRANCH  10   5
BRANCH  11   3
ATOM      3  O   UNL     1     -14.038   6.969  21.057  0.00  0.00    -0.442 OA
BRANCH   3  21
ATOM      4  O   UNL     1     -11.807   6.440  21.187  0.00  0.00    -0.226 OA
ATOM      6  N   UNL     1     -12.620   7.828  19.515  0.00  0.00    -0.278 N 
ATOM     21  C   UNL     1     -12.730   7.028  20.633  0.00  0.00    +0.401 C 
ATOM     31  H   UNL     1     -13.462   8.290  19.187  0.00  0.00    +0.152 HD
BRANCH   6  14
ATOM     14  C   UNL     1     -11.372   8.087  18.832  0.00  0.00    +0.076 C 
ATOM     15  C   UNL     1     -10.569   9.179  19.547  0.00  0.00    +0.022 C 
ATOM     16  C   UNL     1     -11.612   8.445  17.362  0.00  0.00    +0.022 C 
ATOM     18  C   UNL     1     -11.187  10.567  19.373  0.00  0.00    +0.002 C 
ATOM     19  C   UNL     1     -12.228   9.834  17.192  0.00  0.00    +0.002 C 
ATOM     20  C   UNL     1     -11.406  10.905  17.902  0.00  0.00    +0.000 C 
ENDBRANCH   6  14
ENDBRANCH   3  21
ENDBRANCH  11   3
TORSDOF 7
ENDMDL
