MODEL 1
REMARK VINA RESULT:      -7.8      0.000      0.000
REMARK  Name = 26743522
REMARK  7 active torsions:
REMARK  status: ('A' for Active; 'I' for Inactive)
REMARK    1  A    between atoms: O_1  and  C_12
REMARK    2  A    between atoms: N_4  and  C_14
REMARK    3  A    between atoms: N_7  and  C_22
REMARK    4  A    between atoms: C_10  and  C_15
REMARK    5  A    between atoms: C_14  and  C_16
REMARK    6  A    between atoms: C_19  and  C_23
REMARK    7  A    between atoms: C_25  and  C_28
REMARK                            x       y       z     vdW  Elec       q    Type
REMARK                         _______ _______ _______ _____ _____    ______ ____
ROOT
ATOM      4  N   UNL     1      12.898   8.307  18.789  0.00  0.00    -0.285 NA
ATOM     10  C   UNL     1      13.990   7.394  18.394  0.00  0.00    +0.149 C 
ATOM     11  C   UNL     1      14.274   7.733  16.920  0.00  0.00    +0.061 C 
ATOM     12  C   UNL     1      13.262   8.815  16.561  0.00  0.00    +0.130 C 
ATOM     13  C   UNL     1      12.148   8.606  17.570  0.00  0.00    +0.116 C 
ENDROOT
BRANCH  10  15
ATOM      2  O   UNL     1      15.259   8.632  20.078  0.00  0.00    -0.336 OA
ATOM      5  N   UNL     1      16.256   6.752  19.381  0.00  0.00    -0.189 NA
ATOM      6  N   UNL     1      16.464   8.546  20.784  0.00  0.00    -0.054 NA
ATOM     15  C   UNL     1      15.214   7.537  19.274  0.00  0.00    +0.245 A 
ATOM     19  C   UNL     1      16.996   7.412  20.319  0.00  0.00    +0.222 A 
BRANCH  19  23
ATOM      8  N   UNL     1      18.830   7.550  21.811  0.00  0.00    -0.249 NA
ATOM      9  N   UNL     1      20.050   5.347  20.577  0.00  0.00    -0.260 NA
ATOM     23  C   UNL     1      18.262   6.911  20.769  0.00  0.00    +0.129 A 
ATOM     24  C   UNL     1      18.861   5.828  20.163  0.00  0.00    +0.142 A 
ATOM     26  C   UNL     1      20.020   7.070  22.224  0.00  0.00    +0.131 A 
ATOM     27  C   UNL     1      20.618   5.987  21.618  0.00  0.00    +0.130 A 
ENDBRANCH  19  23
ENDBRANCH  10  15
BRANCH  12   1
ATOM      1  O   UNL     1      12.804   8.653  15.233  0.00  0.00    -0.390 OA
ATOM     29  H   UNL     1      12.811   7.701  15.036  0.00  0.00    +0.210 HD
ENDBRANCH  12   1
BRANCH   4  14
ATOM     14  C   UNL     1      12.045   7.764  19.838  0.00  0.00    +0.120 C 
BRANCH  14  16
ATOM     16  C   UNL     1      11.668   8.812  20.852  0.00  0.00    -0.033 A 
ATOM     17  C   UNL     1      12.110  10.125  20.697  0.00  0.00    +0.007 A 
ATOM     18  C   UNL     1      10.877   8.467  21.949  0.00  0.00    +0.007 A 
ATOM     20  C   UNL     1      11.762  11.095  21.637  0.00  0.00    +0.023 A 
ATOM     21  C   UNL     1      10.528   9.436  22.889  0.00  0.00    +0.023 A 
ATOM     22  C   UNL     1      10.971  10.750  22.733  0.00  0.00    +0.033 A 
BRANCH  22   7
ATOM      3  O   UNL     1      12.332  11.573  25.290  0.00  0.00    -0.276 OA
ATOM      7  N   UNL     1      10.622  11.719  23.674  0.00  0.00    -0.286 N 
ATOM     25  C   UNL     1      11.295  12.062  24.854  0.00  0.00    +0.214 C 
ATOM     28  C   UNL     1      10.590  13.168  25.599  0.00  0.00    +0.109 C 
ATOM     30  H   UNL     1       9.770  12.237  23.467  0.00  0.00    +0.155 HD
ENDBRANCH  22   7
ENDBRANCH  14  16
ENDBRANCH   4  14
TORSDOF 6
ENDMDL
MODEL 2
REMARK VINA RESULT:      -7.6      2.370      8.370
REMARK  Name = 26743522
REMARK  7 active torsions:
REMARK  status: ('A' for Active; 'I' for Inactive)
REMARK    1  A    between atoms: O_1  and  C_12
REMARK    2  A    between atoms: N_4  and  C_14
REMARK    3  A    between atoms: N_7  and  C_22
REMARK    4  A    between atoms: C_10  and  C_15
REMARK    5  A    between atoms: C_14  and  C_16
REMARK    6  A    between atoms: C_19  and  C_23
REMARK    7  A    between atoms: C_25  and  C_28
REMARK                            x       y       z     vdW  Elec       q    Type
REMARK                         _______ _______ _______ _____ _____    ______ ____
ROOT
ATOM      4  N   UNL     1      13.211   8.006  20.575  0.00  0.00    -0.285 NA
ATOM     10  C   UNL     1      11.908   8.670  20.369  0.00  0.00    +0.149 C 
ATOM     11  C   UNL     1      10.868   7.674  20.912  0.00  0.00    +0.061 C 
ATOM     12  C   UNL     1      11.677   6.462  21.360  0.00  0.00    +0.130 C 
ATOM     13  C   UNL     1      12.952   6.568  20.544  0.00  0.00    +0.116 C 
ENDROOT
BRANCH  10  15
ATOM      2  O   UNL     1      12.326  11.078  20.343  0.00  0.00    -0.336 OA
ATOM      5  N   UNL     1      11.353  10.339  22.221  0.00  0.00    -0.189 NA
ATOM      6  N   UNL     1      12.147  12.203  21.159  0.00  0.00    -0.054 NA
ATOM     15  C   UNL     1      11.831  10.023  21.044  0.00  0.00    +0.245 A 
ATOM     19  C   UNL     1      11.568  11.686  22.246  0.00  0.00    +0.222 A 
BRANCH  19  23
ATOM      8  N   UNL     1      11.174  13.822  23.190  0.00  0.00    -0.249 NA
ATOM      9  N   UNL     1      10.515  12.655  25.654  0.00  0.00    -0.260 NA
ATOM     23  C   UNL     1      11.193  12.487  23.375  0.00  0.00    +0.129 A 
ATOM     24  C   UNL     1      10.869  11.914  24.586  0.00  0.00    +0.142 A 
ATOM     26  C   UNL     1      10.819  14.564  24.259  0.00  0.00    +0.131 A 
ATOM     27  C   UNL     1      10.496  13.990  25.469  0.00  0.00    +0.130 A 
ENDBRANCH  19  23
ENDBRANCH  10  15
BRANCH  12   1
ATOM      1  O   UNL     1      10.978   5.263  21.088  0.00  0.00    -0.390 OA
ATOM     29  H   UNL     1      11.562   4.699  20.553  0.00  0.00    +0.210 HD
ENDBRANCH  12   1
BRANCH   4  14
ATOM     14  C   UNL     1      14.219   8.402  19.601  0.00  0.00    +0.120 C 
BRANCH  14  16
ATOM     16  C   UNL     1      15.501   7.632  19.775  0.00  0.00    -0.033 A 
ATOM     17  C   UNL     1      16.297   7.847  20.899  0.00  0.00    +0.007 A 
ATOM     18  C   UNL     1      15.893   6.704  18.810  0.00  0.00    +0.007 A 
ATOM     20  C   UNL     1      17.485   7.135  21.061  0.00  0.00    +0.023 A 
ATOM     21  C   UNL     1      17.081   5.991  18.970  0.00  0.00    +0.023 A 
ATOM     22  C   UNL     1      17.877   6.207  20.095  0.00  0.00    +0.033 A 
BRANCH  22   7
ATOM      3  O   UNL     1      20.687   7.173  20.582  0.00  0.00    -0.276 OA
ATOM      7  N   UNL     1      19.066   5.493  20.256  0.00  0.00    -0.286 N 
ATOM     25  C   UNL     1      20.353   5.997  20.480  0.00  0.00    +0.214 C 
ATOM     28  C   UNL     1      21.373   4.891  20.599  0.00  0.00    +0.109 C 
ATOM     30  H   UNL     1      18.974   4.481  20.202  0.00  0.00    +0.155 HD
ENDBRANCH  22   7
ENDBRANCH  14  16
ENDBRANCH   4  14
TORSDOF 6
ENDMDL
MODEL 3
REMARK VINA RESULT:      -7.1      3.128      5.582
REMARK  Name = 26743522
REMARK  7 active torsions:
REMARK  status: ('A' for Active; 'I' for Inactive)
REMARK    1  A    between atoms: O_1  and  C_12
REMARK    2  A    between atoms: N_4  and  C_14
REMARK    3  A    between atoms: N_7  and  C_22
REMARK    4  A    between atoms: C_10  and  C_15
REMARK    5  A    between atoms: C_14  and  C_16
REMARK    6  A    between atoms: C_19  and  C_23
REMARK    7  A    between atoms: C_25  and  C_28
REMARK                            x       y       z     vdW  Elec       q    Type
REMARK                         _______ _______ _______ _____ _____    ______ ____
ROOT
ATOM      4  N   UNL     1      12.816   7.717  19.058  0.00  0.00    -0.285 NA
ATOM     10  C   UNL     1      13.926   8.676  18.883  0.00  0.00    +0.149 C 
ATOM     11  C   UNL     1      15.157   7.966  19.473  0.00  0.00    +0.061 C 
ATOM     12  C   UNL     1      14.633   6.634  19.996  0.00  0.00    +0.130 C 
ATOM     13  C   UNL     1      13.156   6.900  20.222  0.00  0.00    +0.116 C 
ENDROOT
BRANCH  10  15
ATOM      2  O   UNL     1      13.738   8.179  16.497  0.00  0.00    -0.336 OA
ATOM      5  N   UNL     1      14.611  10.193  16.946  0.00  0.00    -0.189 NA
ATOM      6  N   UNL     1      14.010   8.771  15.258  0.00  0.00    -0.054 NA
ATOM     15  C   UNL     1      14.120   9.083  17.438  0.00  0.00    +0.245 A 
ATOM     19  C   UNL     1      14.523   9.955  15.605  0.00  0.00    +0.222 A 
BRANCH  19  23
ATOM      8  N   UNL     1      14.008  11.438  13.832  0.00  0.00    -0.249 NA
ATOM      9  N   UNL     1      16.697  12.209  13.643  0.00  0.00    -0.260 NA
ATOM     23  C   UNL     1      14.956  10.923  14.639  0.00  0.00    +0.129 A 
ATOM     24  C   UNL     1      16.277  11.302  14.546  0.00  0.00    +0.142 A 
ATOM     26  C   UNL     1      14.428  12.346  12.928  0.00  0.00    +0.131 A 
ATOM     27  C   UNL     1      15.749  12.725  12.836  0.00  0.00    +0.130 A 
ENDBRANCH  19  23
ENDBRANCH  10  15
BRANCH  12   1
ATOM      1  O   UNL     1      15.290   6.272  21.195  0.00  0.00    -0.390 OA
ATOM     29  H   UNL     1      15.103   6.965  21.851  0.00  0.00    +0.210 HD
ENDBRANCH  12   1
BRANCH   4  14
ATOM     14  C   UNL     1      11.517   8.361  19.202  0.00  0.00    +0.120 C 
BRANCH  14  16
ATOM     16  C   UNL     1      11.423   9.155  20.478  0.00  0.00    -0.033 A 
ATOM     17  C   UNL     1      10.712   8.647  21.565  0.00  0.00    +0.007 A 
ATOM     18  C   UNL     1      12.045  10.400  20.572  0.00  0.00    +0.007 A 
ATOM     20  C   UNL     1      10.624   9.383  22.747  0.00  0.00    +0.023 A 
ATOM     21  C   UNL     1      11.958  11.136  21.753  0.00  0.00    +0.023 A 
ATOM     22  C   UNL     1      11.247  10.628  22.840  0.00  0.00    +0.033 A 
BRANCH  22   7
ATOM      3  O   UNL     1      10.122  13.373  23.354  0.00  0.00    -0.276 OA
ATOM      7  N   UNL     1      11.159  11.365  24.022  0.00  0.00    -0.286 N 
ATOM     25  C   UNL     1      10.624  12.646  24.204  0.00  0.00    +0.214 C 
ATOM     28  C   UNL     1      10.718  13.092  25.643  0.00  0.00    +0.109 C 
ATOM     30  H   UNL     1      11.533  10.904  24.849  0.00  0.00    +0.155 HD
ENDBRANCH  22   7
ENDBRANCH  14  16
ENDBRANCH   4  14
TORSDOF 6
ENDMDL
MODEL 4
REMARK VINA RESULT:      -7.0      2.695      5.691
REMARK  Name = 26743522
REMARK  7 active torsions:
REMARK  status: ('A' for Active; 'I' for Inactive)
REMARK    1  A    between atoms: O_1  and  C_12
REMARK    2  A    between atoms: N_4  and  C_14
REMARK    3  A    between atoms: N_7  and  C_22
REMARK    4  A    between atoms: C_10  and  C_15
REMARK    5  A    between atoms: C_14  and  C_16
REMARK    6  A    between atoms: C_19  and  C_23
REMARK    7  A    between atoms: C_25  and  C_28
REMARK                            x       y       z     vdW  Elec       q    Type
REMARK                         _______ _______ _______ _____ _____    ______ ____
ROOT
ATOM      4  N   UNL     1      12.385   8.849  20.298  0.00  0.00    -0.285 NA
ATOM     10  C   UNL     1      13.119   8.182  21.392  0.00  0.00    +0.149 C 
ATOM     11  C   UNL     1      12.143   7.124  21.935  0.00  0.00    +0.061 C 
ATOM     12  C   UNL     1      10.870   7.302  21.115  0.00  0.00    +0.130 C 
ATOM     13  C   UNL     1      10.964   8.735  20.624  0.00  0.00    +0.116 C 
ENDROOT
BRANCH  10  15
ATOM      2  O   UNL     1      14.367   6.686  19.916  0.00  0.00    -0.336 OA
ATOM      5  N   UNL     1      15.645   7.807  21.373  0.00  0.00    -0.189 NA
ATOM      6  N   UNL     1      15.685   6.281  19.670  0.00  0.00    -0.054 NA
ATOM     15  C   UNL     1      14.433   7.585  20.933  0.00  0.00    +0.245 A 
ATOM     19  C   UNL     1      16.379   6.985  20.569  0.00  0.00    +0.222 A 
BRANCH  19  23
ATOM      8  N   UNL     1      18.422   7.877  21.370  0.00  0.00    -0.249 NA
ATOM      9  N   UNL     1      19.844   5.742  20.236  0.00  0.00    -0.260 NA
ATOM     23  C   UNL     1      17.805   6.891  20.688  0.00  0.00    +0.129 A 
ATOM     24  C   UNL     1      18.504   5.842  20.131  0.00  0.00    +0.142 A 
ATOM     26  C   UNL     1      19.762   7.777  21.475  0.00  0.00    +0.131 A 
ATOM     27  C   UNL     1      20.460   6.728  20.918  0.00  0.00    +0.130 A 
ENDBRANCH  19  23
ENDBRANCH  10  15
BRANCH  12   1
ATOM      1  O   UNL     1       9.723   7.096  21.916  0.00  0.00    -0.390 OA
ATOM     29  H   UNL     1      10.025   6.753  22.775  0.00  0.00    +0.210 HD
ENDBRANCH  12   1
BRANCH   4  14
ATOM     14  C   UNL     1      12.791  10.233  20.094  0.00  0.00    +0.120 C 
BRANCH  14  16
ATOM     16  C   UNL     1      13.443  10.434  18.751  0.00  0.00    -0.033 A 
ATOM     17  C   UNL     1      14.073  11.641  18.455  0.00  0.00    +0.007 A 
ATOM     18  C   UNL     1      13.413   9.411  17.802  0.00  0.00    +0.007 A 
ATOM     20  C   UNL     1      14.676  11.828  17.211  0.00  0.00    +0.023 A 
ATOM     21  C   UNL     1      14.015   9.597  16.558  0.00  0.00    +0.023 A 
ATOM     22  C   UNL     1      14.647  10.805  16.262  0.00  0.00    +0.033 A 
BRANCH  22   7
ATOM      3  O   UNL     1      13.779  12.452  13.896  0.00  0.00    -0.276 OA
ATOM      7  N   UNL     1      15.250  10.991  15.018  0.00  0.00    -0.286 N 
ATOM     25  C   UNL     1      14.799  11.772  13.946  0.00  0.00    +0.214 C 
ATOM     28  C   UNL     1      15.743  11.708  12.771  0.00  0.00    +0.109 C 
ATOM     30  H   UNL     1      16.126  10.492  14.882  0.00  0.00    +0.155 HD
ENDBRANCH  22   7
ENDBRANCH  14  16
ENDBRANCH   4  14
TORSDOF 6
ENDMDL
MODEL 5
REMARK VINA RESULT:      -6.9     25.270     27.804
REMARK  Name = 26743522
REMARK  7 active torsions:
REMARK  status: ('A' for Active; 'I' for Inactive)
REMARK    1  A    between atoms: O_1  and  C_12
REMARK    2  A    between atoms: N_4  and  C_14
REMARK    3  A    between atoms: N_7  and  C_22
REMARK    4  A    between atoms: C_10  and  C_15
REMARK    5  A    between atoms: C_14  and  C_16
REMARK    6  A    between atoms: C_19  and  C_23
REMARK    7  A    between atoms: C_25  and  C_28
REMARK                            x       y       z     vdW  Elec       q    Type
REMARK                         _______ _______ _______ _____ _____    ______ ____
ROOT
ATOM      4  N   UNL     1     -11.806   9.624  20.454  0.00  0.00    -0.285 NA
ATOM     10  C   UNL     1     -12.378   8.497  19.688  0.00  0.00    +0.149 C 
ATOM     11  C   UNL     1     -11.282   8.109  18.680  0.00  0.00    +0.061 C 
ATOM     12  C   UNL     1     -10.150   9.101  18.924  0.00  0.00    +0.130 C 
ATOM     13  C   UNL     1     -10.850  10.284  19.566  0.00  0.00    +0.116 C 
ENDROOT
BRANCH  10  15
ATOM      2  O   UNL     1     -11.801   6.526  21.014  0.00  0.00    -0.336 OA
ATOM      5  N   UNL     1     -13.989   7.004  20.990  0.00  0.00    -0.189 NA
ATOM      6  N   UNL     1     -12.421   5.550  21.802  0.00  0.00    -0.054 NA
ATOM     15  C   UNL     1     -12.795   7.343  20.574  0.00  0.00    +0.245 A 
ATOM     19  C   UNL     1     -13.709   5.899  21.740  0.00  0.00    +0.222 A 
BRANCH  19  23
ATOM      8  N   UNL     1     -15.884   4.959  21.729  0.00  0.00    -0.249 NA
ATOM      9  N   UNL     1     -15.528   4.009  24.344  0.00  0.00    -0.260 NA
ATOM     23  C   UNL     1     -14.741   5.166  22.414  0.00  0.00    +0.129 A 
ATOM     24  C   UNL     1     -14.567   4.699  23.699  0.00  0.00    +0.142 A 
ATOM     26  C   UNL     1     -16.846   4.270  22.374  0.00  0.00    +0.131 A 
ATOM     27  C   UNL     1     -16.670   3.803  23.659  0.00  0.00    +0.130 A 
ENDBRANCH  19  23
ENDBRANCH  10  15
BRANCH  12   1
ATOM      1  O   UNL     1      -9.524   9.458  17.708  0.00  0.00    -0.390 OA
ATOM     29  H   UNL     1      -9.695   8.743  17.071  0.00  0.00    +0.210 HD
ENDBRANCH  12   1
BRANCH   4  14
ATOM     14  C   UNL     1     -12.813  10.547  20.959  0.00  0.00    +0.120 C 
BRANCH  14  16
ATOM     16  C   UNL     1     -12.811  10.612  22.463  0.00  0.00    -0.033 A 
ATOM     17  C   UNL     1     -11.830  11.345  23.129  0.00  0.00    +0.007 A 
ATOM     18  C   UNL     1     -13.791   9.936  23.191  0.00  0.00    +0.007 A 
ATOM     20  C   UNL     1     -11.828  11.404  24.522  0.00  0.00    +0.023 A 
ATOM     21  C   UNL     1     -13.789   9.994  24.584  0.00  0.00    +0.023 A 
ATOM     22  C   UNL     1     -12.807  10.728  25.250  0.00  0.00    +0.033 A 
BRANCH  22   7
ATOM      3  O   UNL     1     -11.032   9.363  27.263  0.00  0.00    -0.276 OA
ATOM      7  N   UNL     1     -12.806  10.787  26.644  0.00  0.00    -0.286 N 
ATOM     25  C   UNL     1     -11.953  10.126  27.537  0.00  0.00    +0.214 C 
ATOM     28  C   UNL     1     -12.279  10.457  28.972  0.00  0.00    +0.109 C 
ATOM     30  H   UNL     1     -13.517  11.389  27.054  0.00  0.00    +0.155 HD
ENDBRANCH  22   7
ENDBRANCH  14  16
ENDBRANCH   4  14
TORSDOF 6
ENDMDL
MODEL 6
REMARK VINA RESULT:      -6.8     26.259     29.056
REMARK  Name = 26743522
REMARK  7 active torsions:
REMARK  status: ('A' for Active; 'I' for Inactive)
REMARK    1  A    between atoms: O_1  and  C_12
REMARK    2  A    between atoms: N_4  and  C_14
REMARK    3  A    between atoms: N_7  and  C_22
REMARK    4  A    between atoms: C_10  and  C_15
REMARK    5  A    between atoms: C_14  and  C_16
REMARK    6  A    between atoms: C_19  and  C_23
REMARK    7  A    between atoms: C_25  and  C_28
REMARK                            x       y       z     vdW  Elec       q    Type
REMARK                         _______ _______ _______ _____ _____    ______ ____
ROOT
ATOM      4  N   UNL     1      -3.353 -10.592  14.263  0.00  0.00    -0.285 NA
ATOM     10  C   UNL     1      -3.613 -11.210  15.579  0.00  0.00    +0.149 C 
ATOM     11  C   UNL     1      -2.394 -10.832  16.440  0.00  0.00    +0.061 C 
ATOM     12  C   UNL     1      -1.483 -10.041  15.509  0.00  0.00    +0.130 C 
ATOM     13  C   UNL     1      -1.900 -10.507  14.126  0.00  0.00    +0.116 C 
ENDROOT
BRANCH  10  15
ATOM      2  O   UNL     1      -5.397  -9.549  15.773  0.00  0.00    -0.336 OA
ATOM      5  N   UNL     1      -5.683 -11.355  17.066  0.00  0.00    -0.189 NA
ATOM      6  N   UNL     1      -6.599  -9.348  16.462  0.00  0.00    -0.054 NA
ATOM     15  C   UNL     1      -4.923 -10.755  16.187  0.00  0.00    +0.245 A 
ATOM     19  C   UNL     1      -6.700 -10.455  17.204  0.00  0.00    +0.222 A 
BRANCH  19  23
ATOM      8  N   UNL     1      -8.951 -10.045  17.814  0.00  0.00    -0.249 NA
ATOM      9  N   UNL     1      -8.710 -11.771  20.012  0.00  0.00    -0.260 NA
ATOM     23  C   UNL     1      -7.801 -10.692  18.091  0.00  0.00    +0.129 A 
ATOM     24  C   UNL     1      -7.683 -11.539  19.171  0.00  0.00    +0.142 A 
ATOM     26  C   UNL     1      -9.979 -10.276  18.656  0.00  0.00    +0.131 A 
ATOM     27  C   UNL     1      -9.860 -11.124  19.735  0.00  0.00    +0.130 A 
ENDBRANCH  19  23
ENDBRANCH  10  15
BRANCH  12   1
ATOM      1  O   UNL     1      -0.124 -10.329  15.772  0.00  0.00    -0.390 OA
ATOM     29  H   UNL     1       0.173 -10.972  15.105  0.00  0.00    +0.210 HD
ENDBRANCH  12   1
BRANCH   4  14
ATOM     14  C   UNL     1      -3.965 -11.316  13.157  0.00  0.00    +0.120 C 
BRANCH  14  16
ATOM     16  C   UNL     1      -4.579 -10.383  12.147  0.00  0.00    -0.033 A 
ATOM     17  C   UNL     1      -3.933 -10.144  10.935  0.00  0.00    +0.007 A 
ATOM     18  C   UNL     1      -5.793  -9.755  12.426  0.00  0.00    +0.007 A 
ATOM     20  C   UNL     1      -4.501  -9.279  10.000  0.00  0.00    +0.023 A 
ATOM     21  C   UNL     1      -6.362  -8.890  11.491  0.00  0.00    +0.023 A 
ATOM     22  C   UNL     1      -5.715  -8.651  10.279  0.00  0.00    +0.033 A 
BRANCH  22   7
ATOM      3  O   UNL     1      -8.252  -8.897   8.676  0.00  0.00    -0.276 OA
ATOM      7  N   UNL     1      -6.284  -7.785   9.344  0.00  0.00    -0.286 N 
ATOM     25  C   UNL     1      -7.473  -7.952   8.622  0.00  0.00    +0.214 C 
ATOM     28  C   UNL     1      -7.740  -6.782   7.708  0.00  0.00    +0.109 C 
ATOM     30  H   UNL     1      -5.762  -6.929   9.172  0.00  0.00    +0.155 HD
ENDBRANCH  22   7
ENDBRANCH  14  16
ENDBRANCH   4  14
TORSDOF 6
ENDMDL
MODEL 7
REMARK VINA RESULT:      -6.8     26.125     29.020
REMARK  Name = 26743522
REMARK  7 active torsions:
REMARK  status: ('A' for Active; 'I' for Inactive)
REMARK    1  A    between atoms: O_1  and  C_12
REMARK    2  A    between atoms: N_4  and  C_14
REMARK    3  A    between atoms: N_7  and  C_22
REMARK    4  A    between atoms: C_10  and  C_15
REMARK    5  A    between atoms: C_14  and  C_16
REMARK    6  A    between atoms: C_19  and  C_23
REMARK    7  A    between atoms: C_25  and  C_28
REMARK                            x       y       z     vdW  Elec       q    Type
REMARK                         _______ _______ _______ _____ _____    ______ ____
ROOT
ATOM      4  N   UNL     1      -2.907 -10.468  13.585  0.00  0.00    -0.285 NA
ATOM     10  C   UNL     1      -3.392 -11.358  14.660  0.00  0.00    +0.149 C 
ATOM     11  C   UNL     1      -2.502 -11.034  15.872  0.00  0.00    +0.061 C 
ATOM     12  C   UNL     1      -1.518  -9.983  15.371  0.00  0.00    +0.130 C 
ATOM     13  C   UNL     1      -1.497 -10.206  13.870  0.00  0.00    +0.116 C 
ENDROOT
BRANCH  10  15
ATOM      2  O   UNL     1      -5.647 -12.281  14.852  0.00  0.00    -0.336 OA
ATOM      5  N   UNL     1      -5.517 -10.086  15.282  0.00  0.00    -0.189 NA
ATOM      6  N   UNL     1      -6.949 -11.866  15.159  0.00  0.00    -0.054 NA
ATOM     15  C   UNL     1      -4.867 -11.172  14.948  0.00  0.00    +0.245 A 
ATOM     19  C   UNL     1      -6.791 -10.561  15.400  0.00  0.00    +0.222 A 
BRANCH  19  23
ATOM      8  N   UNL     1      -8.790  -9.441  14.800  0.00  0.00    -0.249 NA
ATOM      9  N   UNL     1      -9.015  -8.376  17.385  0.00  0.00    -0.260 NA
ATOM     23  C   UNL     1      -7.883  -9.705  15.762  0.00  0.00    +0.129 A 
ATOM     24  C   UNL     1      -7.994  -9.182  17.032  0.00  0.00    +0.142 A 
ATOM     26  C   UNL     1      -9.811  -8.635  15.153  0.00  0.00    +0.131 A 
ATOM     27  C   UNL     1      -9.921  -8.112  16.423  0.00  0.00    +0.130 A 
ENDBRANCH  19  23
ENDBRANCH  10  15
BRANCH  12   1
ATOM      1  O   UNL     1      -0.241 -10.176  15.948  0.00  0.00    -0.390 OA
ATOM     29  H   UNL     1       0.421  -9.922  15.282  0.00  0.00    +0.210 HD
ENDBRANCH  12   1
BRANCH   4  14
ATOM     14  C   UNL     1      -3.103 -11.018  12.250  0.00  0.00    +0.120 C 
BRANCH  14  16
ATOM     16  C   UNL     1      -3.935 -10.107  11.386  0.00  0.00    -0.033 A 
ATOM     17  C   UNL     1      -5.197  -9.698  11.816  0.00  0.00    +0.007 A 
ATOM     18  C   UNL     1      -3.444  -9.676  10.154  0.00  0.00    +0.007 A 
ATOM     20  C   UNL     1      -5.968  -8.856  11.015  0.00  0.00    +0.023 A 
ATOM     21  C   UNL     1      -4.215  -8.834   9.352  0.00  0.00    +0.023 A 
ATOM     22  C   UNL     1      -5.477  -8.424   9.782  0.00  0.00    +0.033 A 
BRANCH  22   7
ATOM      3  O   UNL     1      -8.230  -8.806   8.625  0.00  0.00    -0.276 OA
ATOM      7  N   UNL     1      -6.248  -7.582   8.980  0.00  0.00    -0.286 N 
ATOM     25  C   UNL     1      -7.530  -7.812   8.466  0.00  0.00    +0.214 C 
ATOM     28  C   UNL     1      -8.019  -6.647   7.642  0.00  0.00    +0.109 C 
ATOM     30  H   UNL     1      -5.815  -6.691   8.746  0.00  0.00    +0.155 HD
ENDBRANCH  22   7
ENDBRANCH  14  16
ENDBRANCH   4  14
TORSDOF 6
ENDMDL
MODEL 8
REMARK VINA RESULT:      -6.7      3.146      6.833
REMARK  Name = 26743522
REMARK  7 active torsions:
REMARK  status: ('A' for Active; 'I' for Inactive)
REMARK    1  A    between atoms: O_1  and  C_12
REMARK    2  A    between atoms: N_4  and  C_14
REMARK    3  A    between atoms: N_7  and  C_22
REMARK    4  A    between atoms: C_10  and  C_15
REMARK    5  A    between atoms: C_14  and  C_16
REMARK    6  A    between atoms: C_19  and  C_23
REMARK    7  A    between atoms: C_25  and  C_28
REMARK                            x       y       z     vdW  Elec       q    Type
REMARK                         _______ _______ _______ _____ _____    ______ ____
ROOT
ATOM      4  N   UNL     1      12.765   7.413  20.737  0.00  0.00    -0.285 NA
ATOM     10  C   UNL     1      12.249   8.793  20.638  0.00  0.00    +0.149 C 
ATOM     11  C   UNL     1      10.985   8.806  21.516  0.00  0.00    +0.061 C 
ATOM     12  C   UNL     1      10.846   7.378  22.030  0.00  0.00    +0.130 C 
ATOM     13  C   UNL     1      11.609   6.559  21.007  0.00  0.00    +0.116 C 
ENDROOT
BRANCH  10  15
ATOM      2  O   UNL     1      13.655  10.724  20.118  0.00  0.00    -0.336 OA
ATOM      5  N   UNL     1      13.848   9.994  22.226  0.00  0.00    -0.189 NA
ATOM      6  N   UNL     1      14.588  11.565  20.737  0.00  0.00    -0.054 NA
ATOM     15  C   UNL     1      13.269   9.828  21.064  0.00  0.00    +0.245 A 
ATOM     19  C   UNL     1      14.648  11.071  21.977  0.00  0.00    +0.222 A 
BRANCH  19  23
ATOM      8  N   UNL     1      16.725  12.023  22.602  0.00  0.00    -0.249 NA
ATOM      9  N   UNL     1      15.855  12.278  25.255  0.00  0.00    -0.260 NA
ATOM     23  C   UNL     1      15.496  11.630  22.990  0.00  0.00    +0.129 A 
ATOM     24  C   UNL     1      15.069  11.755  24.294  0.00  0.00    +0.142 A 
ATOM     26  C   UNL     1      17.512  12.546  23.563  0.00  0.00    +0.131 A 
ATOM     27  C   UNL     1      17.084  12.671  24.866  0.00  0.00    +0.130 A 
ENDBRANCH  19  23
ENDBRANCH  10  15
BRANCH  12   1
ATOM      1  O   UNL     1       9.485   6.999  22.097  0.00  0.00    -0.390 OA
ATOM     29  H   UNL     1       9.045   7.599  22.724  0.00  0.00    +0.210 HD
ENDBRANCH  12   1
BRANCH   4  14
ATOM     14  C   UNL     1      13.498   6.986  19.553  0.00  0.00    +0.120 C 
BRANCH  14  16
ATOM     16  C   UNL     1      14.952   6.735  19.854  0.00  0.00    -0.033 A 
ATOM     17  C   UNL     1      15.838   6.442  18.818  0.00  0.00    +0.007 A 
ATOM     18  C   UNL     1      15.411   6.793  21.170  0.00  0.00    +0.007 A 
ATOM     20  C   UNL     1      17.184   6.208  19.096  0.00  0.00    +0.023 A 
ATOM     21  C   UNL     1      16.757   6.559  21.449  0.00  0.00    +0.023 A 
ATOM     22  C   UNL     1      17.644   6.266  20.412  0.00  0.00    +0.033 A 
BRANCH  22   7
ATOM      3  O   UNL     1      19.856   8.183  21.118  0.00  0.00    -0.276 OA
ATOM      7  N   UNL     1      18.991   6.032  20.692  0.00  0.00    -0.286 N 
ATOM     25  C   UNL     1      19.982   6.968  21.015  0.00  0.00    +0.214 C 
ATOM     28  C   UNL     1      21.319   6.308  21.248  0.00  0.00    +0.109 C 
ATOM     30  H   UNL     1      19.279   5.057  20.654  0.00  0.00    +0.155 HD
ENDBRANCH  22   7
ENDBRANCH  14  16
ENDBRANCH   4  14
TORSDOF 6
ENDMDL
MODEL 9
REMARK VINA RESULT:      -6.6     14.066     17.247
REMARK  Name = 26743522
REMARK  7 active torsions:
REMARK  status: ('A' for Active; 'I' for Inactive)
REMARK    1  A    between atoms: O_1  and  C_12
REMARK    2  A    between atoms: N_4  and  C_14
REMARK    3  A    between atoms: N_7  and  C_22
REMARK    4  A    between atoms: C_10  and  C_15
REMARK    5  A    between atoms: C_14  and  C_16
REMARK    6  A    between atoms: C_19  and  C_23
REMARK    7  A    between atoms: C_25  and  C_28
REMARK                            x       y       z     vdW  Elec       q    Type
REMARK                         _______ _______ _______ _____ _____    ______ ____
ROOT
ATOM      4  N   UNL     1      10.268   5.481   6.197  0.00  0.00    -0.285 NA
ATOM     10  C   UNL     1      10.042   6.672   7.042  0.00  0.00    +0.149 C 
ATOM     11  C   UNL     1       9.925   6.123   8.475  0.00  0.00    +0.061 C 
ATOM     12  C   UNL     1      10.052   4.610   8.330  0.00  0.00    +0.130 C 
ATOM     13  C   UNL     1       9.641   4.357   6.892  0.00  0.00    +0.116 C 
ENDROOT
BRANCH  10  15
ATOM      2  O   UNL     1      10.758   9.007   6.949  0.00  0.00    -0.336 OA
ATOM      5  N   UNL     1      12.427   7.530   6.728  0.00  0.00    -0.189 NA
ATOM      6  N   UNL     1      11.928   9.761   6.796  0.00  0.00    -0.054 NA
ATOM     15  C   UNL     1      11.141   7.704   6.898  0.00  0.00    +0.245 A 
ATOM     19  C   UNL     1      12.868   8.820   6.671  0.00  0.00    +0.222 A 
BRANCH  19  23
ATOM      8  N   UNL     1      14.613  10.422   6.662  0.00  0.00    -0.249 NA
ATOM      9  N   UNL     1      16.479   8.443   5.980  0.00  0.00    -0.260 NA
ATOM     23  C   UNL     1      14.256   9.134   6.489  0.00  0.00    +0.129 A 
ATOM     24  C   UNL     1      15.173   8.162   6.154  0.00  0.00    +0.142 A 
ATOM     26  C   UNL     1      15.919  10.704   6.487  0.00  0.00    +0.131 A 
ATOM     27  C   UNL     1      16.836   9.732   6.153  0.00  0.00    +0.130 A 
ENDBRANCH  19  23
ENDBRANCH  10  15
BRANCH  12   1
ATOM      1  O   UNL     1       9.201   3.946   9.243  0.00  0.00    -0.390 OA
ATOM     29  H   UNL     1       9.697   3.193   9.609  0.00  0.00    +0.210 HD
ENDBRANCH  12   1
BRANCH   4  14
ATOM     14  C   UNL     1       9.764   5.636   4.839  0.00  0.00    +0.120 C 
BRANCH  14  16
ATOM     16  C   UNL     1      10.844   5.416   3.812  0.00  0.00    -0.033 A 
ATOM     17  C   UNL     1      10.940   4.193   3.150  0.00  0.00    +0.007 A 
ATOM     18  C   UNL     1      11.750   6.437   3.525  0.00  0.00    +0.007 A 
ATOM     20  C   UNL     1      11.940   3.990   2.200  0.00  0.00    +0.023 A 
ATOM     21  C   UNL     1      12.751   6.235   2.575  0.00  0.00    +0.023 A 
ATOM     22  C   UNL     1      12.846   5.011   1.913  0.00  0.00    +0.033 A 
BRANCH  22   7
ATOM      3  O   UNL     1      15.217   3.154   1.936  0.00  0.00    -0.276 OA
ATOM      7  N   UNL     1      13.848   4.808   0.963  0.00  0.00    -0.286 N 
ATOM     25  C   UNL     1      14.935   3.927   1.026  0.00  0.00    +0.214 C 
ATOM     28  C   UNL     1      15.793   4.008  -0.212  0.00  0.00    +0.109 C 
ATOM     30  H   UNL     1      13.769   5.376   0.122  0.00  0.00    +0.155 HD
ENDBRANCH  22   7
ENDBRANCH  14  16
ENDBRANCH   4  14
TORSDOF 6
ENDMDL
MODEL 10
REMARK VINA RESULT:      -6.4     27.359     30.548
REMARK  Name = 26743522
REMARK  7 active torsions:
REMARK  status: ('A' for Active; 'I' for Inactive)
REMARK    1  A    between atoms: O_1  and  C_12
REMARK    2  A    between atoms: N_4  and  C_14
REMARK    3  A    between atoms: N_7  and  C_22
REMARK    4  A    between atoms: C_10  and  C_15
REMARK    5  A    between atoms: C_14  and  C_16
REMARK    6  A    between atoms: C_19  and  C_23
REMARK    7  A    between atoms: C_25  and  C_28
REMARK                            x       y       z     vdW  Elec       q    Type
REMARK                         _______ _______ _______ _____ _____    ______ ____
ROOT
ATOM      4  N   UNL     1     -13.660   6.919  33.573  0.00  0.00    -0.285 NA
ATOM     10  C   UNL     1     -13.619   8.395  33.533  0.00  0.00    +0.149 C 
ATOM     11  C   UNL     1     -12.906   8.805  34.833  0.00  0.00    +0.061 C 
ATOM     12  C   UNL     1     -12.625   7.495  35.561  0.00  0.00    +0.130 C 
ATOM     13  C   UNL     1     -13.658   6.544  34.987  0.00  0.00    +0.116 C 
ENDROOT
BRANCH  10  15
ATOM      2  O   UNL     1     -11.627   8.566  32.126  0.00  0.00    -0.336 OA
ATOM      5  N   UNL     1     -13.401   9.687  31.341  0.00  0.00    -0.189 NA
ATOM      6  N   UNL     1     -11.212   9.165  30.930  0.00  0.00    -0.054 NA
ATOM     15  C   UNL     1     -12.928   8.923  32.293  0.00  0.00    +0.245 A 
ATOM     19  C   UNL     1     -12.312   9.808  30.528  0.00  0.00    +0.222 A 
BRANCH  19  23
ATOM      8  N   UNL     1     -13.436  11.367  29.144  0.00  0.00    -0.249 NA
ATOM      9  N   UNL     1     -11.373  11.231  27.249  0.00  0.00    -0.260 NA
ATOM     23  C   UNL     1     -12.357  10.579  29.319  0.00  0.00    +0.129 A 
ATOM     24  C   UNL     1     -11.343  10.513  28.388  0.00  0.00    +0.142 A 
ATOM     26  C   UNL     1     -13.466  12.086  28.004  0.00  0.00    +0.131 A 
ATOM     27  C   UNL     1     -12.453  12.019  27.073  0.00  0.00    +0.130 A 
ENDBRANCH  19  23
ENDBRANCH  10  15
BRANCH  12   1
ATOM      1  O   UNL     1     -12.777   7.654  36.958  0.00  0.00    -0.390 OA
ATOM     29  H   UNL     1     -12.740   8.608  37.149  0.00  0.00    +0.210 HD
ENDBRANCH  12   1
BRANCH   4  14
ATOM     14  C   UNL     1     -14.798   6.355  32.859  0.00  0.00    +0.120 C 
BRANCH  14  16
ATOM     16  C   UNL     1     -14.432   5.087  32.133  0.00  0.00    -0.033 A 
ATOM     17  C   UNL     1     -13.316   4.353  32.530  0.00  0.00    +0.007 A 
ATOM     18  C   UNL     1     -15.211   4.649  31.062  0.00  0.00    +0.007 A 
ATOM     20  C   UNL     1     -12.976   3.180  31.857  0.00  0.00    +0.023 A 
ATOM     21  C   UNL     1     -14.872   3.476  30.388  0.00  0.00    +0.023 A 
ATOM     22  C   UNL     1     -13.755   2.741  30.786  0.00  0.00    +0.033 A 
BRANCH  22   7
ATOM      3  O   UNL     1     -14.705  -0.088  31.187  0.00  0.00    -0.276 OA
ATOM      7  N   UNL     1     -13.416   1.567  30.112  0.00  0.00    -0.286 N 
ATOM     25  C   UNL     1     -13.891   0.270  30.343  0.00  0.00    +0.214 C 
ATOM     28  C   UNL     1     -13.276  -0.728  29.392  0.00  0.00    +0.109 C 
ATOM     30  H   UNL     1     -12.739   1.679  29.360  0.00  0.00    +0.155 HD
ENDBRANCH  22   7
ENDBRANCH  14  16
ENDBRANCH   4  14
TORSDOF 6
ENDMDL
