MODEL 1
REMARK VINA RESULT:      -6.8      0.000      0.000
REMARK  Name = 75536789
REMARK  6 active torsions:
REMARK  status: ('A' for Active; 'I' for Inactive)
REMARK    1  A    between atoms: O_2  and  C_9
REMARK    2  A    between atoms: N_5  and  C_8
REMARK    3  A    between atoms: N_5  and  C_11
REMARK    4  A    between atoms: N_6  and  C_15
REMARK    5  A    between atoms: C_10  and  C_15
REMARK    6  A    between atoms: C_18  and  C_19
REMARK                            x       y       z     vdW  Elec       q    Type
REMARK                         _______ _______ _______ _____ _____    ______ ____
ROOT
ATOM      1  O   UNL     1      10.675   7.180  21.119  0.00  0.00    -0.371 OA
ATOM      8  C   UNL     1      11.350   9.253  22.063  0.00  0.00    +0.111 C 
ATOM      9  C   UNL     1      12.461   8.728  21.172  0.00  0.00    +0.164 C 
ATOM     10  C   UNL     1      11.694   7.758  20.286  0.00  0.00    +0.165 C 
ATOM     12  C   UNL     1      10.534   7.993  22.298  0.00  0.00    +0.181 C 
ENDROOT
BRANCH   9   2
ATOM      2  O   UNL     1      13.084   9.752  20.418  0.00  0.00    -0.388 OA
ATOM     25  H   UNL     1      12.817   9.652  19.489  0.00  0.00    +0.210 HD
ENDBRANCH   9   2
BRANCH   8   5
ATOM      5  N   UNL     1      11.827   9.857  23.296  0.00  0.00    -0.306 NA
ATOM     24  H   UNL     1      12.811  10.106  23.206  0.00  0.00    +0.123 HD
BRANCH   5  11
ATOM      3  O   UNL     1      10.980  13.833  24.346  0.00  0.00    -0.380 OA
ATOM     11  C   UNL     1      11.045  11.043  23.637  0.00  0.00    +0.058 C 
ATOM     13  C   UNL     1      11.256  12.157  22.608  0.00  0.00    +0.047 C 
ATOM     14  C   UNL     1      11.420  11.544  25.035  0.00  0.00    +0.047 C 
ATOM     16  C   UNL     1      10.542  13.429  23.048  0.00  0.00    +0.161 C 
ATOM     17  C   UNL     1      10.696  12.850  25.342  0.00  0.00    +0.161 C 
ENDBRANCH   5  11
ENDBRANCH   8   5
BRANCH  10  15
ATOM     15  C   UNL     1      12.565   6.658  19.705  0.00  0.00    +0.138 C 
BRANCH  15   6
ATOM      4  O   UNL     1      14.873   7.245  18.100  0.00  0.00    -0.270 OA
ATOM      6  N   UNL     1      13.921   6.769  20.162  0.00  0.00    -0.309 N 
ATOM     18  C   UNL     1      14.982   7.058  19.309  0.00  0.00    +0.244 C 
ATOM     26  H   UNL     1      14.090   6.559  21.140  0.00  0.00    +0.149 HD
BRANCH  18  19
ATOM      7  N   UNL     1      18.862   7.212  21.112  0.00  0.00    -0.263 NA
ATOM     19  C   UNL     1      16.329   7.113  19.933  0.00  0.00    +0.040 A 
ATOM     20  C   UNL     1      17.291   6.167  19.600  0.00  0.00    +0.033 A 
ATOM     21  C   UNL     1      16.631   8.109  20.855  0.00  0.00    +0.033 A 
ATOM     22  C   UNL     1      18.531   6.259  20.211  0.00  0.00    +0.111 A 
ATOM     23  C   UNL     1      17.901   8.115  21.411  0.00  0.00    +0.111 A 
ENDBRANCH  18  19
ENDBRANCH  15   6
ENDBRANCH  10  15
TORSDOF 6
ENDMDL
MODEL 2
REMARK VINA RESULT:      -6.6      0.961      1.751
REMARK  Name = 75536789
REMARK  6 active torsions:
REMARK  status: ('A' for Active; 'I' for Inactive)
REMARK    1  A    between atoms: O_2  and  C_9
REMARK    2  A    between atoms: N_5  and  C_8
REMARK    3  A    between atoms: N_5  and  C_11
REMARK    4  A    between atoms: N_6  and  C_15
REMARK    5  A    between atoms: C_10  and  C_15
REMARK    6  A    between atoms: C_18  and  C_19
REMARK                            x       y       z     vdW  Elec       q    Type
REMARK                         _______ _______ _______ _____ _____    ______ ____
ROOT
ATOM      1  O   UNL     1      11.403   7.346  20.242  0.00  0.00    -0.371 OA
ATOM      8  C   UNL     1      11.727   9.142  21.764  0.00  0.00    +0.111 C 
ATOM      9  C   UNL     1      13.080   8.622  21.315  0.00  0.00    +0.164 C 
ATOM     10  C   UNL     1      12.708   7.908  20.024  0.00  0.00    +0.165 C 
ATOM     12  C   UNL     1      10.822   7.977  21.398  0.00  0.00    +0.181 C 
ENDROOT
BRANCH   9   2
ATOM      2  O   UNL     1      14.017   9.660  21.093  0.00  0.00    -0.388 OA
ATOM     25  H   UNL     1      14.682   9.627  21.800  0.00  0.00    +0.210 HD
ENDBRANCH   9   2
BRANCH   8   5
ATOM      5  N   UNL     1      11.671   9.479  23.176  0.00  0.00    -0.306 NA
ATOM     24  H   UNL     1      12.447   9.043  23.672  0.00  0.00    +0.123 HD
BRANCH   5  11
ATOM      3  O   UNL     1      10.295  13.425  23.589  0.00  0.00    -0.380 OA
ATOM     11  C   UNL     1      11.710  10.927  23.373  0.00  0.00    +0.058 C 
ATOM     13  C   UNL     1      10.949  11.333  24.638  0.00  0.00    +0.047 C 
ATOM     14  C   UNL     1      11.122  11.645  22.154  0.00  0.00    +0.047 C 
ATOM     16  C   UNL     1      10.886  12.851  24.755  0.00  0.00    +0.161 C 
ATOM     17  C   UNL     1      11.050  13.147  22.409  0.00  0.00    +0.161 C 
ENDBRANCH   5  11
ENDBRANCH   8   5
BRANCH  10  15
ATOM     15  C   UNL     1      13.683   6.809  19.642  0.00  0.00    +0.138 C 
BRANCH  15   6
ATOM      4  O   UNL     1      16.188   5.866  18.604  0.00  0.00    -0.270 OA
ATOM      6  N   UNL     1      14.984   7.050  20.195  0.00  0.00    -0.309 N 
ATOM     18  C   UNL     1      16.150   6.551  19.622  0.00  0.00    +0.244 C 
ATOM     26  H   UNL     1      15.018   7.553  21.075  0.00  0.00    +0.149 HD
BRANCH  18  19
ATOM      7  N   UNL     1      19.802   7.466  21.660  0.00  0.00    -0.263 NA
ATOM     19  C   UNL     1      17.417   6.868  20.331  0.00  0.00    +0.040 A 
ATOM     20  C   UNL     1      17.481   7.956  21.192  0.00  0.00    +0.033 A 
ATOM     21  C   UNL     1      18.544   6.077  20.133  0.00  0.00    +0.033 A 
ATOM     22  C   UNL     1      18.686   8.211  21.827  0.00  0.00    +0.111 A 
ATOM     23  C   UNL     1      19.702   6.416  20.815  0.00  0.00    +0.111 A 
ENDBRANCH  18  19
ENDBRANCH  15   6
ENDBRANCH  10  15
TORSDOF 6
ENDMDL
MODEL 3
REMARK VINA RESULT:      -6.3      2.871      3.836
REMARK  Name = 75536789
REMARK  6 active torsions:
REMARK  status: ('A' for Active; 'I' for Inactive)
REMARK    1  A    between atoms: O_2  and  C_9
REMARK    2  A    between atoms: N_5  and  C_8
REMARK    3  A    between atoms: N_5  and  C_11
REMARK    4  A    between atoms: N_6  and  C_15
REMARK    5  A    between atoms: C_10  and  C_15
REMARK    6  A    between atoms: C_18  and  C_19
REMARK                            x       y       z     vdW  Elec       q    Type
REMARK                         _______ _______ _______ _____ _____    ______ ____
ROOT
ATOM      1  O   UNL     1      13.378   8.012  21.648  0.00  0.00    -0.371 OA
ATOM      8  C   UNL     1      11.332   8.842  22.526  0.00  0.00    +0.111 C 
ATOM      9  C   UNL     1      11.039   7.994  21.302  0.00  0.00    +0.164 C 
ATOM     10  C   UNL     1      12.307   7.158  21.212  0.00  0.00    +0.165 C 
ATOM     12  C   UNL     1      12.810   9.141  22.337  0.00  0.00    +0.181 C 
ENDROOT
BRANCH   9   2
ATOM      2  O   UNL     1       9.886   7.189  21.460  0.00  0.00    -0.388 OA
ATOM     25  H   UNL     1       9.136   7.768  21.673  0.00  0.00    +0.210 HD
ENDBRANCH   9   2
BRANCH   8   5
ATOM      5  N   UNL     1      10.518  10.043  22.613  0.00  0.00    -0.306 NA
ATOM     24  H   UNL     1       9.701   9.871  23.197  0.00  0.00    +0.123 HD
BRANCH   5  11
ATOM      3  O   UNL     1      11.321  13.760  24.394  0.00  0.00    -0.380 OA
ATOM     11  C   UNL     1      11.288  11.161  23.156  0.00  0.00    +0.058 C 
ATOM     13  C   UNL     1      10.988  11.365  24.644  0.00  0.00    +0.047 C 
ATOM     14  C   UNL     1      10.982  12.444  22.378  0.00  0.00    +0.047 C 
ATOM     16  C   UNL     1      11.693  12.613  25.160  0.00  0.00    +0.161 C 
ATOM     17  C   UNL     1      11.689  13.633  23.020  0.00  0.00    +0.161 C 
ENDBRANCH   5  11
ENDBRANCH   8   5
BRANCH  10  15
ATOM     15  C   UNL     1      12.595   6.650  19.811  0.00  0.00    +0.138 C 
BRANCH  15   6
ATOM      4  O   UNL     1      11.701   7.625  17.262  0.00  0.00    -0.270 OA
ATOM      6  N   UNL     1      13.227   7.658  19.009  0.00  0.00    -0.309 N 
ATOM     18  C   UNL     1      12.721   8.071  17.780  0.00  0.00    +0.244 C 
ATOM     26  H   UNL     1      14.112   8.020  19.348  0.00  0.00    +0.149 HD
BRANCH  18  19
ATOM      7  N   UNL     1      14.982  11.056  15.705  0.00  0.00    -0.263 NA
ATOM     19  C   UNL     1      13.507   9.106  17.061  0.00  0.00    +0.040 A 
ATOM     20  C   UNL     1      13.780  10.324  17.671  0.00  0.00    +0.033 A 
ATOM     21  C   UNL     1      13.972   8.860  15.773  0.00  0.00    +0.033 A 
ATOM     22  C   UNL     1      14.515  11.258  16.958  0.00  0.00    +0.111 A 
ATOM     23  C   UNL     1      14.698   9.859  15.144  0.00  0.00    +0.111 A 
ENDBRANCH  18  19
ENDBRANCH  15   6
ENDBRANCH  10  15
TORSDOF 6
ENDMDL
MODEL 4
REMARK VINA RESULT:      -6.2      2.955      6.991
REMARK  Name = 75536789
REMARK  6 active torsions:
REMARK  status: ('A' for Active; 'I' for Inactive)
REMARK    1  A    between atoms: O_2  and  C_9
REMARK    2  A    between atoms: N_5  and  C_8
REMARK    3  A    between atoms: N_5  and  C_11
REMARK    4  A    between atoms: N_6  and  C_15
REMARK    5  A    between atoms: C_10  and  C_15
REMARK    6  A    between atoms: C_18  and  C_19
REMARK                            x       y       z     vdW  Elec       q    Type
REMARK                         _______ _______ _______ _____ _____    ______ ____
ROOT
ATOM      1  O   UNL     1      10.518   8.430  20.036  0.00  0.00    -0.371 OA
ATOM      8  C   UNL     1      12.455   7.385  19.139  0.00  0.00    +0.111 C 
ATOM      9  C   UNL     1      12.505   7.305  20.654  0.00  0.00    +0.164 C 
ATOM     10  C   UNL     1      11.038   7.507  21.008  0.00  0.00    +0.165 C 
ATOM     12  C   UNL     1      11.438   8.495  18.931  0.00  0.00    +0.181 C 
ENDROOT
BRANCH   9   2
ATOM      2  O   UNL     1      12.994   6.061  21.118  0.00  0.00    -0.388 OA
ATOM     25  H   UNL     1      12.786   5.985  22.065  0.00  0.00    +0.210 HD
ENDBRANCH   9   2
BRANCH   8   5
ATOM      5  N   UNL     1      13.741   7.675  18.528  0.00  0.00    -0.306 NA
ATOM     24  H   UNL     1      13.977   6.952  17.849  0.00  0.00    +0.123 HD
BRANCH   5  11
ATOM      3  O   UNL     1      15.147  11.023  16.420  0.00  0.00    -0.380 OA
ATOM     11  C   UNL     1      13.730   8.982  17.875  0.00  0.00    +0.058 C 
ATOM     13  C   UNL     1      14.049   8.855  16.382  0.00  0.00    +0.047 C 
ATOM     14  C   UNL     1      14.735   9.922  18.547  0.00  0.00    +0.047 C 
ATOM     16  C   UNL     1      14.166  10.235  15.745  0.00  0.00    +0.161 C 
ATOM     17  C   UNL     1      14.813  11.243  17.790  0.00  0.00    +0.161 C 
ENDBRANCH   5  11
ENDBRANCH   8   5
BRANCH  10  15
ATOM     15  C   UNL     1      10.828   8.061  22.406  0.00  0.00    +0.138 C 
BRANCH  15   6
ATOM      4  O   UNL     1      12.798  10.119  22.757  0.00  0.00    -0.270 OA
ATOM      6  N   UNL     1      10.602   9.477  22.377  0.00  0.00    -0.309 N 
ATOM     18  C   UNL     1      11.622  10.407  22.558  0.00  0.00    +0.244 C 
ATOM     26  H   UNL     1       9.639   9.782  22.285  0.00  0.00    +0.149 HD
BRANCH  18  19
ATOM      7  N   UNL     1      10.457  14.525  22.465  0.00  0.00    -0.263 NA
ATOM     19  C   UNL     1      11.219  11.837  22.527  0.00  0.00    +0.040 A 
ATOM     20  C   UNL     1      10.644  12.424  23.647  0.00  0.00    +0.033 A 
ATOM     21  C   UNL     1      11.415  12.592  21.375  0.00  0.00    +0.033 A 
ATOM     22  C   UNL     1      10.283  13.760  23.566  0.00  0.00    +0.111 A 
ATOM     23  C   UNL     1      11.019  13.920  21.395  0.00  0.00    +0.111 A 
ENDBRANCH  18  19
ENDBRANCH  15   6
ENDBRANCH  10  15
TORSDOF 6
ENDMDL
MODEL 5
REMARK VINA RESULT:      -6.2      2.162      6.247
REMARK  Name = 75536789
REMARK  6 active torsions:
REMARK  status: ('A' for Active; 'I' for Inactive)
REMARK    1  A    between atoms: O_2  and  C_9
REMARK    2  A    between atoms: N_5  and  C_8
REMARK    3  A    between atoms: N_5  and  C_11
REMARK    4  A    between atoms: N_6  and  C_15
REMARK    5  A    between atoms: C_10  and  C_15
REMARK    6  A    between atoms: C_18  and  C_19
REMARK                            x       y       z     vdW  Elec       q    Type
REMARK                         _______ _______ _______ _____ _____    ______ ____
ROOT
ATOM      1  O   UNL     1      10.678   8.732  20.044  0.00  0.00    -0.371 OA
ATOM      8  C   UNL     1      12.349   7.182  19.373  0.00  0.00    +0.111 C 
ATOM      9  C   UNL     1      12.231   7.159  20.886  0.00  0.00    +0.164 C 
ATOM     10  C   UNL     1      10.842   7.750  21.081  0.00  0.00    +0.165 C 
ATOM     12  C   UNL     1      11.685   8.507  19.040  0.00  0.00    +0.181 C 
ENDROOT
BRANCH   9   2
ATOM      2  O   UNL     1      12.328   5.853  21.421  0.00  0.00    -0.388 OA
ATOM     25  H   UNL     1      11.687   5.771  22.146  0.00  0.00    +0.210 HD
ENDBRANCH   9   2
BRANCH   8   5
ATOM      5  N   UNL     1      13.719   7.100  18.894  0.00  0.00    -0.306 NA
ATOM     24  H   UNL     1      13.841   7.697  18.078  0.00  0.00    +0.123 HD
BRANCH   5  11
ATOM      3  O   UNL     1      17.369   8.110  20.709  0.00  0.00    -0.380 OA
ATOM     11  C   UNL     1      14.665   7.489  19.938  0.00  0.00    +0.058 C 
ATOM     13  C   UNL     1      15.324   8.833  19.612  0.00  0.00    +0.047 C 
ATOM     14  C   UNL     1      15.736   6.409  20.116  0.00  0.00    +0.047 C 
ATOM     16  C   UNL     1      16.402   9.158  20.639  0.00  0.00    +0.161 C 
ATOM     17  C   UNL     1      16.791   6.869  21.116  0.00  0.00    +0.161 C 
ENDBRANCH   5  11
ENDBRANCH   8   5
BRANCH  10  15
ATOM     15  C   UNL     1      10.651   8.402  22.439  0.00  0.00    +0.138 C 
BRANCH  15   6
ATOM      4  O   UNL     1      10.528  11.076  23.477  0.00  0.00    -0.270 OA
ATOM      6  N   UNL     1      11.764   9.242  22.776  0.00  0.00    -0.309 N 
ATOM     18  C   UNL     1      11.610  10.532  23.276  0.00  0.00    +0.244 C 
ATOM     26  H   UNL     1      12.688   8.878  22.569  0.00  0.00    +0.149 HD
BRANCH  18  19
ATOM      7  N   UNL     1      15.217  12.699  24.063  0.00  0.00    -0.263 NA
ATOM     19  C   UNL     1      12.862  11.283  23.551  0.00  0.00    +0.040 A 
ATOM     20  C   UNL     1      12.861  12.331  24.463  0.00  0.00    +0.033 A 
ATOM     21  C   UNL     1      14.040  10.940  22.894  0.00  0.00    +0.033 A 
ATOM     22  C   UNL     1      14.054  13.002  24.682  0.00  0.00    +0.111 A 
ATOM     23  C   UNL     1      15.180  11.673  23.183  0.00  0.00    +0.111 A 
ENDBRANCH  18  19
ENDBRANCH  15   6
ENDBRANCH  10  15
TORSDOF 6
ENDMDL
MODEL 6
REMARK VINA RESULT:      -6.2     26.152     27.832
REMARK  Name = 75536789
REMARK  6 active torsions:
REMARK  status: ('A' for Active; 'I' for Inactive)
REMARK    1  A    between atoms: O_2  and  C_9
REMARK    2  A    between atoms: N_5  and  C_8
REMARK    3  A    between atoms: N_5  and  C_11
REMARK    4  A    between atoms: N_6  and  C_15
REMARK    5  A    between atoms: C_10  and  C_15
REMARK    6  A    between atoms: C_18  and  C_19
REMARK                            x       y       z     vdW  Elec       q    Type
REMARK                         _______ _______ _______ _____ _____    ______ ____
ROOT
ATOM      1  O   UNL     1      -1.408 -11.231  14.972  0.00  0.00    -0.371 OA
ATOM      8  C   UNL     1      -3.611 -10.977  15.825  0.00  0.00    +0.111 C 
ATOM      9  C   UNL     1      -3.665 -10.991  14.308  0.00  0.00    +0.164 C 
ATOM     10  C   UNL     1      -2.344 -11.669  13.974  0.00  0.00    +0.165 C 
ATOM     12  C   UNL     1      -2.144 -10.662  16.070  0.00  0.00    +0.181 C 
ENDROOT
BRANCH   9   2
ATOM      2  O   UNL     1      -4.772 -11.716  13.809  0.00  0.00    -0.388 OA
ATOM     25  H   UNL     1      -5.403 -11.085  13.424  0.00  0.00    +0.210 HD
ENDBRANCH   9   2
BRANCH   8   5
ATOM      5  N   UNL     1      -4.507 -10.006  16.432  0.00  0.00    -0.306 NA
ATOM     24  H   UNL     1      -4.973  -9.460  15.708  0.00  0.00    +0.123 HD
BRANCH   5  11
ATOM      3  O   UNL     1      -7.109 -10.650  19.663  0.00  0.00    -0.380 OA
ATOM     11  C   UNL     1      -5.503 -10.665  17.274  0.00  0.00    +0.058 C 
ATOM     13  C   UNL     1      -6.764  -9.807  17.410  0.00  0.00    +0.047 C 
ATOM     14  C   UNL     1      -4.918 -10.960  18.658  0.00  0.00    +0.047 C 
ATOM     16  C   UNL     1      -7.735 -10.444  18.396  0.00  0.00    +0.161 C 
ATOM     17  C   UNL     1      -5.992 -11.534  19.576  0.00  0.00    +0.161 C 
ENDBRANCH   5  11
ENDBRANCH   8   5
BRANCH  10  15
ATOM     15  C   UNL     1      -1.822 -11.318  12.592  0.00  0.00    +0.138 C 
BRANCH  15   6
ATOM      4  O   UNL     1      -1.779  -9.146  10.715  0.00  0.00    -0.270 OA
ATOM      6  N   UNL     1      -2.887 -10.921  11.716  0.00  0.00    -0.309 N 
ATOM     18  C   UNL     1      -2.777  -9.850  10.834  0.00  0.00    +0.244 C 
ATOM     26  H   UNL     1      -3.765 -11.420  11.813  0.00  0.00    +0.149 HD
BRANCH  18  19
ATOM      7  N   UNL     1      -6.237  -8.984   8.466  0.00  0.00    -0.263 NA
ATOM     19  C   UNL     1      -3.979  -9.551  10.013  0.00  0.00    +0.040 A 
ATOM     20  C   UNL     1      -4.284 -10.339   8.910  0.00  0.00    +0.033 A 
ATOM     21  C   UNL     1      -4.801  -8.479  10.345  0.00  0.00    +0.033 A 
ATOM     22  C   UNL     1      -5.414 -10.017   8.175  0.00  0.00    +0.111 A 
ATOM     23  C   UNL     1      -5.908  -8.240   9.546  0.00  0.00    +0.111 A 
ENDBRANCH  18  19
ENDBRANCH  15   6
ENDBRANCH  10  15
TORSDOF 6
ENDMDL
MODEL 7
REMARK VINA RESULT:      -6.0      3.363      4.628
REMARK  Name = 75536789
REMARK  6 active torsions:
REMARK  status: ('A' for Active; 'I' for Inactive)
REMARK    1  A    between atoms: O_2  and  C_9
REMARK    2  A    between atoms: N_5  and  C_8
REMARK    3  A    between atoms: N_5  and  C_11
REMARK    4  A    between atoms: N_6  and  C_15
REMARK    5  A    between atoms: C_10  and  C_15
REMARK    6  A    between atoms: C_18  and  C_19
REMARK                            x       y       z     vdW  Elec       q    Type
REMARK                         _______ _______ _______ _____ _____    ______ ____
ROOT
ATOM      1  O   UNL     1      12.971   8.276  21.875  0.00  0.00    -0.371 OA
ATOM      8  C   UNL     1      12.794  10.467  22.778  0.00  0.00    +0.111 C 
ATOM      9  C   UNL     1      11.458  10.068  22.180  0.00  0.00    +0.164 C 
ATOM     10  C   UNL     1      11.589   8.552  22.155  0.00  0.00    +0.165 C 
ATOM     12  C   UNL     1      13.731   9.476  22.106  0.00  0.00    +0.181 C 
ENDROOT
BRANCH   9   2
ATOM      2  O   UNL     1      10.360  10.490  22.968  0.00  0.00    -0.388 OA
ATOM     25  H   UNL     1      10.459  11.440  23.145  0.00  0.00    +0.210 HD
ENDBRANCH   9   2
BRANCH   8   5
ATOM      5  N   UNL     1      13.157  11.851  22.522  0.00  0.00    -0.306 NA
ATOM     24  H   UNL     1      12.376  12.345  22.093  0.00  0.00    +0.123 HD
BRANCH   5  11
ATOM      3  O   UNL     1      13.474  12.652  26.632  0.00  0.00    -0.380 OA
ATOM     11  C   UNL     1      13.551  12.528  23.756  0.00  0.00    +0.058 C 
ATOM     13  C   UNL     1      14.400  11.611  24.641  0.00  0.00    +0.047 C 
ATOM     14  C   UNL     1      12.312  12.996  24.525  0.00  0.00    +0.047 C 
ATOM     16  C   UNL     1      14.689  12.282  25.978  0.00  0.00    +0.161 C 
ATOM     17  C   UNL     1      12.716  13.591  25.869  0.00  0.00    +0.161 C 
ENDBRANCH   5  11
ENDBRANCH   8   5
BRANCH  10  15
ATOM     15  C   UNL     1      10.712   7.890  21.106  0.00  0.00    +0.138 C 
BRANCH  15   6
ATOM      4  O   UNL     1      12.269   6.645  19.039  0.00  0.00    -0.270 OA
ATOM      6  N   UNL     1      10.976   8.416  19.797  0.00  0.00    -0.309 N 
ATOM     18  C   UNL     1      11.745   7.741  18.855  0.00  0.00    +0.244 C 
ATOM     26  H   UNL     1      10.629   9.350  19.604  0.00  0.00    +0.149 HD
BRANCH  18  19
ATOM      7  N   UNL     1      12.329   9.727  15.108  0.00  0.00    -0.263 NA
ATOM     19  C   UNL     1      11.947   8.432  17.555  0.00  0.00    +0.040 A 
ATOM     20  C   UNL     1      10.870   8.645  16.704  0.00  0.00    +0.033 A 
ATOM     21  C   UNL     1      13.216   8.866  17.185  0.00  0.00    +0.033 A 
ATOM     22  C   UNL     1      11.111   9.292  15.502  0.00  0.00    +0.111 A 
ATOM     23  C   UNL     1      13.353   9.502  15.962  0.00  0.00    +0.111 A 
ENDBRANCH  18  19
ENDBRANCH  15   6
ENDBRANCH  10  15
TORSDOF 6
ENDMDL
MODEL 8
REMARK VINA RESULT:      -5.9      2.413      4.010
REMARK  Name = 75536789
REMARK  6 active torsions:
REMARK  status: ('A' for Active; 'I' for Inactive)
REMARK    1  A    between atoms: O_2  and  C_9
REMARK    2  A    between atoms: N_5  and  C_8
REMARK    3  A    between atoms: N_5  and  C_11
REMARK    4  A    between atoms: N_6  and  C_15
REMARK    5  A    between atoms: C_10  and  C_15
REMARK    6  A    between atoms: C_18  and  C_19
REMARK                            x       y       z     vdW  Elec       q    Type
REMARK                         _______ _______ _______ _____ _____    ______ ____
ROOT
ATOM      1  O   UNL     1      14.897   7.433  17.901  0.00  0.00    -0.371 OA
ATOM      8  C   UNL     1      13.062   7.753  19.376  0.00  0.00    +0.111 C 
ATOM      9  C   UNL     1      14.111   6.902  20.068  0.00  0.00    +0.164 C 
ATOM     10  C   UNL     1      15.350   7.243  19.252  0.00  0.00    +0.165 C 
ATOM     12  C   UNL     1      13.468   7.605  17.919  0.00  0.00    +0.181 C 
ENDROOT
BRANCH   9   2
ATOM      2  O   UNL     1      14.270   7.237  21.434  0.00  0.00    -0.388 OA
ATOM     25  H   UNL     1      14.490   8.181  21.493  0.00  0.00    +0.210 HD
ENDBRANCH   9   2
BRANCH   8   5
ATOM      5  N   UNL     1      11.698   7.318  19.630  0.00  0.00    -0.306 NA
ATOM     24  H   UNL     1      11.697   6.370  20.005  0.00  0.00    +0.123 HD
BRANCH   5  11
ATOM      3  O   UNL     1      11.121   9.804  22.964  0.00  0.00    -0.380 OA
ATOM     11  C   UNL     1      11.024   8.219  20.563  0.00  0.00    +0.058 C 
ATOM     13  C   UNL     1      11.728   9.578  20.622  0.00  0.00    +0.047 C 
ATOM     14  C   UNL     1      10.971   7.595  21.960  0.00  0.00    +0.047 C 
ATOM     16  C   UNL     1      11.095  10.456  21.694  0.00  0.00    +0.161 C 
ATOM     17  C   UNL     1      10.379   8.584  22.959  0.00  0.00    +0.161 C 
ENDBRANCH   5  11
ENDBRANCH   8   5
BRANCH  10  15
ATOM     15  C   UNL     1      16.411   6.158  19.289  0.00  0.00    +0.138 C 
BRANCH  15   6
ATOM      4  O   UNL     1      18.922   4.782  19.512  0.00  0.00    -0.270 OA
ATOM      6  N   UNL     1      17.542   6.559  20.076  0.00  0.00    -0.309 N 
ATOM     18  C   UNL     1      18.724   5.827  20.125  0.00  0.00    +0.244 C 
ATOM     26  H   UNL     1      17.420   7.379  20.661  0.00  0.00    +0.149 HD
BRANCH  18  19
ATOM      7  N   UNL     1      21.799   7.367  22.674  0.00  0.00    -0.263 NA
ATOM     19  C   UNL     1      19.792   6.363  21.008  0.00  0.00    +0.040 A 
ATOM     20  C   UNL     1      21.120   6.027  20.780  0.00  0.00    +0.033 A 
ATOM     21  C   UNL     1      19.464   7.202  22.069  0.00  0.00    +0.033 A 
ATOM     22  C   UNL     1      22.078   6.550  21.634  0.00  0.00    +0.111 A 
ATOM     23  C   UNL     1      20.496   7.672  22.866  0.00  0.00    +0.111 A 
ENDBRANCH  18  19
ENDBRANCH  15   6
ENDBRANCH  10  15
TORSDOF 6
ENDMDL
MODEL 9
REMARK VINA RESULT:      -5.8     26.459     28.190
REMARK  Name = 75536789
REMARK  6 active torsions:
REMARK  status: ('A' for Active; 'I' for Inactive)
REMARK    1  A    between atoms: O_2  and  C_9
REMARK    2  A    between atoms: N_5  and  C_8
REMARK    3  A    between atoms: N_5  and  C_11
REMARK    4  A    between atoms: N_6  and  C_15
REMARK    5  A    between atoms: C_10  and  C_15
REMARK    6  A    between atoms: C_18  and  C_19
REMARK                            x       y       z     vdW  Elec       q    Type
REMARK                         _______ _______ _______ _____ _____    ______ ____
ROOT
ATOM      1  O   UNL     1      -4.265 -10.534  14.370  0.00  0.00    -0.371 OA
ATOM      8  C   UNL     1      -4.068 -11.448  16.554  0.00  0.00    +0.111 C 
ATOM      9  C   UNL     1      -2.711 -11.490  15.874  0.00  0.00    +0.164 C 
ATOM     10  C   UNL     1      -2.893 -10.439  14.789  0.00  0.00    +0.165 C 
ATOM     12  C   UNL     1      -4.995 -11.278  15.362  0.00  0.00    +0.181 C 
ENDROOT
BRANCH   9   2
ATOM      2  O   UNL     1      -1.651 -11.163  16.753  0.00  0.00    -0.388 OA
ATOM     25  H   UNL     1      -1.614 -11.838  17.451  0.00  0.00    +0.210 HD
ENDBRANCH   9   2
BRANCH   8   5
ATOM      5  N   UNL     1      -4.365 -12.636  17.337  0.00  0.00    -0.306 NA
ATOM     24  H   UNL     1      -3.500 -13.092  17.623  0.00  0.00    +0.123 HD
BRANCH   5  11
ATOM      3  O   UNL     1      -7.428 -10.942  19.656  0.00  0.00    -0.380 OA
ATOM     11  C   UNL     1      -5.161 -12.302  18.516  0.00  0.00    +0.058 C 
ATOM     13  C   UNL     1      -6.590 -12.837  18.386  0.00  0.00    +0.047 C 
ATOM     14  C   UNL     1      -5.186 -10.786  18.730  0.00  0.00    +0.047 C 
ATOM     16  C   UNL     1      -7.442 -12.367  19.559  0.00  0.00    +0.161 C 
ATOM     17  C   UNL     1      -6.116 -10.429  19.885  0.00  0.00    +0.161 C 
ENDBRANCH   5  11
ENDBRANCH   8   5
BRANCH  10  15
ATOM     15  C   UNL     1      -1.977 -10.642  13.596  0.00  0.00    +0.138 C 
BRANCH  15   6
ATOM      4  O   UNL     1      -2.830 -12.524  11.602  0.00  0.00    -0.270 OA
ATOM      6  N   UNL     1      -2.649 -10.341  12.364  0.00  0.00    -0.309 N 
ATOM     18  C   UNL     1      -3.027 -11.322  11.453  0.00  0.00    +0.244 C 
ATOM     26  H   UNL     1      -2.782  -9.359  12.147  0.00  0.00    +0.149 HD
BRANCH  18  19
ATOM      7  N   UNL     1      -4.934  -9.945   7.876  0.00  0.00    -0.263 NA
ATOM     19  C   UNL     1      -3.691 -10.844  10.212  0.00  0.00    +0.040 A 
ATOM     20  C   UNL     1      -4.184 -11.758   9.289  0.00  0.00    +0.033 A 
ATOM     21  C   UNL     1      -3.818  -9.481   9.969  0.00  0.00    +0.033 A 
ATOM     22  C   UNL     1      -4.792 -11.262   8.147  0.00  0.00    +0.111 A 
ATOM     23  C   UNL     1      -4.442  -9.086   8.796  0.00  0.00    +0.111 A 
ENDBRANCH  18  19
ENDBRANCH  15   6
ENDBRANCH  10  15
TORSDOF 6
ENDMDL
MODEL 10
REMARK VINA RESULT:      -5.8     25.966     28.422
REMARK  Name = 75536789
REMARK  6 active torsions:
REMARK  status: ('A' for Active; 'I' for Inactive)
REMARK    1  A    between atoms: O_2  and  C_9
REMARK    2  A    between atoms: N_5  and  C_8
REMARK    3  A    between atoms: N_5  and  C_11
REMARK    4  A    between atoms: N_6  and  C_15
REMARK    5  A    between atoms: C_10  and  C_15
REMARK    6  A    between atoms: C_18  and  C_19
REMARK                            x       y       z     vdW  Elec       q    Type
REMARK                         _______ _______ _______ _____ _____    ______ ____
ROOT
ATOM      1  O   UNL     1      -8.741 -11.054  18.683  0.00  0.00    -0.371 OA
ATOM      8  C   UNL     1      -9.355  -9.141  17.414  0.00  0.00    +0.111 C 
ATOM      9  C   UNL     1      -7.847  -9.302  17.370  0.00  0.00    +0.164 C 
ATOM     10  C   UNL     1      -7.697 -10.771  17.736  0.00  0.00    +0.165 C 
ATOM     12  C   UNL     1      -9.712  -9.993  18.621  0.00  0.00    +0.181 C 
ENDROOT
BRANCH   9   2
ATOM      2  O   UNL     1      -7.306  -9.018  16.093  0.00  0.00    -0.388 OA
ATOM     25  H   UNL     1      -6.455  -8.566  16.215  0.00  0.00    +0.210 HD
ENDBRANCH   9   2
BRANCH   8   5
ATOM      5  N   UNL     1      -9.790  -7.760  17.549  0.00  0.00    -0.306 NA
ATOM     24  H   UNL     1      -9.039  -7.128  17.277  0.00  0.00    +0.123 HD
BRANCH   5  11
ATOM      3  O   UNL     1     -12.112  -6.927  14.150  0.00  0.00    -0.380 OA
ATOM     11  C   UNL     1     -10.974  -7.501  16.732  0.00  0.00    +0.058 C 
ATOM     13  C   UNL     1     -11.147  -8.575  15.654  0.00  0.00    +0.047 C 
ATOM     14  C   UNL     1     -10.881  -6.117  16.083  0.00  0.00    +0.047 C 
ATOM     16  C   UNL     1     -12.305  -8.218  14.730  0.00  0.00    +0.161 C 
ATOM     17  C   UNL     1     -12.055  -5.896  15.135  0.00  0.00    +0.161 C 
ENDBRANCH   5  11
ENDBRANCH   8   5
BRANCH  10  15
ATOM     15  C   UNL     1      -6.347 -11.104  18.346  0.00  0.00    +0.138 C 
BRANCH  15   6
ATOM      4  O   UNL     1      -4.977 -12.809  16.485  0.00  0.00    -0.270 OA
ATOM      6  N   UNL     1      -5.272 -10.730  17.472  0.00  0.00    -0.309 N 
ATOM     18  C   UNL     1      -4.665 -11.627  16.598  0.00  0.00    +0.244 C 
ATOM     26  H   UNL     1      -4.920  -9.783  17.565  0.00  0.00    +0.149 HD
BRANCH  18  19
ATOM      7  N   UNL     1      -1.444 -10.084  14.237  0.00  0.00    -0.263 NA
ATOM     19  C   UNL     1      -3.548 -11.090  15.779  0.00  0.00    +0.040 A 
ATOM     20  C   UNL     1      -3.681 -10.988  14.399  0.00  0.00    +0.033 A 
ATOM     21  C   UNL     1      -2.364 -10.688  16.390  0.00  0.00    +0.033 A 
ATOM     22  C   UNL     1      -2.610 -10.483  13.680  0.00  0.00    +0.111 A 
ATOM     23  C   UNL     1      -1.352 -10.197  15.581  0.00  0.00    +0.111 A 
ENDBRANCH  18  19
ENDBRANCH  15   6
ENDBRANCH  10  15
TORSDOF 6
ENDMDL
