MODEL 1
REMARK VINA RESULT:      -7.2      0.000      0.000
REMARK  Name = 56774569
REMARK  8 active torsions:
REMARK  status: ('A' for Active; 'I' for Inactive)
REMARK    1  A    between atoms: O_2  and  C_9
REMARK    2  A    between atoms: N_5  and  C_11
REMARK    3  A    between atoms: N_6  and  C_20
REMARK    4  A    between atoms: N_7  and  C_22
REMARK    5  A    between atoms: C_8  and  C_9
REMARK    6  A    between atoms: C_9  and  C_12
REMARK    7  A    between atoms: C_11  and  C_15
REMARK    8  A    between atoms: C_22  and  C_23
REMARK                            x       y       z     vdW  Elec       q    Type
REMARK                         _______ _______ _______ _____ _____    ______ ____
ROOT
ATOM     12  C   UNL     1      16.076   6.512  20.002  0.00  0.00    -0.017 A 
ATOM     16  C   UNL     1      16.741   5.833  18.981  0.00  0.00    +0.008 A 
ATOM     17  C   UNL     1      16.790   6.995  21.098  0.00  0.00    +0.008 A 
ATOM     18  C   UNL     1      18.120   5.638  19.056  0.00  0.00    +0.024 A 
ATOM     19  C   UNL     1      18.169   6.801  21.173  0.00  0.00    +0.024 A 
ATOM     20  C   UNL     1      18.835   6.122  20.152  0.00  0.00    +0.035 A 
ENDROOT
BRANCH  20   6
ATOM      4  O   UNL     1      20.419   3.625  20.662  0.00  0.00    -0.253 OA
ATOM      6  N   UNL     1      20.214   5.927  20.227  0.00  0.00    -0.269 N 
ATOM      7  N   UNL     1      22.299   4.956  20.467  0.00  0.00    -0.299 N 
ATOM     21  C   UNL     1      20.919   4.731  20.470  0.00  0.00    +0.304 C 
ATOM     25  H   UNL     1      20.783   6.759  20.088  0.00  0.00    +0.156 HD
ATOM     26  H   UNL     1      22.639   5.896  20.291  0.00  0.00    +0.150 HD
BRANCH   7  22
ATOM     22  C   UNL     1      23.269   3.909  20.690  0.00  0.00    +0.102 C 
ATOM     23  C   UNL     1      24.534   4.144  19.892  0.00  0.00    +0.024 C 
ENDBRANCH   7  22
ENDBRANCH  20   6
BRANCH  12   9
ATOM      9  C   UNL     1      14.586   6.722  19.921  0.00  0.00    +0.167 C 
BRANCH   9   8
ATOM      1  O   UNL     1      13.411   7.873  17.492  0.00  0.00    -0.369 OA
ATOM      3  O   UNL     1      10.588   8.404  19.681  0.00  0.00    -0.273 OA
ATOM      5  N   UNL     1      12.862   8.468  20.176  0.00  0.00    -0.292 N 
ATOM      8  C   UNL     1      14.229   8.196  19.715  0.00  0.00    +0.135 C 
ATOM     10  C   UNL     1      14.374   8.597  18.251  0.00  0.00    +0.185 C 
ATOM     13  C   UNL     1      11.766   8.359  19.321  0.00  0.00    +0.242 C 
ATOM     14  C   UNL     1      12.100   8.262  17.837  0.00  0.00    +0.255 C 
BRANCH   5  11
ATOM     11  C   UNL     1      12.663   8.676  21.604  0.00  0.00    +0.105 C 
ATOM     15  C   UNL     1      13.682   9.644  22.171  0.00  0.00    +0.024 C 
ENDBRANCH   5  11
ENDBRANCH   9   8
BRANCH   9   2
ATOM      2  O   UNL     1      13.973   6.253  21.119  0.00  0.00    -0.385 OA
ATOM     24  H   UNL     1      13.325   6.909  21.424  0.00  0.00    +0.210 HD
ENDBRANCH   9   2
ENDBRANCH  12   9
TORSDOF 6
ENDMDL
MODEL 2
REMARK VINA RESULT:      -6.4      5.103      7.408
REMARK  Name = 56774569
REMARK  8 active torsions:
REMARK  status: ('A' for Active; 'I' for Inactive)
REMARK    1  A    between atoms: O_2  and  C_9
REMARK    2  A    between atoms: N_5  and  C_11
REMARK    3  A    between atoms: N_6  and  C_20
REMARK    4  A    between atoms: N_7  and  C_22
REMARK    5  A    between atoms: C_8  and  C_9
REMARK    6  A    between atoms: C_9  and  C_12
REMARK    7  A    between atoms: C_11  and  C_15
REMARK    8  A    between atoms: C_22  and  C_23
REMARK                            x       y       z     vdW  Elec       q    Type
REMARK                         _______ _______ _______ _____ _____    ______ ____
ROOT
ATOM     12  C   UNL     1      12.582   9.726  18.237  0.00  0.00    -0.017 A 
ATOM     16  C   UNL     1      12.319   9.121  17.009  0.00  0.00    +0.008 A 
ATOM     17  C   UNL     1      13.685  10.568  18.379  0.00  0.00    +0.008 A 
ATOM     18  C   UNL     1      13.160   9.358  15.921  0.00  0.00    +0.024 A 
ATOM     19  C   UNL     1      14.525  10.805  17.291  0.00  0.00    +0.024 A 
ATOM     20  C   UNL     1      14.263  10.200  16.062  0.00  0.00    +0.035 A 
ENDROOT
BRANCH  20   6
ATOM      4  O   UNL     1      14.151  12.325  13.946  0.00  0.00    -0.253 OA
ATOM      6  N   UNL     1      15.104  10.437  14.975  0.00  0.00    -0.269 N 
ATOM      7  N   UNL     1      16.054  11.346  13.072  0.00  0.00    -0.299 N 
ATOM     21  C   UNL     1      15.013  11.451  14.001  0.00  0.00    +0.304 C 
ATOM     25  H   UNL     1      15.884   9.791  14.873  0.00  0.00    +0.156 HD
ATOM     26  H   UNL     1      16.736  10.603  13.187  0.00  0.00    +0.150 HD
BRANCH   7  22
ATOM     22  C   UNL     1      16.213  12.254  11.960  0.00  0.00    +0.102 C 
ATOM     23  C   UNL     1      17.615  12.195  11.390  0.00  0.00    +0.024 C 
ENDBRANCH   7  22
ENDBRANCH  20   6
BRANCH  12   9
ATOM      9  C   UNL     1      11.673   9.470  19.413  0.00  0.00    +0.167 C 
BRANCH   9   8
ATOM      1  O   UNL     1      10.595   9.104  22.116  0.00  0.00    -0.369 OA
ATOM      3  O   UNL     1      11.007   5.611  21.293  0.00  0.00    -0.273 OA
ATOM      5  N   UNL     1      12.307   7.434  20.653  0.00  0.00    -0.292 N 
ATOM      8  C   UNL     1      12.438   8.895  20.608  0.00  0.00    +0.135 C 
ATOM     10  C   UNL     1      11.947   9.502  21.917  0.00  0.00    +0.185 C 
ATOM     13  C   UNL     1      11.275   6.813  21.355  0.00  0.00    +0.242 C 
ATOM     14  C   UNL     1      10.504   7.711  22.316  0.00  0.00    +0.255 C 
BRANCH   5  11
ATOM     11  C   UNL     1      13.182   6.652  19.788  0.00  0.00    +0.105 C 
ATOM     15  C   UNL     1      14.629   7.072  19.940  0.00  0.00    +0.024 C 
ENDBRANCH   5  11
ENDBRANCH   9   8
BRANCH   9   2
ATOM      2  O   UNL     1      10.646   8.560  19.030  0.00  0.00    -0.385 OA
ATOM     24  H   UNL     1       9.785   8.914  19.308  0.00  0.00    +0.210 HD
ENDBRANCH   9   2
ENDBRANCH  12   9
TORSDOF 6
ENDMDL
MODEL 3
REMARK VINA RESULT:      -6.3      1.968      2.082
REMARK  Name = 56774569
REMARK  8 active torsions:
REMARK  status: ('A' for Active; 'I' for Inactive)
REMARK    1  A    between atoms: O_2  and  C_9
REMARK    2  A    between atoms: N_5  and  C_11
REMARK    3  A    between atoms: N_6  and  C_20
REMARK    4  A    between atoms: N_7  and  C_22
REMARK    5  A    between atoms: C_8  and  C_9
REMARK    6  A    between atoms: C_9  and  C_12
REMARK    7  A    between atoms: C_11  and  C_15
REMARK    8  A    between atoms: C_22  and  C_23
REMARK                            x       y       z     vdW  Elec       q    Type
REMARK                         _______ _______ _______ _____ _____    ______ ____
ROOT
ATOM     12  C   UNL     1      16.525   6.990  20.198  0.00  0.00    -0.017 A 
ATOM     16  C   UNL     1      17.482   6.053  19.808  0.00  0.00    +0.008 A 
ATOM     17  C   UNL     1      16.883   8.044  21.038  0.00  0.00    +0.008 A 
ATOM     18  C   UNL     1      18.797   6.170  20.258  0.00  0.00    +0.024 A 
ATOM     19  C   UNL     1      18.197   8.161  21.489  0.00  0.00    +0.024 A 
ATOM     20  C   UNL     1      19.155   7.224  21.099  0.00  0.00    +0.035 A 
ENDROOT
BRANCH  20   6
ATOM      4  O   UNL     1      20.585   5.789  23.313  0.00  0.00    -0.253 OA
ATOM      6  N   UNL     1      20.470   7.341  21.550  0.00  0.00    -0.269 N 
ATOM      7  N   UNL     1      22.434   7.052  22.737  0.00  0.00    -0.299 N 
ATOM     21  C   UNL     1      21.103   6.645  22.598  0.00  0.00    +0.304 C 
ATOM     25  H   UNL     1      21.045   8.020  21.056  0.00  0.00    +0.156 HD
ATOM     26  H   UNL     1      22.796   7.758  22.103  0.00  0.00    +0.150 HD
BRANCH   7  22
ATOM     22  C   UNL     1      23.326   6.506  23.733  0.00  0.00    +0.102 C 
ATOM     23  C   UNL     1      23.351   7.360  24.984  0.00  0.00    +0.024 C 
ENDBRANCH   7  22
ENDBRANCH  20   6
BRANCH  12   9
ATOM      9  C   UNL     1      15.105   6.862  19.711  0.00  0.00    +0.167 C 
BRANCH   9   8
ATOM      1  O   UNL     1      13.392   7.427  17.397  0.00  0.00    -0.369 OA
ATOM      3  O   UNL     1      10.912   7.968  19.966  0.00  0.00    -0.273 OA
ATOM      5  N   UNL     1      13.199   8.398  20.020  0.00  0.00    -0.292 N 
ATOM      8  C   UNL     1      14.499   8.224  19.360  0.00  0.00    +0.135 C 
ATOM     10  C   UNL     1      14.343   8.384  17.852  0.00  0.00    +0.185 C 
ATOM     13  C   UNL     1      12.009   8.010  19.406  0.00  0.00    +0.242 C 
ATOM     14  C   UNL     1      12.110   7.703  17.916  0.00  0.00    +0.255 C 
BRANCH   5  11
ATOM     11  C   UNL     1      13.203   8.821  21.414  0.00  0.00    +0.105 C 
ATOM     15  C   UNL     1      13.436  10.312  21.540  0.00  0.00    +0.024 C 
ENDBRANCH   5  11
ENDBRANCH   9   8
BRANCH   9   2
ATOM      2  O   UNL     1      14.311   6.240  20.717  0.00  0.00    -0.385 OA
ATOM     24  H   UNL     1      13.789   6.918  21.178  0.00  0.00    +0.210 HD
ENDBRANCH   9   2
ENDBRANCH  12   9
TORSDOF 6
ENDMDL
MODEL 4
REMARK VINA RESULT:      -6.2     27.328     29.909
REMARK  Name = 56774569
REMARK  8 active torsions:
REMARK  status: ('A' for Active; 'I' for Inactive)
REMARK    1  A    between atoms: O_2  and  C_9
REMARK    2  A    between atoms: N_5  and  C_11
REMARK    3  A    between atoms: N_6  and  C_20
REMARK    4  A    between atoms: N_7  and  C_22
REMARK    5  A    between atoms: C_8  and  C_9
REMARK    6  A    between atoms: C_9  and  C_12
REMARK    7  A    between atoms: C_11  and  C_15
REMARK    8  A    between atoms: C_22  and  C_23
REMARK                            x       y       z     vdW  Elec       q    Type
REMARK                         _______ _______ _______ _____ _____    ______ ____
ROOT
ATOM     12  C   UNL     1      -4.773 -10.539  16.785  0.00  0.00    -0.017 A 
ATOM     16  C   UNL     1      -4.752 -11.145  18.041  0.00  0.00    +0.008 A 
ATOM     17  C   UNL     1      -5.897  -9.824  16.374  0.00  0.00    +0.008 A 
ATOM     18  C   UNL     1      -5.855 -11.035  18.886  0.00  0.00    +0.024 A 
ATOM     19  C   UNL     1      -7.001  -9.714  17.220  0.00  0.00    +0.024 A 
ATOM     20  C   UNL     1      -6.981 -10.319  18.476  0.00  0.00    +0.035 A 
ENDROOT
BRANCH  20   6
ATOM      4  O   UNL     1      -9.679 -11.623  18.328  0.00  0.00    -0.253 OA
ATOM      6  N   UNL     1      -8.084 -10.209  19.322  0.00  0.00    -0.269 N 
ATOM      7  N   UNL     1     -10.179 -10.467  20.267  0.00  0.00    -0.299 N 
ATOM     21  C   UNL     1      -9.338 -10.842  19.214  0.00  0.00    +0.304 C 
ATOM     25  H   UNL     1      -7.966  -9.589  20.120  0.00  0.00    +0.156 HD
ATOM     26  H   UNL     1      -9.825  -9.825  20.968  0.00  0.00    +0.150 HD
BRANCH   7  22
ATOM     22  C   UNL     1     -11.529 -10.963  20.413  0.00  0.00    +0.102 C 
ATOM     23  C   UNL     1     -12.541  -9.837  20.376  0.00  0.00    +0.024 C 
ENDBRANCH   7  22
ENDBRANCH  20   6
BRANCH  12   9
ATOM      9  C   UNL     1      -3.580 -10.659  15.871  0.00  0.00    +0.167 C 
BRANCH   9   8
ATOM      1  O   UNL     1      -1.814 -10.886  13.540  0.00  0.00    -0.369 OA
ATOM      3  O   UNL     1      -2.101 -14.413  14.262  0.00  0.00    -0.273 OA
ATOM      5  N   UNL     1      -3.683 -12.726  14.529  0.00  0.00    -0.292 N 
ATOM      8  C   UNL     1      -3.955 -11.284  14.524  0.00  0.00    +0.135 C 
ATOM     10  C   UNL     1      -3.201 -10.615  13.380  0.00  0.00    +0.185 C 
ATOM     13  C   UNL     1      -2.453 -13.240  14.122  0.00  0.00    +0.242 C 
ATOM     14  C   UNL     1      -1.546 -12.262  13.383  0.00  0.00    +0.255 C 
BRANCH   5  11
ATOM     11  C   UNL     1      -4.675 -13.597  15.146  0.00  0.00    +0.105 C 
ATOM     15  C   UNL     1      -6.078 -13.248  14.691  0.00  0.00    +0.024 C 
ENDBRANCH   5  11
ENDBRANCH   9   8
BRANCH   9   2
ATOM      2  O   UNL     1      -2.579 -11.458  16.497  0.00  0.00    -0.385 OA
ATOM     24  H   UNL     1      -1.729 -10.989  16.463  0.00  0.00    +0.210 HD
ENDBRANCH   9   2
ENDBRANCH  12   9
TORSDOF 6
ENDMDL
MODEL 5
REMARK VINA RESULT:      -5.8      2.168      8.708
REMARK  Name = 56774569
REMARK  8 active torsions:
REMARK  status: ('A' for Active; 'I' for Inactive)
REMARK    1  A    between atoms: O_2  and  C_9
REMARK    2  A    between atoms: N_5  and  C_11
REMARK    3  A    between atoms: N_6  and  C_20
REMARK    4  A    between atoms: N_7  and  C_22
REMARK    5  A    between atoms: C_8  and  C_9
REMARK    6  A    between atoms: C_9  and  C_12
REMARK    7  A    between atoms: C_11  and  C_15
REMARK    8  A    between atoms: C_22  and  C_23
REMARK                            x       y       z     vdW  Elec       q    Type
REMARK                         _______ _______ _______ _____ _____    ______ ____
ROOT
ATOM     12  C   UNL     1      18.995   6.191  20.714  0.00  0.00    -0.017 A 
ATOM     16  C   UNL     1      18.120   5.741  19.726  0.00  0.00    +0.008 A 
ATOM     17  C   UNL     1      18.689   7.336  21.449  0.00  0.00    +0.008 A 
ATOM     18  C   UNL     1      16.938   6.436  19.474  0.00  0.00    +0.024 A 
ATOM     19  C   UNL     1      17.507   8.032  21.196  0.00  0.00    +0.024 A 
ATOM     20  C   UNL     1      16.630   7.582  20.208  0.00  0.00    +0.035 A 
ENDROOT
BRANCH  20   6
ATOM      4  O   UNL     1      14.111   7.783  21.825  0.00  0.00    -0.253 OA
ATOM      6  N   UNL     1      15.448   8.277  19.955  0.00  0.00    -0.269 N 
ATOM      7  N   UNL     1      13.314   9.151  20.140  0.00  0.00    -0.299 N 
ATOM     21  C   UNL     1      14.284   8.344  20.746  0.00  0.00    +0.304 C 
ATOM     25  H   UNL     1      15.426   8.805  19.085  0.00  0.00    +0.156 HD
ATOM     26  H   UNL     1      13.533   9.591  19.251  0.00  0.00    +0.150 HD
BRANCH   7  22
ATOM     22  C   UNL     1      12.018   9.400  20.726  0.00  0.00    +0.102 C 
ATOM     23  C   UNL     1      10.981   8.420  20.218  0.00  0.00    +0.024 C 
ENDBRANCH   7  22
ENDBRANCH  20   6
BRANCH  12   9
ATOM      9  C   UNL     1      20.273   5.440  20.987  0.00  0.00    +0.167 C 
BRANCH   9   8
ATOM      1  O   UNL     1      22.503   4.365  22.561  0.00  0.00    -0.369 OA
ATOM      3  O   UNL     1      24.468   6.160  20.119  0.00  0.00    -0.273 OA
ATOM      5  N   UNL     1      22.391   6.704  21.020  0.00  0.00    -0.292 N 
ATOM      8  C   UNL     1      21.249   6.264  21.831  0.00  0.00    +0.135 C 
ATOM     10  C   UNL     1      21.741   5.469  23.035  0.00  0.00    +0.185 C 
ATOM     13  C   UNL     1      23.550   5.937  20.911  0.00  0.00    +0.242 C 
ATOM     14  C   UNL     1      23.681   4.802  21.920  0.00  0.00    +0.255 C 
BRANCH   5  11
ATOM     11  C   UNL     1      22.207   7.882  20.181  0.00  0.00    +0.105 C 
ATOM     15  C   UNL     1      21.876   9.106  21.010  0.00  0.00    +0.024 C 
ENDBRANCH   5  11
ENDBRANCH   9   8
BRANCH   9   2
ATOM      2  O   UNL     1      20.895   5.094  19.753  0.00  0.00    -0.385 OA
ATOM     24  H   UNL     1      20.260   5.221  19.028  0.00  0.00    +0.210 HD
ENDBRANCH   9   2
ENDBRANCH  12   9
TORSDOF 6
ENDMDL
MODEL 6
REMARK VINA RESULT:      -5.8      2.634      8.124
REMARK  Name = 56774569
REMARK  8 active torsions:
REMARK  status: ('A' for Active; 'I' for Inactive)
REMARK    1  A    between atoms: O_2  and  C_9
REMARK    2  A    between atoms: N_5  and  C_11
REMARK    3  A    between atoms: N_6  and  C_20
REMARK    4  A    between atoms: N_7  and  C_22
REMARK    5  A    between atoms: C_8  and  C_9
REMARK    6  A    between atoms: C_9  and  C_12
REMARK    7  A    between atoms: C_11  and  C_15
REMARK    8  A    between atoms: C_22  and  C_23
REMARK                            x       y       z     vdW  Elec       q    Type
REMARK                         _______ _______ _______ _____ _____    ______ ____
ROOT
ATOM     12  C   UNL     1      18.195   6.320  20.772  0.00  0.00    -0.017 A 
ATOM     16  C   UNL     1      17.827   6.000  19.465  0.00  0.00    +0.008 A 
ATOM     17  C   UNL     1      17.228   6.745  21.683  0.00  0.00    +0.008 A 
ATOM     18  C   UNL     1      16.494   6.104  19.070  0.00  0.00    +0.024 A 
ATOM     19  C   UNL     1      15.895   6.850  21.289  0.00  0.00    +0.024 A 
ATOM     20  C   UNL     1      15.527   6.529  19.982  0.00  0.00    +0.035 A 
ENDROOT
BRANCH  20   6
ATOM      4  O   UNL     1      13.930   8.929  19.149  0.00  0.00    -0.253 OA
ATOM      6  N   UNL     1      14.194   6.634  19.587  0.00  0.00    -0.269 N 
ATOM      7  N   UNL     1      12.157   7.470  18.878  0.00  0.00    -0.299 N 
ATOM     21  C   UNL     1      13.480   7.787  19.202  0.00  0.00    +0.304 C 
ATOM     25  H   UNL     1      13.669   5.762  19.576  0.00  0.00    +0.156 HD
ATOM     26  H   UNL     1      11.860   6.502  18.936  0.00  0.00    +0.150 HD
BRANCH   7  22
ATOM     22  C   UNL     1      11.193   8.457  18.448  0.00  0.00    +0.102 C 
ATOM     23  C   UNL     1      11.181   8.603  16.941  0.00  0.00    +0.024 C 
ENDBRANCH   7  22
ENDBRANCH  20   6
BRANCH  12   9
ATOM      9  C   UNL     1      19.636   6.208  21.198  0.00  0.00    +0.167 C 
BRANCH   9   8
ATOM      1  O   UNL     1      22.119   6.223  22.760  0.00  0.00    -0.369 OA
ATOM      3  O   UNL     1      22.599   9.382  21.077  0.00  0.00    -0.273 OA
ATOM      5  N   UNL     1      20.621   8.389  21.798  0.00  0.00    -0.292 N 
ATOM      8  C   UNL     1      19.973   7.183  22.329  0.00  0.00    +0.135 C 
ATOM     10  C   UNL     1      20.870   6.526  23.372  0.00  0.00    +0.185 C 
ATOM     13  C   UNL     1      22.006   8.478  21.669  0.00  0.00    +0.242 C 
ATOM     14  C   UNL     1      22.802   7.402  22.398  0.00  0.00    +0.255 C 
BRANCH   5  11
ATOM     11  C   UNL     1      19.761   9.423  21.237  0.00  0.00    +0.105 C 
ATOM     15  C   UNL     1      18.896  10.063  22.303  0.00  0.00    +0.024 C 
ENDBRANCH   5  11
ENDBRANCH   9   8
BRANCH   9   2
ATOM      2  O   UNL     1      20.484   6.471  20.083  0.00  0.00    -0.385 OA
ATOM     24  H   UNL     1      20.938   7.318  20.220  0.00  0.00    +0.210 HD
ENDBRANCH   9   2
ENDBRANCH  12   9
TORSDOF 6
ENDMDL
MODEL 7
REMARK VINA RESULT:      -5.6     27.943     30.417
REMARK  Name = 56774569
REMARK  8 active torsions:
REMARK  status: ('A' for Active; 'I' for Inactive)
REMARK    1  A    between atoms: O_2  and  C_9
REMARK    2  A    between atoms: N_5  and  C_11
REMARK    3  A    between atoms: N_6  and  C_20
REMARK    4  A    between atoms: N_7  and  C_22
REMARK    5  A    between atoms: C_8  and  C_9
REMARK    6  A    between atoms: C_9  and  C_12
REMARK    7  A    between atoms: C_11  and  C_15
REMARK    8  A    between atoms: C_22  and  C_23
REMARK                            x       y       z     vdW  Elec       q    Type
REMARK                         _______ _______ _______ _____ _____    ______ ____
ROOT
ATOM     12  C   UNL     1      -7.904 -11.694  19.259  0.00  0.00    -0.017 A 
ATOM     16  C   UNL     1      -7.487 -12.752  18.453  0.00  0.00    +0.008 A 
ATOM     17  C   UNL     1      -7.024 -10.652  19.553  0.00  0.00    +0.008 A 
ATOM     18  C   UNL     1      -6.190 -12.769  17.940  0.00  0.00    +0.024 A 
ATOM     19  C   UNL     1      -5.727 -10.669  19.041  0.00  0.00    +0.024 A 
ATOM     20  C   UNL     1      -5.309 -11.728  18.234  0.00  0.00    +0.035 A 
ENDROOT
BRANCH  20   6
ATOM      4  O   UNL     1      -4.241 -10.717  15.619  0.00  0.00    -0.253 OA
ATOM      6  N   UNL     1      -4.012 -11.744  17.722  0.00  0.00    -0.269 N 
ATOM      7  N   UNL     1      -2.176 -11.464  16.343  0.00  0.00    -0.299 N 
ATOM     21  C   UNL     1      -3.553 -11.256  16.482  0.00  0.00    +0.304 C 
ATOM     25  H   UNL     1      -3.307 -12.165  18.323  0.00  0.00    +0.156 HD
ATOM     26  H   UNL     1      -1.671 -11.908  17.104  0.00  0.00    +0.150 HD
BRANCH   7  22
ATOM     22  C   UNL     1      -1.433 -11.063  15.171  0.00  0.00    +0.102 C 
ATOM     23  C   UNL     1      -1.009  -9.612  15.251  0.00  0.00    +0.024 C 
ENDBRANCH   7  22
ENDBRANCH  20   6
BRANCH  12   9
ATOM      9  C   UNL     1      -9.305 -11.676  19.814  0.00  0.00    +0.167 C 
BRANCH   9   8
ATOM      1  O   UNL     1     -11.942 -12.930  20.098  0.00  0.00    -0.369 OA
ATOM      3  O   UNL     1     -13.082  -9.543  19.577  0.00  0.00    -0.273 OA
ATOM      5  N   UNL     1     -11.225 -10.622  18.678  0.00  0.00    -0.292 N 
ATOM      8  C   UNL     1     -10.356 -11.805  18.708  0.00  0.00    +0.135 C 
ATOM     10  C   UNL     1     -11.197 -13.063  18.893  0.00  0.00    +0.185 C 
ATOM     13  C   UNL     1     -12.402 -10.560  19.422  0.00  0.00    +0.242 C 
ATOM     14  C   UNL     1     -12.885 -11.887  19.996  0.00  0.00    +0.255 C 
BRANCH   5  11
ATOM     11  C   UNL     1     -10.726  -9.438  17.991  0.00  0.00    +0.105 C 
ATOM     15  C   UNL     1      -9.956  -9.807  16.739  0.00  0.00    +0.024 C 
ENDBRANCH   5  11
ENDBRANCH   9   8
BRANCH   9   2
ATOM      2  O   UNL     1      -9.520 -10.462  20.527  0.00  0.00    -0.385 OA
ATOM     24  H   UNL     1      -8.676 -10.155  20.898  0.00  0.00    +0.210 HD
ENDBRANCH   9   2
ENDBRANCH  12   9
TORSDOF 6
ENDMDL
MODEL 8
REMARK VINA RESULT:      -5.6     22.428     26.615
REMARK  Name = 56774569
REMARK  8 active torsions:
REMARK  status: ('A' for Active; 'I' for Inactive)
REMARK    1  A    between atoms: O_2  and  C_9
REMARK    2  A    between atoms: N_5  and  C_11
REMARK    3  A    between atoms: N_6  and  C_20
REMARK    4  A    between atoms: N_7  and  C_22
REMARK    5  A    between atoms: C_8  and  C_9
REMARK    6  A    between atoms: C_9  and  C_12
REMARK    7  A    between atoms: C_11  and  C_15
REMARK    8  A    between atoms: C_22  and  C_23
REMARK                            x       y       z     vdW  Elec       q    Type
REMARK                         _______ _______ _______ _____ _____    ______ ____
ROOT
ATOM     12  C   UNL     1      -3.538   8.608   5.698  0.00  0.00    -0.017 A 
ATOM     16  C   UNL     1      -4.695   9.351   5.463  0.00  0.00    +0.008 A 
ATOM     17  C   UNL     1      -3.512   7.245   5.402  0.00  0.00    +0.008 A 
ATOM     18  C   UNL     1      -5.825   8.731   4.931  0.00  0.00    +0.024 A 
ATOM     19  C   UNL     1      -4.642   6.625   4.870  0.00  0.00    +0.024 A 
ATOM     20  C   UNL     1      -5.800   7.368   4.635  0.00  0.00    +0.035 A 
ENDROOT
BRANCH  20   6
ATOM      4  O   UNL     1      -7.900   5.687   5.964  0.00  0.00    -0.253 OA
ATOM      6  N   UNL     1      -6.930   6.748   4.103  0.00  0.00    -0.269 N 
ATOM      7  N   UNL     1      -8.878   5.521   3.876  0.00  0.00    -0.299 N 
ATOM     21  C   UNL     1      -7.895   5.964   4.767  0.00  0.00    +0.304 C 
ATOM     25  H   UNL     1      -7.075   6.880   3.104  0.00  0.00    +0.156 HD
ATOM     26  H   UNL     1      -8.813   5.798   2.902  0.00  0.00    +0.150 HD
BRANCH   7  22
ATOM     22  C   UNL     1      -9.994   4.697   4.280  0.00  0.00    +0.102 C 
ATOM     23  C   UNL     1     -11.186   5.538   4.689  0.00  0.00    +0.024 C 
ENDBRANCH   7  22
ENDBRANCH  20   6
BRANCH  12   9
ATOM      9  C   UNL     1      -2.317   9.278   6.273  0.00  0.00    +0.167 C 
BRANCH   9   8
ATOM      1  O   UNL     1      -0.533  11.222   7.556  0.00  0.00    -0.369 OA
ATOM      3  O   UNL     1       0.668  11.636   4.175  0.00  0.00    -0.273 OA
ATOM      5  N   UNL     1      -1.487  11.167   4.921  0.00  0.00    -0.292 N 
ATOM      8  C   UNL     1      -2.343  10.793   6.054  0.00  0.00    +0.135 C 
ATOM     10  C   UNL     1      -1.899  11.537   7.308  0.00  0.00    +0.185 C 
ATOM     13  C   UNL     1      -0.141  11.484   5.093  0.00  0.00    +0.242 C 
ATOM     14  C   UNL     1       0.295  11.728   6.533  0.00  0.00    +0.255 C 
BRANCH   5  11
ATOM     11  C   UNL     1      -2.042  11.019   3.581  0.00  0.00    +0.105 C 
ATOM     15  C   UNL     1      -3.181  11.990   3.343  0.00  0.00    +0.024 C 
ENDBRANCH   5  11
ENDBRANCH   9   8
BRANCH   9   2
ATOM      2  O   UNL     1      -1.147   8.735   5.668  0.00  0.00    -0.385 OA
ATOM     24  H   UNL     1      -0.396   9.329   5.835  0.00  0.00    +0.210 HD
ENDBRANCH   9   2
ENDBRANCH  12   9
TORSDOF 6
ENDMDL
MODEL 9
REMARK VINA RESULT:      -5.5      2.549      8.578
REMARK  Name = 56774569
REMARK  8 active torsions:
REMARK  status: ('A' for Active; 'I' for Inactive)
REMARK    1  A    between atoms: O_2  and  C_9
REMARK    2  A    between atoms: N_5  and  C_11
REMARK    3  A    between atoms: N_6  and  C_20
REMARK    4  A    between atoms: N_7  and  C_22
REMARK    5  A    between atoms: C_8  and  C_9
REMARK    6  A    between atoms: C_9  and  C_12
REMARK    7  A    between atoms: C_11  and  C_15
REMARK    8  A    between atoms: C_22  and  C_23
REMARK                            x       y       z     vdW  Elec       q    Type
REMARK                         _______ _______ _______ _____ _____    ______ ____
ROOT
ATOM     12  C   UNL     1      18.717   7.002  21.189  0.00  0.00    -0.017 A 
ATOM     16  C   UNL     1      18.552   6.092  20.145  0.00  0.00    +0.008 A 
ATOM     17  C   UNL     1      17.698   7.904  21.496  0.00  0.00    +0.008 A 
ATOM     18  C   UNL     1      17.368   6.085  19.407  0.00  0.00    +0.024 A 
ATOM     19  C   UNL     1      16.514   7.896  20.759  0.00  0.00    +0.024 A 
ATOM     20  C   UNL     1      16.349   6.987  19.713  0.00  0.00    +0.035 A 
ENDROOT
BRANCH  20   6
ATOM      4  O   UNL     1      14.466   9.224  19.040  0.00  0.00    -0.253 OA
ATOM      6  N   UNL     1      15.166   6.980  18.976  0.00  0.00    -0.269 N 
ATOM      7  N   UNL     1      13.219   7.636  17.912  0.00  0.00    -0.299 N 
ATOM     21  C   UNL     1      14.308   8.059  18.683  0.00  0.00    +0.304 C 
ATOM     25  H   UNL     1      14.887   6.075  18.601  0.00  0.00    +0.156 HD
ATOM     26  H   UNL     1      13.161   6.659  17.646  0.00  0.00    +0.150 HD
BRANCH   7  22
ATOM     22  C   UNL     1      12.177   8.531  17.463  0.00  0.00    +0.102 C 
ATOM     23  C   UNL     1      12.547   9.203  16.157  0.00  0.00    +0.024 C 
ENDBRANCH   7  22
ENDBRANCH  20   6
BRANCH  12   9
ATOM      9  C   UNL     1      19.996   7.010  21.986  0.00  0.00    +0.167 C 
BRANCH   9   8
ATOM      1  O   UNL     1      22.484   8.469  21.454  0.00  0.00    -0.369 OA
ATOM      3  O   UNL     1      23.895   5.866  23.522  0.00  0.00    -0.273 OA
ATOM      5  N   UNL     1      22.116   5.749  22.024  0.00  0.00    -0.292 N 
ATOM      8  C   UNL     1      21.180   6.487  21.168  0.00  0.00    +0.135 C 
ATOM     10  C   UNL     1      21.906   7.627  20.463  0.00  0.00    +0.185 C 
ATOM     13  C   UNL     1      23.181   6.385  22.661  0.00  0.00    +0.242 C 
ATOM     14  C   UNL     1      23.496   7.791  22.165  0.00  0.00    +0.255 C 
BRANCH   5  11
ATOM     11  C   UNL     1      21.793   4.364  22.338  0.00  0.00    +0.105 C 
ATOM     15  C   UNL     1      21.418   3.586  21.093  0.00  0.00    +0.024 C 
ENDBRANCH   5  11
ENDBRANCH   9   8
BRANCH   9   2
ATOM      2  O   UNL     1      19.837   6.203  23.150  0.00  0.00    -0.385 OA
ATOM     24  H   UNL     1      20.713   5.954  23.488  0.00  0.00    +0.210 HD
ENDBRANCH   9   2
ENDBRANCH  12   9
TORSDOF 6
ENDMDL
MODEL 10
REMARK VINA RESULT:      -5.5     27.100     30.233
REMARK  Name = 56774569
REMARK  8 active torsions:
REMARK  status: ('A' for Active; 'I' for Inactive)
REMARK    1  A    between atoms: O_2  and  C_9
REMARK    2  A    between atoms: N_5  and  C_11
REMARK    3  A    between atoms: N_6  and  C_20
REMARK    4  A    between atoms: N_7  and  C_22
REMARK    5  A    between atoms: C_8  and  C_9
REMARK    6  A    between atoms: C_9  and  C_12
REMARK    7  A    between atoms: C_11  and  C_15
REMARK    8  A    between atoms: C_22  and  C_23
REMARK                            x       y       z     vdW  Elec       q    Type
REMARK                         _______ _______ _______ _____ _____    ______ ____
ROOT
ATOM     12  C   UNL     1      -5.311 -11.830  17.760  0.00  0.00    -0.017 A 
ATOM     16  C   UNL     1      -6.320 -12.786  17.651  0.00  0.00    +0.008 A 
ATOM     17  C   UNL     1      -5.494 -10.713  18.576  0.00  0.00    +0.008 A 
ATOM     18  C   UNL     1      -7.512 -12.625  18.356  0.00  0.00    +0.024 A 
ATOM     19  C   UNL     1      -6.685 -10.553  19.282  0.00  0.00    +0.024 A 
ATOM     20  C   UNL     1      -7.696 -11.509  19.172  0.00  0.00    +0.035 A 
ENDROOT
BRANCH  20   6
ATOM      4  O   UNL     1     -10.118  -9.854  18.543  0.00  0.00    -0.253 OA
ATOM      6  N   UNL     1      -8.888 -11.348  19.878  0.00  0.00    -0.269 N 
ATOM      7  N   UNL     1     -11.004 -10.667  20.518  0.00  0.00    -0.299 N 
ATOM     21  C   UNL     1     -10.005 -10.557  19.545  0.00  0.00    +0.304 C 
ATOM     25  H   UNL     1      -8.957 -11.872  20.748  0.00  0.00    +0.156 HD
ATOM     26  H   UNL     1     -10.843 -11.276  21.314  0.00  0.00    +0.150 HD
BRANCH   7  22
ATOM     22  C   UNL     1     -12.264  -9.965  20.437  0.00  0.00    +0.102 C 
ATOM     23  C   UNL     1     -13.420 -10.850  20.854  0.00  0.00    +0.024 C 
ENDBRANCH   7  22
ENDBRANCH  20   6
BRANCH  12   9
ATOM      9  C   UNL     1      -4.023 -12.003  16.997  0.00  0.00    +0.167 C 
BRANCH   9   8
ATOM      1  O   UNL     1      -1.541 -11.499  15.516  0.00  0.00    -0.369 OA
ATOM      3  O   UNL     1      -3.609 -12.382  12.689  0.00  0.00    -0.273 OA
ATOM      5  N   UNL     1      -4.197 -11.269  14.648  0.00  0.00    -0.292 N 
ATOM      8  C   UNL     1      -3.794 -10.864  16.000  0.00  0.00    +0.135 C 
ATOM     10  C   UNL     1      -2.336 -10.421  15.998  0.00  0.00    +0.185 C 
ATOM     13  C   UNL     1      -3.298 -11.865  13.765  0.00  0.00    +0.242 C 
ATOM     14  C   UNL     1      -1.830 -11.773  14.163  0.00  0.00    +0.255 C 
BRANCH   5  11
ATOM     11  C   UNL     1      -5.615 -11.199  14.319  0.00  0.00    +0.105 C 
ATOM     15  C   UNL     1      -6.232  -9.902  14.799  0.00  0.00    +0.024 C 
ENDBRANCH   5  11
ENDBRANCH   9   8
BRANCH   9   2
ATOM      2  O   UNL     1      -4.049 -13.243  16.295  0.00  0.00    -0.385 OA
ATOM     24  H   UNL     1      -4.271 -13.957  16.916  0.00  0.00    +0.210 HD
ENDBRANCH   9   2
ENDBRANCH  12   9
TORSDOF 6
ENDMDL
