MODEL 1
REMARK VINA RESULT:      -6.1      0.000      0.000
REMARK  Name = 11912266
REMARK  10 active torsions:
REMARK  status: ('A' for Active; 'I' for Inactive)
REMARK    1  A    between atoms: S_1  and  N_6
REMARK    2  A    between atoms: S_1  and  C_17
REMARK    3  A    between atoms: O_5  and  C_23
REMARK    4  A    between atoms: O_5  and  C_25
REMARK    5  A    between atoms: N_7  and  C_20
REMARK    6  A    between atoms: C_8  and  C_13
REMARK    7  A    between atoms: C_9  and  C_14
REMARK    8  A    between atoms: C_13  and  C_15
REMARK    9  A    between atoms: C_14  and  C_16
REMARK   10  A    between atoms: C_20  and  C_23
REMARK                            x       y       z     vdW  Elec       q    Type
REMARK                         _______ _______ _______ _____ _____    ______ ____
ROOT
ATOM      6  N   UNL     1      13.751   7.675  20.603  0.00  0.00    -0.176 NA
ATOM      8  C   UNL     1      15.897   8.130  21.771  0.00  0.00    +0.008 C 
ATOM      9  C   UNL     1      16.613   7.183  20.777  0.00  0.00    +0.003 C 
ATOM     10  C   UNL     1      15.849   7.083  19.448  0.00  0.00    +0.021 C 
ATOM     11  C   UNL     1      14.429   7.705  21.933  0.00  0.00    +0.113 C 
ATOM     12  C   UNL     1      14.388   6.702  19.672  0.00  0.00    +0.110 C 
ENDROOT
BRANCH   6   1
ATOM      1  S   UNL     1      12.039   7.625  20.656  0.00  0.00    +0.061 S 
ATOM      2  O   UNL     1      11.625   6.613  21.603  0.00  0.00    -0.153 OA
ATOM      3  O   UNL     1      11.528   7.635  19.302  0.00  0.00    -0.153 OA
BRANCH   1  17
ATOM     17  C   UNL     1      11.707   9.204  21.373  0.00  0.00    +0.105 A 
ATOM     18  C   UNL     1      11.074   9.288  22.613  0.00  0.00    +0.028 A 
ATOM     19  C   UNL     1      12.079  10.368  20.698  0.00  0.00    +0.028 A 
ATOM     21  C   UNL     1      10.812  10.535  23.179  0.00  0.00    +0.002 A 
ATOM     22  C   UNL     1      11.817  11.615  21.265  0.00  0.00    +0.002 A 
ATOM     24  C   UNL     1      11.183  11.700  22.505  0.00  0.00    +0.000 A 
ENDBRANCH   1  17
ENDBRANCH   6   1
BRANCH   8  13
ATOM     13  C   UNL     1      15.989   9.616  21.397  0.00  0.00    +0.002 C 
ATOM     15  C   UNL     1      15.345  10.486  22.455  0.00  0.00    +0.004 C 
ENDBRANCH   8  13
BRANCH   9  14
ATOM     14  C   UNL     1      18.074   7.562  20.532  0.00  0.00    +0.099 C 
BRANCH  14  16
ATOM      4  O   UNL     1      19.240   6.402  22.306  0.00  0.00    -0.276 OA
ATOM      7  N   UNL     1      19.635   5.800  20.096  0.00  0.00    -0.313 N 
ATOM     16  C   UNL     1      19.033   6.540  21.104  0.00  0.00    +0.213 C 
ATOM     26  H   UNL     1      19.404   6.002  19.127  0.00  0.00    +0.149 HD
BRANCH   7  20
ATOM     20  C   UNL     1      20.599   4.755  20.352  0.00  0.00    +0.132 C 
BRANCH  20  23
ATOM     23  C   UNL     1      22.020   5.286  20.318  0.00  0.00    +0.178 C 
BRANCH  23   5
ATOM      5  O   UNL     1      22.818   4.556  21.241  0.00  0.00    -0.381 OA
ATOM     25  C   UNL     1      22.048   3.595  21.950  0.00  0.00    +0.194 C 
ENDBRANCH  23   5
ENDBRANCH  20  23
ENDBRANCH   7  20
ENDBRANCH  14  16
ENDBRANCH   9  14
TORSDOF 8
ENDMDL
MODEL 2
REMARK VINA RESULT:      -5.6      3.707      7.783
REMARK  Name = 11912266
REMARK  10 active torsions:
REMARK  status: ('A' for Active; 'I' for Inactive)
REMARK    1  A    between atoms: S_1  and  N_6
REMARK    2  A    between atoms: S_1  and  C_17
REMARK    3  A    between atoms: O_5  and  C_23
REMARK    4  A    between atoms: O_5  and  C_25
REMARK    5  A    between atoms: N_7  and  C_20
REMARK    6  A    between atoms: C_8  and  C_13
REMARK    7  A    between atoms: C_9  and  C_14
REMARK    8  A    between atoms: C_13  and  C_15
REMARK    9  A    between atoms: C_14  and  C_16
REMARK   10  A    between atoms: C_20  and  C_23
REMARK                            x       y       z     vdW  Elec       q    Type
REMARK                         _______ _______ _______ _____ _____    ______ ____
ROOT
ATOM      6  N   UNL     1      13.102   8.944  19.880  0.00  0.00    -0.176 NA
ATOM      8  C   UNL     1      12.181   8.363  22.114  0.00  0.00    +0.008 C 
ATOM      9  C   UNL     1      11.968   9.871  22.393  0.00  0.00    +0.003 C 
ATOM     10  C   UNL     1      11.816  10.667  21.089  0.00  0.00    +0.021 C 
ATOM     11  C   UNL     1      13.350   8.173  21.135  0.00  0.00    +0.113 C 
ATOM     12  C   UNL     1      12.979  10.406  20.137  0.00  0.00    +0.110 C 
ENDROOT
BRANCH   6   1
ATOM      1  S   UNL     1      14.093   8.514  18.549  0.00  0.00    +0.061 S 
ATOM      2  O   UNL     1      14.466   9.714  17.832  0.00  0.00    -0.153 OA
ATOM      3  O   UNL     1      13.494   7.390  17.863  0.00  0.00    -0.153 OA
BRANCH   1  17
ATOM     17  C   UNL     1      15.522   7.930  19.406  0.00  0.00    +0.105 A 
ATOM     18  C   UNL     1      16.212   8.779  20.272  0.00  0.00    +0.028 A 
ATOM     19  C   UNL     1      15.961   6.619  19.216  0.00  0.00    +0.028 A 
ATOM     21  C   UNL     1      17.340   8.317  20.948  0.00  0.00    +0.002 A 
ATOM     22  C   UNL     1      17.090   6.158  19.893  0.00  0.00    +0.002 A 
ATOM     24  C   UNL     1      17.780   7.007  20.759  0.00  0.00    +0.000 A 
ENDBRANCH   1  17
ENDBRANCH   6   1
BRANCH   8  13
ATOM     13  C   UNL     1      10.928   7.637  21.604  0.00  0.00    +0.002 C 
ATOM     15  C   UNL     1      11.159   6.144  21.519  0.00  0.00    +0.004 C 
ENDBRANCH   8  13
BRANCH   9  14
ATOM     14  C   UNL     1      10.794  10.147  23.334  0.00  0.00    +0.099 C 
BRANCH  14  16
ATOM      4  O   UNL     1      10.188  12.168  24.519  0.00  0.00    -0.276 OA
ATOM      7  N   UNL     1      12.366  11.370  24.664  0.00  0.00    -0.313 N 
ATOM     16  C   UNL     1      11.049  11.342  24.229  0.00  0.00    +0.213 C 
ATOM     26  H   UNL     1      13.005  10.643  24.356  0.00  0.00    +0.149 HD
BRANCH   7  20
ATOM     20  C   UNL     1      12.890  12.401  25.528  0.00  0.00    +0.132 C 
BRANCH  20  23
ATOM     23  C   UNL     1      13.990  13.195  24.848  0.00  0.00    +0.178 C 
BRANCH  23   5
ATOM      5  O   UNL     1      13.777  13.188  23.442  0.00  0.00    -0.381 OA
ATOM     25  C   UNL     1      13.214  14.414  22.994  0.00  0.00    +0.194 C 
ENDBRANCH  23   5
ENDBRANCH  20  23
ENDBRANCH   7  20
ENDBRANCH  14  16
ENDBRANCH   9  14
TORSDOF 8
ENDMDL
MODEL 3
REMARK VINA RESULT:      -5.5     27.209     29.911
REMARK  Name = 11912266
REMARK  10 active torsions:
REMARK  status: ('A' for Active; 'I' for Inactive)
REMARK    1  A    between atoms: S_1  and  N_6
REMARK    2  A    between atoms: S_1  and  C_17
REMARK    3  A    between atoms: O_5  and  C_23
REMARK    4  A    between atoms: O_5  and  C_25
REMARK    5  A    between atoms: N_7  and  C_20
REMARK    6  A    between atoms: C_8  and  C_13
REMARK    7  A    between atoms: C_9  and  C_14
REMARK    8  A    between atoms: C_13  and  C_15
REMARK    9  A    between atoms: C_14  and  C_16
REMARK   10  A    between atoms: C_20  and  C_23
REMARK                            x       y       z     vdW  Elec       q    Type
REMARK                         _______ _______ _______ _____ _____    ______ ____
ROOT
ATOM      6  N   UNL     1      -4.358 -10.799  15.323  0.00  0.00    -0.176 NA
ATOM      8  C   UNL     1      -5.054 -10.478  17.687  0.00  0.00    +0.008 C 
ATOM      9  C   UNL     1      -6.458 -10.051  17.192  0.00  0.00    +0.003 C 
ATOM     10  C   UNL     1      -6.772 -10.647  15.811  0.00  0.00    +0.021 C 
ATOM     11  C   UNL     1      -4.001 -10.147  16.618  0.00  0.00    +0.113 C 
ATOM     12  C   UNL     1      -5.673 -10.327  14.803  0.00  0.00    +0.110 C 
ENDROOT
BRANCH   6   1
ATOM      1  S   UNL     1      -3.096 -10.871  14.166  0.00  0.00    +0.061 S 
ATOM      2  O   UNL     1      -1.923 -10.218  14.707  0.00  0.00    -0.153 OA
ATOM      3  O   UNL     1      -3.626 -10.501  12.871  0.00  0.00    -0.153 OA
BRANCH   1  17
ATOM     17  C   UNL     1      -2.789 -12.609  14.153  0.00  0.00    +0.105 A 
ATOM     18  C   UNL     1      -3.704 -13.483  14.740  0.00  0.00    +0.028 A 
ATOM     19  C   UNL     1      -1.631 -13.108  13.555  0.00  0.00    +0.028 A 
ATOM     21  C   UNL     1      -3.461 -14.856  14.730  0.00  0.00    +0.002 A 
ATOM     22  C   UNL     1      -1.389 -14.482  13.545  0.00  0.00    +0.002 A 
ATOM     24  C   UNL     1      -2.304 -15.356  14.132  0.00  0.00    +0.000 A 
ENDBRANCH   1  17
ENDBRANCH   6   1
BRANCH   8  13
ATOM     13  C   UNL     1      -4.958 -11.953  18.100  0.00  0.00    +0.002 C 
ATOM     15  C   UNL     1      -3.956 -12.141  19.220  0.00  0.00    +0.004 C 
ENDBRANCH   8  13
BRANCH   9  14
ATOM     14  C   UNL     1      -7.571 -10.380  18.188  0.00  0.00    +0.099 C 
BRANCH  14  16
ATOM      4  O   UNL     1      -9.851 -10.649  17.421  0.00  0.00    -0.276 OA
ATOM      7  N   UNL     1      -8.967  -8.511  17.651  0.00  0.00    -0.313 N 
ATOM     16  C   UNL     1      -8.925  -9.896  17.712  0.00  0.00    +0.213 C 
ATOM     26  H   UNL     1      -8.140  -7.978  17.902  0.00  0.00    +0.149 HD
BRANCH   7  20
ATOM     20  C   UNL     1     -10.135  -7.775  17.226  0.00  0.00    +0.132 C 
BRANCH  20  23
ATOM     23  C   UNL     1     -10.029  -7.349  15.773  0.00  0.00    +0.178 C 
BRANCH  23   5
ATOM      5  O   UNL     1     -10.524  -6.024  15.633  0.00  0.00    -0.381 OA
ATOM     25  C   UNL     1     -11.942  -6.004  15.532  0.00  0.00    +0.194 C 
ENDBRANCH  23   5
ENDBRANCH  20  23
ENDBRANCH   7  20
ENDBRANCH  14  16
ENDBRANCH   9  14
TORSDOF 8
ENDMDL
MODEL 4
REMARK VINA RESULT:      -5.4      2.420      2.926
REMARK  Name = 11912266
REMARK  10 active torsions:
REMARK  status: ('A' for Active; 'I' for Inactive)
REMARK    1  A    between atoms: S_1  and  N_6
REMARK    2  A    between atoms: S_1  and  C_17
REMARK    3  A    between atoms: O_5  and  C_23
REMARK    4  A    between atoms: O_5  and  C_25
REMARK    5  A    between atoms: N_7  and  C_20
REMARK    6  A    between atoms: C_8  and  C_13
REMARK    7  A    between atoms: C_9  and  C_14
REMARK    8  A    between atoms: C_13  and  C_15
REMARK    9  A    between atoms: C_14  and  C_16
REMARK   10  A    between atoms: C_20  and  C_23
REMARK                            x       y       z     vdW  Elec       q    Type
REMARK                         _______ _______ _______ _____ _____    ______ ____
ROOT
ATOM      6  N   UNL     1      14.836   7.754  20.446  0.00  0.00    -0.176 NA
ATOM      8  C   UNL     1      16.936   8.371  21.622  0.00  0.00    +0.008 C 
ATOM      9  C   UNL     1      17.585   7.066  21.101  0.00  0.00    +0.003 C 
ATOM     10  C   UNL     1      16.910   6.580  19.809  0.00  0.00    +0.021 C 
ATOM     11  C   UNL     1      15.416   8.183  21.753  0.00  0.00    +0.113 C 
ATOM     12  C   UNL     1      15.399   6.455  19.983  0.00  0.00    +0.110 C 
ENDROOT
BRANCH   6   1
ATOM      1  S   UNL     1      13.133   7.901  20.318  0.00  0.00    +0.061 S 
ATOM      2  O   UNL     1      12.675   8.909  21.250  0.00  0.00    -0.153 OA
ATOM      3  O   UNL     1      12.548   6.578  20.303  0.00  0.00    -0.153 OA
BRANCH   1  17
ATOM     17  C   UNL     1      13.004   8.571  18.690  0.00  0.00    +0.105 A 
ATOM     18  C   UNL     1      11.814   8.441  17.974  0.00  0.00    +0.028 A 
ATOM     19  C   UNL     1      14.093   9.230  18.119  0.00  0.00    +0.028 A 
ATOM     21  C   UNL     1      11.713   8.969  16.688  0.00  0.00    +0.002 A 
ATOM     22  C   UNL     1      13.991   9.760  16.833  0.00  0.00    +0.002 A 
ATOM     24  C   UNL     1      12.802   9.629  16.116  0.00  0.00    +0.000 A 
ENDBRANCH   1  17
ENDBRANCH   6   1
BRANCH   8  13
ATOM     13  C   UNL     1      17.254   9.610  20.775  0.00  0.00    +0.002 C 
ATOM     15  C   UNL     1      17.919  10.685  21.608  0.00  0.00    +0.004 C 
ENDBRANCH   8  13
BRANCH   9  14
ATOM     14  C   UNL     1      19.098   7.182  20.908  0.00  0.00    +0.099 C 
BRANCH  14  16
ATOM      4  O   UNL     1      19.726   6.483  23.137  0.00  0.00    -0.276 OA
ATOM      7  N   UNL     1      20.740   5.485  21.299  0.00  0.00    -0.313 N 
ATOM     16  C   UNL     1      19.868   6.365  21.923  0.00  0.00    +0.213 C 
ATOM     26  H   UNL     1      20.792   5.474  20.284  0.00  0.00    +0.149 HD
BRANCH   7  20
ATOM     20  C   UNL     1      21.605   4.584  22.024  0.00  0.00    +0.132 C 
BRANCH  20  23
ATOM     23  C   UNL     1      21.871   3.312  21.240  0.00  0.00    +0.178 C 
BRANCH  23   5
ATOM      5  O   UNL     1      23.250   3.245  20.902  0.00  0.00    -0.381 OA
ATOM     25  C   UNL     1      24.061   3.859  21.895  0.00  0.00    +0.194 C 
ENDBRANCH  23   5
ENDBRANCH  20  23
ENDBRANCH   7  20
ENDBRANCH  14  16
ENDBRANCH   9  14
TORSDOF 8
ENDMDL
MODEL 5
REMARK VINA RESULT:      -5.4     17.852     20.472
REMARK  Name = 11912266
REMARK  10 active torsions:
REMARK  status: ('A' for Active; 'I' for Inactive)
REMARK    1  A    between atoms: S_1  and  N_6
REMARK    2  A    between atoms: S_1  and  C_17
REMARK    3  A    between atoms: O_5  and  C_23
REMARK    4  A    between atoms: O_5  and  C_25
REMARK    5  A    between atoms: N_7  and  C_20
REMARK    6  A    between atoms: C_8  and  C_13
REMARK    7  A    between atoms: C_9  and  C_14
REMARK    8  A    between atoms: C_13  and  C_15
REMARK    9  A    between atoms: C_14  and  C_16
REMARK   10  A    between atoms: C_20  and  C_23
REMARK                            x       y       z     vdW  Elec       q    Type
REMARK                         _______ _______ _______ _____ _____    ______ ____
ROOT
ATOM      6  N   UNL     1      13.038   5.228   1.836  0.00  0.00    -0.176 NA
ATOM      8  C   UNL     1      10.670   5.244   2.590  0.00  0.00    +0.008 C 
ATOM      9  C   UNL     1      11.042   6.300   3.660  0.00  0.00    +0.003 C 
ATOM     10  C   UNL     1      12.282   7.106   3.246  0.00  0.00    +0.021 C 
ATOM     11  C   UNL     1      11.894   4.372   2.270  0.00  0.00    +0.113 C 
ATOM     12  C   UNL     1      13.451   6.190   2.897  0.00  0.00    +0.110 C 
ENDROOT
BRANCH   6   1
ATOM      1  S   UNL     1      14.321   4.398   1.060  0.00  0.00    +0.061 S 
ATOM      2  O   UNL     1      14.521   3.123   1.713  0.00  0.00    -0.153 OA
ATOM      3  O   UNL     1      15.421   5.317   0.862  0.00  0.00    -0.153 OA
BRANCH   1  17
ATOM     17  C   UNL     1      13.580   4.090  -0.513  0.00  0.00    +0.105 A 
ATOM     18  C   UNL     1      12.903   2.892  -0.742  0.00  0.00    +0.028 A 
ATOM     19  C   UNL     1      13.673   5.044  -1.526  0.00  0.00    +0.028 A 
ATOM     21  C   UNL     1      12.319   2.648  -1.985  0.00  0.00    +0.002 A 
ATOM     22  C   UNL     1      13.088   4.800  -2.769  0.00  0.00    +0.002 A 
ATOM     24  C   UNL     1      12.411   3.603  -2.999  0.00  0.00    +0.000 A 
ENDBRANCH   1  17
ENDBRANCH   6   1
BRANCH   8  13
ATOM     13  C   UNL     1      10.080   5.837   1.304  0.00  0.00    +0.002 C 
ATOM     15  C   UNL     1       9.930   4.778   0.233  0.00  0.00    +0.004 C 
ENDBRANCH   8  13
BRANCH   9  14
ATOM     14  C   UNL     1       9.883   7.235   4.009  0.00  0.00    +0.099 C 
BRANCH  14  16
ATOM      4  O   UNL     1       7.950   6.532   5.283  0.00  0.00    -0.276 OA
ATOM      7  N   UNL     1      10.007   6.734   6.346  0.00  0.00    -0.313 N 
ATOM     16  C   UNL     1       9.149   6.795   5.258  0.00  0.00    +0.213 C 
ATOM     26  H   UNL     1      10.984   6.984   6.223  0.00  0.00    +0.149 HD
BRANCH   7  20
ATOM     20  C   UNL     1       9.577   6.346   7.670  0.00  0.00    +0.132 C 
BRANCH  20  23
ATOM     23  C   UNL     1       9.980   4.920   7.993  0.00  0.00    +0.178 C 
BRANCH  23   5
ATOM      5  O   UNL     1      10.247   4.809   9.386  0.00  0.00    -0.381 OA
ATOM     25  C   UNL     1       9.054   4.600  10.130  0.00  0.00    +0.194 C 
ENDBRANCH  23   5
ENDBRANCH  20  23
ENDBRANCH   7  20
ENDBRANCH  14  16
ENDBRANCH   9  14
TORSDOF 8
ENDMDL
MODEL 6
REMARK VINA RESULT:      -5.4     27.648     30.540
REMARK  Name = 11912266
REMARK  10 active torsions:
REMARK  status: ('A' for Active; 'I' for Inactive)
REMARK    1  A    between atoms: S_1  and  N_6
REMARK    2  A    between atoms: S_1  and  C_17
REMARK    3  A    between atoms: O_5  and  C_23
REMARK    4  A    between atoms: O_5  and  C_25
REMARK    5  A    between atoms: N_7  and  C_20
REMARK    6  A    between atoms: C_8  and  C_13
REMARK    7  A    between atoms: C_9  and  C_14
REMARK    8  A    between atoms: C_13  and  C_15
REMARK    9  A    between atoms: C_14  and  C_16
REMARK   10  A    between atoms: C_20  and  C_23
REMARK                            x       y       z     vdW  Elec       q    Type
REMARK                         _______ _______ _______ _____ _____    ______ ____
ROOT
ATOM      6  N   UNL     1     -14.389   8.139  19.659  0.00  0.00    -0.176 NA
ATOM      8  C   UNL     1     -13.444   7.098  21.708  0.00  0.00    +0.008 C 
ATOM      9  C   UNL     1     -14.730   6.245  21.841  0.00  0.00    +0.003 C 
ATOM     10  C   UNL     1     -15.420   6.054  20.482  0.00  0.00    +0.021 C 
ATOM     11  C   UNL     1     -13.764   8.416  20.986  0.00  0.00    +0.113 C 
ATOM     12  C   UNL     1     -15.671   7.390  19.790  0.00  0.00    +0.110 C 
ENDROOT
BRANCH   6   1
ATOM      1  S   UNL     1     -14.424   9.466  18.574  0.00  0.00    +0.061 S 
ATOM      2  O   UNL     1     -14.709  10.674  19.316  0.00  0.00    -0.153 OA
ATOM      3  O   UNL     1     -15.205   9.100  17.412  0.00  0.00    -0.153 OA
BRANCH   1  17
ATOM     17  C   UNL     1     -12.725   9.514  18.094  0.00  0.00    +0.105 A 
ATOM     18  C   UNL     1     -11.905  10.552  18.536  0.00  0.00    +0.028 A 
ATOM     19  C   UNL     1     -12.204   8.513  17.273  0.00  0.00    +0.028 A 
ATOM     21  C   UNL     1     -10.564  10.590  18.156  0.00  0.00    +0.002 A 
ATOM     22  C   UNL     1     -10.863   8.551  16.895  0.00  0.00    +0.002 A 
ATOM     24  C   UNL     1     -10.042   9.590  17.335  0.00  0.00    +0.000 A 
ENDBRANCH   1  17
ENDBRANCH   6   1
BRANCH   8  13
ATOM     13  C   UNL     1     -12.282   6.373  21.017  0.00  0.00    +0.002 C 
ATOM     15  C   UNL     1     -11.203   7.349  20.596  0.00  0.00    +0.004 C 
ENDBRANCH   8  13
BRANCH   9  14
ATOM     14  C   UNL     1     -14.489   4.896  22.519  0.00  0.00    +0.099 C 
BRANCH  14  16
ATOM      4  O   UNL     1     -16.364   5.368  23.974  0.00  0.00    -0.276 OA
ATOM      7  N   UNL     1     -15.598   3.183  23.770  0.00  0.00    -0.313 N 
ATOM     16  C   UNL     1     -15.590   4.543  23.496  0.00  0.00    +0.213 C 
ATOM     26  H   UNL     1     -14.905   2.584  23.331  0.00  0.00    +0.149 HD
BRANCH   7  20
ATOM     20  C   UNL     1     -16.541   2.566  24.674  0.00  0.00    +0.132 C 
BRANCH  20  23
ATOM     23  C   UNL     1     -17.577   1.746  23.928  0.00  0.00    +0.178 C 
BRANCH  23   5
ATOM      5  O   UNL     1     -17.247   1.715  22.545  0.00  0.00    -0.381 OA
ATOM     25  C   UNL     1     -18.369   2.037  21.734  0.00  0.00    +0.194 C 
ENDBRANCH  23   5
ENDBRANCH  20  23
ENDBRANCH   7  20
ENDBRANCH  14  16
ENDBRANCH   9  14
TORSDOF 8
ENDMDL
MODEL 7
REMARK VINA RESULT:      -5.3     19.329     21.785
REMARK  Name = 11912266
REMARK  10 active torsions:
REMARK  status: ('A' for Active; 'I' for Inactive)
REMARK    1  A    between atoms: S_1  and  N_6
REMARK    2  A    between atoms: S_1  and  C_17
REMARK    3  A    between atoms: O_5  and  C_23
REMARK    4  A    between atoms: O_5  and  C_25
REMARK    5  A    between atoms: N_7  and  C_20
REMARK    6  A    between atoms: C_8  and  C_13
REMARK    7  A    between atoms: C_9  and  C_14
REMARK    8  A    between atoms: C_13  and  C_15
REMARK    9  A    between atoms: C_14  and  C_16
REMARK   10  A    between atoms: C_20  and  C_23
REMARK                            x       y       z     vdW  Elec       q    Type
REMARK                         _______ _______ _______ _____ _____    ______ ____
ROOT
ATOM      6  N   UNL     1      11.598   5.153  -0.387  0.00  0.00    -0.176 NA
ATOM      8  C   UNL     1      12.501   4.948   1.918  0.00  0.00    +0.008 C 
ATOM      9  C   UNL     1      11.056   5.036   2.468  0.00  0.00    +0.003 C 
ATOM     10  C   UNL     1      10.029   4.570   1.425  0.00  0.00    +0.021 C 
ATOM     11  C   UNL     1      12.597   5.696   0.580  0.00  0.00    +0.113 C 
ATOM     12  C   UNL     1      10.200   5.313   0.104  0.00  0.00    +0.110 C 
ENDROOT
BRANCH   6   1
ATOM      1  S   UNL     1      11.853   5.588  -2.026  0.00  0.00    +0.061 S 
ATOM      2  O   UNL     1      13.244   5.372  -2.360  0.00  0.00    -0.153 OA
ATOM      3  O   UNL     1      11.214   6.862  -2.277  0.00  0.00    -0.153 OA
BRANCH   1  17
ATOM     17  C   UNL     1      10.902   4.335  -2.828  0.00  0.00    +0.105 A 
ATOM     18  C   UNL     1       9.960   4.686  -3.795  0.00  0.00    +0.028 A 
ATOM     19  C   UNL     1      11.093   2.994  -2.493  0.00  0.00    +0.028 A 
ATOM     21  C   UNL     1       9.209   3.696  -4.427  0.00  0.00    +0.002 A 
ATOM     22  C   UNL     1      10.342   2.005  -3.126  0.00  0.00    +0.002 A 
ATOM     24  C   UNL     1       9.400   2.355  -4.094  0.00  0.00    +0.000 A 
ENDBRANCH   1  17
ENDBRANCH   6   1
BRANCH   8  13
ATOM     13  C   UNL     1      13.029   3.514   1.774  0.00  0.00    +0.002 C 
ATOM     15  C   UNL     1      14.526   3.504   1.546  0.00  0.00    +0.004 C 
ENDBRANCH   8  13
BRANCH   9  14
ATOM     14  C   UNL     1      10.867   4.283   3.786  0.00  0.00    +0.099 C 
BRANCH  14  16
ATOM      4  O   UNL     1       9.432   6.086   4.522  0.00  0.00    -0.276 OA
ATOM      7  N   UNL     1      10.277   4.588   6.085  0.00  0.00    -0.313 N 
ATOM     16  C   UNL     1      10.106   5.100   4.808  0.00  0.00    +0.213 C 
ATOM     26  H   UNL     1      10.867   3.772   6.218  0.00  0.00    +0.149 HD
BRANCH   7  20
ATOM     20  C   UNL     1       9.668   5.172   7.258  0.00  0.00    +0.132 C 
BRANCH  20  23
ATOM     23  C   UNL     1      10.645   6.048   8.019  0.00  0.00    +0.178 C 
BRANCH  23   5
ATOM      5  O   UNL     1      10.306   7.415   7.822  0.00  0.00    -0.381 OA
ATOM     25  C   UNL     1       8.899   7.615   7.870  0.00  0.00    +0.194 C 
ENDBRANCH  23   5
ENDBRANCH  20  23
ENDBRANCH   7  20
ENDBRANCH  14  16
ENDBRANCH   9  14
TORSDOF 8
ENDMDL
MODEL 8
REMARK VINA RESULT:      -5.3     27.201     29.338
REMARK  Name = 11912266
REMARK  10 active torsions:
REMARK  status: ('A' for Active; 'I' for Inactive)
REMARK    1  A    between atoms: S_1  and  N_6
REMARK    2  A    between atoms: S_1  and  C_17
REMARK    3  A    between atoms: O_5  and  C_23
REMARK    4  A    between atoms: O_5  and  C_25
REMARK    5  A    between atoms: N_7  and  C_20
REMARK    6  A    between atoms: C_8  and  C_13
REMARK    7  A    between atoms: C_9  and  C_14
REMARK    8  A    between atoms: C_13  and  C_15
REMARK    9  A    between atoms: C_14  and  C_16
REMARK   10  A    between atoms: C_20  and  C_23
REMARK                            x       y       z     vdW  Elec       q    Type
REMARK                         _______ _______ _______ _____ _____    ______ ____
ROOT
ATOM      6  N   UNL     1      -3.493 -11.279  13.948  0.00  0.00    -0.176 NA
ATOM      8  C   UNL     1      -5.345 -11.381  15.601  0.00  0.00    +0.008 C 
ATOM      9  C   UNL     1      -4.300 -11.324  16.743  0.00  0.00    +0.003 C 
ATOM     10  C   UNL     1      -3.002 -10.645  16.281  0.00  0.00    +0.021 C 
ATOM     11  C   UNL     1      -4.722 -12.025  14.353  0.00  0.00    +0.113 C 
ATOM     12  C   UNL     1      -2.452 -11.294  15.015  0.00  0.00    +0.110 C 
ENDROOT
BRANCH   6   1
ATOM      1  S   UNL     1      -2.924 -11.610  12.365  0.00  0.00    +0.061 S 
ATOM      2  O   UNL     1      -3.452 -12.885  11.931  0.00  0.00    -0.153 OA
ATOM      3  O   UNL     1      -1.506 -11.331  12.310  0.00  0.00    -0.153 OA
BRANCH   1  17
ATOM     17  C   UNL     1      -3.764 -10.342  11.467  0.00  0.00    +0.105 A 
ATOM     18  C   UNL     1      -4.960  -9.816  11.955  0.00  0.00    +0.028 A 
ATOM     19  C   UNL     1      -3.231  -9.869  10.267  0.00  0.00    +0.028 A 
ATOM     21  C   UNL     1      -5.622  -8.816  11.245  0.00  0.00    +0.002 A 
ATOM     22  C   UNL     1      -3.894  -8.868   9.558  0.00  0.00    +0.002 A 
ATOM     24  C   UNL     1      -5.090  -8.341  10.046  0.00  0.00    +0.000 A 
ENDBRANCH   1  17
ENDBRANCH   6   1
BRANCH   8  13
ATOM     13  C   UNL     1      -5.967 -10.022  15.253  0.00  0.00    +0.002 C 
ATOM     15  C   UNL     1      -7.412 -10.175  14.828  0.00  0.00    +0.004 C 
ENDBRANCH   8  13
BRANCH   9  14
ATOM     14  C   UNL     1      -4.834 -10.662  18.013  0.00  0.00    +0.099 C 
BRANCH  14  16
ATOM      4  O   UNL     1      -6.063 -12.581  18.825  0.00  0.00    -0.276 OA
ATOM      7  N   UNL     1      -7.111 -10.508  18.734  0.00  0.00    -0.313 N 
ATOM     16  C   UNL     1      -6.046 -11.381  18.567  0.00  0.00    +0.213 C 
ATOM     26  H   UNL     1      -6.998  -9.532  18.478  0.00  0.00    +0.149 HD
BRANCH   7  20
ATOM     20  C   UNL     1      -8.398 -10.922  19.244  0.00  0.00    +0.132 C 
BRANCH  20  23
ATOM     23  C   UNL     1      -9.537 -10.302  18.456  0.00  0.00    +0.178 C 
BRANCH  23   5
ATOM      5  O   UNL     1      -9.054  -9.175  17.736  0.00  0.00    -0.381 OA
ATOM     25  C   UNL     1     -10.103  -8.269  17.422  0.00  0.00    +0.194 C 
ENDBRANCH  23   5
ENDBRANCH  20  23
ENDBRANCH   7  20
ENDBRANCH  14  16
ENDBRANCH   9  14
TORSDOF 8
ENDMDL
MODEL 9
REMARK VINA RESULT:      -5.2     26.680     29.258
REMARK  Name = 11912266
REMARK  10 active torsions:
REMARK  status: ('A' for Active; 'I' for Inactive)
REMARK    1  A    between atoms: S_1  and  N_6
REMARK    2  A    between atoms: S_1  and  C_17
REMARK    3  A    between atoms: O_5  and  C_23
REMARK    4  A    between atoms: O_5  and  C_25
REMARK    5  A    between atoms: N_7  and  C_20
REMARK    6  A    between atoms: C_8  and  C_13
REMARK    7  A    between atoms: C_9  and  C_14
REMARK    8  A    between atoms: C_13  and  C_15
REMARK    9  A    between atoms: C_14  and  C_16
REMARK   10  A    between atoms: C_20  and  C_23
REMARK                            x       y       z     vdW  Elec       q    Type
REMARK                         _______ _______ _______ _____ _____    ______ ____
ROOT
ATOM      6  N   UNL     1      -3.812 -12.484  14.360  0.00  0.00    -0.176 NA
ATOM      8  C   UNL     1      -3.781 -10.553  15.924  0.00  0.00    +0.008 C 
ATOM      9  C   UNL     1      -4.888 -11.240  16.760  0.00  0.00    +0.003 C 
ATOM     10  C   UNL     1      -4.868 -12.765  16.572  0.00  0.00    +0.021 C 
ATOM     11  C   UNL     1      -3.884 -10.995  14.456  0.00  0.00    +0.113 C 
ATOM     12  C   UNL     1      -4.926 -13.146  15.096  0.00  0.00    +0.110 C 
ENDROOT
BRANCH   6   1
ATOM      1  S   UNL     1      -3.500 -13.102  12.792  0.00  0.00    +0.061 S 
ATOM      2  O   UNL     1      -4.730 -13.626  12.239  0.00  0.00    -0.153 OA
ATOM      3  O   UNL     1      -2.299 -13.908  12.837  0.00  0.00    -0.153 OA
BRANCH   1  17
ATOM     17  C   UNL     1      -3.119 -11.603  11.941  0.00  0.00    +0.105 A 
ATOM     18  C   UNL     1      -4.053 -11.036  11.074  0.00  0.00    +0.028 A 
ATOM     19  C   UNL     1      -1.882 -10.987  12.136  0.00  0.00    +0.028 A 
ATOM     21  C   UNL     1      -3.750  -9.853  10.401  0.00  0.00    +0.002 A 
ATOM     22  C   UNL     1      -1.581  -9.803  11.463  0.00  0.00    +0.002 A 
ATOM     24  C   UNL     1      -2.514  -9.235  10.596  0.00  0.00    +0.000 A 
ENDBRANCH   1  17
ENDBRANCH   6   1
BRANCH   8  13
ATOM     13  C   UNL     1      -2.360 -10.781  16.457  0.00  0.00    +0.002 C 
ATOM     15  C   UNL     1      -1.328 -10.135  15.557  0.00  0.00    +0.004 C 
ENDBRANCH   8  13
BRANCH   9  14
ATOM     14  C   UNL     1      -4.831 -10.879  18.245  0.00  0.00    +0.099 C 
BRANCH  14  16
ATOM      4  O   UNL     1      -6.480 -10.922  20.015  0.00  0.00    -0.276 OA
ATOM      7  N   UNL     1      -7.107 -10.227  17.887  0.00  0.00    -0.313 N 
ATOM     16  C   UNL     1      -6.210 -10.689  18.840  0.00  0.00    +0.213 C 
ATOM     26  H   UNL     1      -6.785 -10.077  16.935  0.00  0.00    +0.149 HD
BRANCH   7  20
ATOM     20  C   UNL     1      -8.497  -9.961  18.175  0.00  0.00    +0.132 C 
BRANCH  20  23
ATOM     23  C   UNL     1      -9.186  -9.270  17.013  0.00  0.00    +0.178 C 
BRANCH  23   5
ATOM      5  O   UNL     1      -9.603  -7.972  17.416  0.00  0.00    -0.381 OA
ATOM     25  C   UNL     1     -10.381  -7.338  16.410  0.00  0.00    +0.194 C 
ENDBRANCH  23   5
ENDBRANCH  20  23
ENDBRANCH   7  20
ENDBRANCH  14  16
ENDBRANCH   9  14
TORSDOF 8
ENDMDL
MODEL 10
REMARK VINA RESULT:      -5.1     27.361     30.189
REMARK  Name = 11912266
REMARK  10 active torsions:
REMARK  status: ('A' for Active; 'I' for Inactive)
REMARK    1  A    between atoms: S_1  and  N_6
REMARK    2  A    between atoms: S_1  and  C_17
REMARK    3  A    between atoms: O_5  and  C_23
REMARK    4  A    between atoms: O_5  and  C_25
REMARK    5  A    between atoms: N_7  and  C_20
REMARK    6  A    between atoms: C_8  and  C_13
REMARK    7  A    between atoms: C_9  and  C_14
REMARK    8  A    between atoms: C_13  and  C_15
REMARK    9  A    between atoms: C_14  and  C_16
REMARK   10  A    between atoms: C_20  and  C_23
REMARK                            x       y       z     vdW  Elec       q    Type
REMARK                         _______ _______ _______ _____ _____    ______ ____
ROOT
ATOM      6  N   UNL     1      -5.561 -10.505  12.213  0.00  0.00    -0.176 NA
ATOM      8  C   UNL     1      -5.366 -11.400   9.903  0.00  0.00    +0.008 C 
ATOM      9  C   UNL     1      -5.672  -9.985   9.353  0.00  0.00    +0.003 C 
ATOM     10  C   UNL     1      -5.288  -8.895  10.365  0.00  0.00    +0.021 C 
ATOM     11  C   UNL     1      -6.021 -11.578  11.282  0.00  0.00    +0.113 C 
ATOM     12  C   UNL     1      -5.929  -9.145  11.726  0.00  0.00    +0.110 C 
ENDROOT
BRANCH   6   1
ATOM      1  S   UNL     1      -5.869 -10.796  13.874  0.00  0.00    +0.061 S 
ATOM      2  O   UNL     1      -6.328 -12.159  14.037  0.00  0.00    -0.153 OA
ATOM      3  O   UNL     1      -6.624  -9.685  14.412  0.00  0.00    -0.153 OA
BRANCH   1  17
ATOM     17  C   UNL     1      -4.226 -10.698  14.513  0.00  0.00    +0.105 A 
ATOM     18  C   UNL     1      -3.146 -10.556  13.641  0.00  0.00    +0.028 A 
ATOM     19  C   UNL     1      -4.008 -10.764  15.889  0.00  0.00    +0.028 A 
ATOM     21  C   UNL     1      -1.849 -10.480  14.146  0.00  0.00    +0.002 A 
ATOM     22  C   UNL     1      -2.710 -10.686  16.394  0.00  0.00    +0.002 A 
ATOM     24  C   UNL     1      -1.630 -10.544  15.523  0.00  0.00    +0.000 A 
ENDBRANCH   1  17
ENDBRANCH   6   1
BRANCH   8  13
ATOM     13  C   UNL     1      -3.870 -11.735   9.970  0.00  0.00    +0.002 C 
ATOM     15  C   UNL     1      -3.636 -13.039  10.703  0.00  0.00    +0.004 C 
ENDBRANCH   8  13
BRANCH   9  14
ATOM     14  C   UNL     1      -5.023  -9.715   7.995  0.00  0.00    +0.099 C 
BRANCH  14  16
ATOM      4  O   UNL     1      -6.150 -10.592   6.042  0.00  0.00    -0.276 OA
ATOM      7  N   UNL     1      -6.801  -8.536   6.910  0.00  0.00    -0.313 N 
ATOM     16  C   UNL     1      -6.037  -9.693   6.871  0.00  0.00    +0.213 C 
ATOM     26  H   UNL     1      -6.620  -7.846   7.633  0.00  0.00    +0.149 HD
BRANCH   7  20
ATOM     20  C   UNL     1      -7.845  -8.247   5.954  0.00  0.00    +0.132 C 
BRANCH  20  23
ATOM     23  C   UNL     1      -8.753  -7.132   6.437  0.00  0.00    +0.178 C 
BRANCH  23   5
ATOM      5  O   UNL     1      -8.131  -6.453   7.520  0.00  0.00    -0.381 OA
ATOM     25  C   UNL     1      -9.082  -5.758   8.315  0.00  0.00    +0.194 C 
ENDBRANCH  23   5
ENDBRANCH  20  23
ENDBRANCH   7  20
ENDBRANCH  14  16
ENDBRANCH   9  14
TORSDOF 8
ENDMDL
