MODEL 1
REMARK VINA RESULT:      -7.5      0.000      0.000
REMARK  Name = 56776085
REMARK  5 active torsions:
REMARK  status: ('A' for Active; 'I' for Inactive)
REMARK    1  A    between atoms: N_6  and  C_25
REMARK    2  A    between atoms: N_8  and  C_27
REMARK    3  A    between atoms: C_11  and  C_16
REMARK    4  A    between atoms: C_16  and  C_19
REMARK    5  A    between atoms: C_25  and  C_30
REMARK                            x       y       z     vdW  Elec       q    Type
REMARK                         _______ _______ _______ _____ _____    ______ ____
ROOT
ATOM      1  O   UNL     1      20.577   6.792  20.864  0.00  0.00    -0.492 OA
ATOM      2  O   UNL     1      22.606   9.202  22.664  0.00  0.00    -0.274 OA
ATOM      5  N   UNL     1      22.586   7.676  24.405  0.00  0.00    -0.300 N 
ATOM      7  N   UNL     1      19.678   8.525  23.514  0.00  0.00    -0.304 NA
ATOM     10  C   UNL     1      23.413   5.443  23.735  0.00  0.00    +0.010 C 
ATOM     11  C   UNL     1      23.088   4.921  25.163  0.00  0.00    +0.004 C 
ATOM     12  C   UNL     1      21.919   5.705  25.784  0.00  0.00    +0.023 C 
ATOM     13  C   UNL     1      23.737   6.945  23.864  0.00  0.00    +0.111 C 
ATOM     14  C   UNL     1      22.262   5.177  22.735  0.00  0.00    +0.008 C 
ATOM     15  C   UNL     1      22.143   7.218  25.730  0.00  0.00    +0.108 C 
ATOM     17  C   UNL     1      22.566   5.544  21.274  0.00  0.00    +0.041 C 
ATOM     18  C   UNL     1      22.065   8.748  23.678  0.00  0.00    +0.229 C 
ATOM     20  C   UNL     1      21.265   5.603  20.466  0.00  0.00    +0.229 C 
ATOM     21  C   UNL     1      20.736   9.338  24.116  0.00  0.00    +0.178 C 
ATOM     22  C   UNL     1      19.362   8.964  22.149  0.00  0.00    +0.120 C 
ATOM     23  C   UNL     1      19.216   6.845  20.730  0.00  0.00    +0.125 A 
ATOM     24  C   UNL     1      18.576   7.921  21.382  0.00  0.00    +0.010 A 
ATOM     26  C   UNL     1      17.178   8.026  21.320  0.00  0.00    +0.031 A 
ATOM     27  C   UNL     1      16.429   7.099  20.597  0.00  0.00    +0.030 A 
ATOM     28  C   UNL     1      18.458   5.933  19.989  0.00  0.00    +0.048 A 
ATOM     29  C   UNL     1      17.069   6.060  19.928  0.00  0.00    +0.027 A 
ATOM     40  H   UNL     1      18.832   8.601  24.080  0.00  0.00    +0.123 HD
ENDROOT
BRANCH  27   8
ATOM      4  O   UNL     1      12.271   7.680  20.364  0.00  0.00    -0.377 OA
ATOM      8  N   UNL     1      15.035   7.206  20.552  0.00  0.00    -0.326 N 
ATOM     31  C   UNL     1      14.391   7.332  19.238  0.00  0.00    +0.133 C 
ATOM     32  C   UNL     1      14.313   7.835  21.664  0.00  0.00    +0.133 C 
ATOM     33  C   UNL     1      12.924   6.927  19.342  0.00  0.00    +0.178 C 
ATOM     34  C   UNL     1      12.851   7.405  21.639  0.00  0.00    +0.178 C 
ENDBRANCH  27   8
BRANCH  11  16
ATOM     16  C   UNL     1      22.819   3.417  25.214  0.00  0.00    +0.099 C 
BRANCH  16  19
ATOM      3  O   UNL     1      25.070   2.554  25.014  0.00  0.00    -0.276 OA
ATOM      6  N   UNL     1      23.479   1.972  23.423  0.00  0.00    -0.311 N 
ATOM     19  C   UNL     1      23.928   2.614  24.568  0.00  0.00    +0.214 C 
ATOM     39  H   UNL     1      22.518   2.091  23.121  0.00  0.00    +0.149 HD
BRANCH   6  25
ATOM     25  C   UNL     1      24.327   1.136  22.604  0.00  0.00    +0.139 C 
BRANCH  25  30
ATOM      9  N   UNL     1      26.290   3.383  19.512  0.00  0.00    -0.263 NA
ATOM     30  C   UNL     1      25.013   1.920  21.523  0.00  0.00    -0.027 A 
ATOM     35  C   UNL     1      26.366   2.223  21.632  0.00  0.00    +0.025 A 
ATOM     36  C   UNL     1      24.299   2.348  20.410  0.00  0.00    +0.025 A 
ATOM     37  C   UNL     1      26.952   2.950  20.608  0.00  0.00    +0.111 A 
ATOM     38  C   UNL     1      24.976   3.070  19.442  0.00  0.00    +0.111 A 
ENDBRANCH  25  30
ENDBRANCH   6  25
ENDBRANCH  16  19
ENDBRANCH  11  16
TORSDOF 5
ENDMDL
MODEL 2
REMARK VINA RESULT:      -7.3      4.665      7.515
REMARK  Name = 56776085
REMARK  5 active torsions:
REMARK  status: ('A' for Active; 'I' for Inactive)
REMARK    1  A    between atoms: N_6  and  C_25
REMARK    2  A    between atoms: N_8  and  C_27
REMARK    3  A    between atoms: C_11  and  C_16
REMARK    4  A    between atoms: C_16  and  C_19
REMARK    5  A    between atoms: C_25  and  C_30
REMARK                            x       y       z     vdW  Elec       q    Type
REMARK                         _______ _______ _______ _____ _____    ______ ____
ROOT
ATOM      1  O   UNL     1      15.368  11.252  19.044  0.00  0.00    -0.492 OA
ATOM      2  O   UNL     1      13.100   8.916  20.645  0.00  0.00    -0.274 OA
ATOM      5  N   UNL     1      14.837   7.391  20.514  0.00  0.00    -0.300 N 
ATOM      7  N   UNL     1      14.045   8.560  17.690  0.00  0.00    -0.304 NA
ATOM     10  C   UNL     1      16.914   8.206  21.581  0.00  0.00    +0.010 C 
ATOM     11  C   UNL     1      17.634   6.909  21.115  0.00  0.00    +0.004 C 
ATOM     12  C   UNL     1      17.004   6.362  19.823  0.00  0.00    +0.023 C 
ATOM     13  C   UNL     1      15.426   7.855  21.775  0.00  0.00    +0.111 C 
ATOM     14  C   UNL     1      17.113   9.378  20.589  0.00  0.00    +0.008 C 
ATOM     15  C   UNL     1      15.487   6.203  19.940  0.00  0.00    +0.108 C 
ATOM     17  C   UNL     1      16.545  10.729  21.050  0.00  0.00    +0.041 C 
ATOM     18  C   UNL     1      13.711   8.047  20.013  0.00  0.00    +0.229 C 
ATOM     20  C   UNL     1      16.455  11.694  19.861  0.00  0.00    +0.229 C 
ATOM     21  C   UNL     1      13.258   7.726  18.600  0.00  0.00    +0.178 C 
ATOM     22  C   UNL     1      13.453   9.891  17.519  0.00  0.00    +0.120 C 
ATOM     23  C   UNL     1      15.375  11.563  17.710  0.00  0.00    +0.125 A 
ATOM     24  C   UNL     1      14.431  10.878  16.915  0.00  0.00    +0.010 A 
ATOM     26  C   UNL     1      14.397  11.117  15.533  0.00  0.00    +0.031 A 
ATOM     27  C   UNL     1      15.264  12.041  14.952  0.00  0.00    +0.030 A 
ATOM     28  C   UNL     1      16.225  12.504  17.122  0.00  0.00    +0.048 A 
ATOM     29  C   UNL     1      16.170  12.737  15.746  0.00  0.00    +0.027 A 
ATOM     40  H   UNL     1      14.091   8.109  16.775  0.00  0.00    +0.123 HD
ENDROOT
BRANCH  27   8
ATOM      4  O   UNL     1      15.251  12.962  10.850  0.00  0.00    -0.377 OA
ATOM      8  N   UNL     1      15.230  12.261  13.571  0.00  0.00    -0.326 N 
ATOM     31  C   UNL     1      16.502  12.503  12.876  0.00  0.00    +0.133 C 
ATOM     32  C   UNL     1      14.055  12.890  12.958  0.00  0.00    +0.133 C 
ATOM     33  C   UNL     1      16.340  12.212  11.388  0.00  0.00    +0.178 C 
ATOM     34  C   UNL     1      14.023  12.579  11.467  0.00  0.00    +0.178 C 
ENDBRANCH  27   8
BRANCH  11  16
ATOM     16  C   UNL     1      19.145   7.077  20.952  0.00  0.00    +0.099 C 
BRANCH  16  19
ATOM      3  O   UNL     1      19.697   6.420  23.214  0.00  0.00    -0.276 OA
ATOM      6  N   UNL     1      20.906   5.531  21.440  0.00  0.00    -0.311 N 
ATOM     19  C   UNL     1      19.923   6.324  22.011  0.00  0.00    +0.214 C 
ATOM     39  H   UNL     1      21.030   5.526  20.433  0.00  0.00    +0.149 HD
BRANCH   6  25
ATOM     25  C   UNL     1      21.802   4.703  22.216  0.00  0.00    +0.139 C 
BRANCH  25  30
ATOM      9  N   UNL     1      24.793   2.832  19.764  0.00  0.00    -0.263 NA
ATOM     30  C   UNL     1      22.847   4.049  21.359  0.00  0.00    -0.027 A 
ATOM     35  C   UNL     1      23.058   2.677  21.440  0.00  0.00    +0.025 A 
ATOM     36  C   UNL     1      23.608   4.813  20.481  0.00  0.00    +0.025 A 
ATOM     37  C   UNL     1      24.034   2.122  20.628  0.00  0.00    +0.111 A 
ATOM     38  C   UNL     1      24.560   4.163  19.714  0.00  0.00    +0.111 A 
ENDBRANCH  25  30
ENDBRANCH   6  25
ENDBRANCH  16  19
ENDBRANCH  11  16
TORSDOF 5
ENDMDL
MODEL 3
REMARK VINA RESULT:      -7.1     30.002     33.318
REMARK  Name = 56776085
REMARK  5 active torsions:
REMARK  status: ('A' for Active; 'I' for Inactive)
REMARK    1  A    between atoms: N_6  and  C_25
REMARK    2  A    between atoms: N_8  and  C_27
REMARK    3  A    between atoms: C_11  and  C_16
REMARK    4  A    between atoms: C_16  and  C_19
REMARK    5  A    between atoms: C_25  and  C_30
REMARK                            x       y       z     vdW  Elec       q    Type
REMARK                         _______ _______ _______ _____ _____    ______ ____
ROOT
ATOM      1  O   UNL     1      -3.497 -11.826  16.511  0.00  0.00    -0.492 OA
ATOM      2  O   UNL     1      -2.308 -14.722  14.675  0.00  0.00    -0.274 OA
ATOM      5  N   UNL     1      -3.095 -13.642  12.783  0.00  0.00    -0.300 N 
ATOM      7  N   UNL     1      -5.348 -14.061  14.956  0.00  0.00    -0.304 NA
ATOM     10  C   UNL     1      -2.142 -11.378  12.502  0.00  0.00    +0.010 C 
ATOM     11  C   UNL     1      -3.043 -11.179  11.251  0.00  0.00    +0.004 C 
ATOM     12  C   UNL     1      -4.337 -12.005  11.367  0.00  0.00    +0.023 C 
ATOM     13  C   UNL     1      -1.849 -12.887  12.617  0.00  0.00    +0.111 C 
ATOM     14  C   UNL     1      -2.788 -10.809  13.789  0.00  0.00    +0.008 C 
ATOM     15  C   UNL     1      -4.060 -13.475  11.686  0.00  0.00    +0.108 C 
ATOM     17  C   UNL     1      -1.897 -10.847  15.041  0.00  0.00    +0.041 C 
ATOM     18  C   UNL     1      -3.234 -14.479  13.892  0.00  0.00    +0.229 C 
ATOM     20  C   UNL     1      -2.748 -10.627  16.297  0.00  0.00    +0.229 C 
ATOM     21  C   UNL     1      -4.604 -15.062  14.189  0.00  0.00    +0.178 C 
ATOM     22  C   UNL     1      -5.059 -14.148  16.392  0.00  0.00    +0.120 C 
ATOM     23  C   UNL     1      -4.680 -11.753  17.196  0.00  0.00    +0.125 A 
ATOM     24  C   UNL     1      -5.496 -12.904  17.139  0.00  0.00    +0.010 A 
ATOM     26  C   UNL     1      -6.739 -12.896  17.788  0.00  0.00    +0.031 A 
ATOM     27  C   UNL     1      -7.156 -11.777  18.508  0.00  0.00    +0.030 A 
ATOM     28  C   UNL     1      -5.097 -10.644  17.939  0.00  0.00    +0.048 A 
ATOM     29  C   UNL     1      -6.332 -10.658  18.589  0.00  0.00    +0.027 A 
ATOM     40  H   UNL     1      -6.349 -14.208  14.819  0.00  0.00    +0.123 HD
ENDROOT
BRANCH  27   8
ATOM      4  O   UNL     1     -11.015 -11.873  20.175  0.00  0.00    -0.377 OA
ATOM      8  N   UNL     1      -8.403 -11.776  19.141  0.00  0.00    -0.326 N 
ATOM     31  C   UNL     1      -9.054 -13.068  19.395  0.00  0.00    +0.133 C 
ATOM     32  C   UNL     1      -9.317 -10.643  18.955  0.00  0.00    +0.133 C 
ATOM     33  C   UNL     1     -10.094 -12.914  20.500  0.00  0.00    +0.178 C 
ATOM     34  C   UNL     1     -10.342 -10.618  20.082  0.00  0.00    +0.178 C 
ENDBRANCH  27   8
BRANCH  11  16
ATOM     16  C   UNL     1      -3.360  -9.713  10.955  0.00  0.00    +0.099 C 
BRANCH  16  19
ATOM      3  O   UNL     1      -5.237  -9.469   9.449  0.00  0.00    -0.276 OA
ATOM      6  N   UNL     1      -5.591  -9.351  11.743  0.00  0.00    -0.311 N 
ATOM     19  C   UNL     1      -4.817  -9.502  10.603  0.00  0.00    +0.214 C 
ATOM     39  H   UNL     1      -5.154  -9.379  12.658  0.00  0.00    +0.149 HD
BRANCH   6  25
ATOM     25  C   UNL     1      -7.020  -9.134  11.704  0.00  0.00    +0.139 C 
BRANCH  25  30
ATOM      9  N   UNL     1      -8.978 -10.678  15.203  0.00  0.00    -0.263 NA
ATOM     30  C   UNL     1      -7.704  -9.674  12.927  0.00  0.00    -0.027 A 
ATOM     35  C   UNL     1      -9.092  -9.714  12.989  0.00  0.00    +0.025 A 
ATOM     36  C   UNL     1      -6.952 -10.135  14.001  0.00  0.00    +0.025 A 
ATOM     37  C   UNL     1      -9.675 -10.221  14.139  0.00  0.00    +0.111 A 
ATOM     38  C   UNL     1      -7.630 -10.622  15.106  0.00  0.00    +0.111 A 
ENDBRANCH  25  30
ENDBRANCH   6  25
ENDBRANCH  16  19
ENDBRANCH  11  16
TORSDOF 5
ENDMDL
MODEL 4
REMARK VINA RESULT:      -7.0     29.784     33.168
REMARK  Name = 56776085
REMARK  5 active torsions:
REMARK  status: ('A' for Active; 'I' for Inactive)
REMARK    1  A    between atoms: N_6  and  C_25
REMARK    2  A    between atoms: N_8  and  C_27
REMARK    3  A    between atoms: C_11  and  C_16
REMARK    4  A    between atoms: C_16  and  C_19
REMARK    5  A    between atoms: C_25  and  C_30
REMARK                            x       y       z     vdW  Elec       q    Type
REMARK                         _______ _______ _______ _____ _____    ______ ____
ROOT
ATOM      1  O   UNL     1      -7.438 -12.229  12.229  0.00  0.00    -0.492 OA
ATOM      2  O   UNL     1      -5.730 -11.069   9.246  0.00  0.00    -0.274 OA
ATOM      5  N   UNL     1      -3.888 -10.762  10.616  0.00  0.00    -0.300 N 
ATOM      7  N   UNL     1      -6.417  -9.160  11.621  0.00  0.00    -0.304 NA
ATOM     10  C   UNL     1      -3.243 -12.817  11.831  0.00  0.00    +0.010 C 
ATOM     11  C   UNL     1      -2.134 -12.009  12.562  0.00  0.00    +0.004 C 
ATOM     12  C   UNL     1      -2.531 -10.528  12.697  0.00  0.00    +0.023 C 
ATOM     13  C   UNL     1      -3.456 -12.155  10.455  0.00  0.00    +0.111 C 
ATOM     14  C   UNL     1      -4.553 -12.895  12.652  0.00  0.00    +0.008 C 
ATOM     15  C   UNL     1      -2.944  -9.914  11.358  0.00  0.00    +0.108 C 
ATOM     17  C   UNL     1      -5.647 -13.793  12.054  0.00  0.00    +0.041 C 
ATOM     18  C   UNL     1      -5.082 -10.353  10.018  0.00  0.00    +0.229 C 
ATOM     20  C   UNL     1      -6.994 -13.495  12.724  0.00  0.00    +0.229 C 
ATOM     21  C   UNL     1      -5.644  -8.993  10.388  0.00  0.00    +0.178 C 
ATOM     22  C   UNL     1      -7.791  -9.594  11.348  0.00  0.00    +0.120 C 
ATOM     23  C   UNL     1      -8.289 -11.480  12.997  0.00  0.00    +0.125 A 
ATOM     24  C   UNL     1      -8.472 -10.143  12.585  0.00  0.00    +0.010 A 
ATOM     26  C   UNL     1      -9.305  -9.301  13.339  0.00  0.00    +0.031 A 
ATOM     27  C   UNL     1      -9.968  -9.785  14.465  0.00  0.00    +0.030 A 
ATOM     28  C   UNL     1      -8.977 -11.963  14.115  0.00  0.00    +0.048 A 
ATOM     29  C   UNL     1      -9.810 -11.114  14.847  0.00  0.00    +0.027 A 
ATOM     40  H   UNL     1      -6.453  -8.270  12.118  0.00  0.00    +0.123 HD
ENDROOT
BRANCH  27   8
ATOM      4  O   UNL     1     -12.520  -7.123  16.485  0.00  0.00    -0.377 OA
ATOM      8  N   UNL     1     -10.785  -8.934  15.217  0.00  0.00    -0.326 N 
ATOM     31  C   UNL     1     -12.240  -9.119  15.136  0.00  0.00    +0.133 C 
ATOM     32  C   UNL     1     -10.345  -7.565  15.507  0.00  0.00    +0.133 C 
ATOM     33  C   UNL     1     -12.908  -8.490  16.355  0.00  0.00    +0.178 C 
ATOM     34  C   UNL     1     -11.113  -7.019  16.704  0.00  0.00    +0.178 C 
ENDBRANCH  27   8
BRANCH  11  16
ATOM     16  C   UNL     1      -1.750 -12.593  13.922  0.00  0.00    +0.099 C 
BRANCH  16  19
ATOM      3  O   UNL     1      -1.015 -10.643  15.149  0.00  0.00    -0.276 OA
ATOM      6  N   UNL     1      -2.896 -11.802  15.869  0.00  0.00    -0.311 N 
ATOM     19  C   UNL     1      -1.819 -11.563  15.028  0.00  0.00    +0.214 C 
ATOM     39  H   UNL     1      -3.502 -12.598  15.699  0.00  0.00    +0.149 HD
BRANCH   6  25
ATOM     25  C   UNL     1      -3.203 -10.975  17.014  0.00  0.00    +0.139 C 
BRANCH  25  30
ATOM      9  N   UNL     1      -7.320  -9.746  17.049  0.00  0.00    -0.263 NA
ATOM     30  C   UNL     1      -4.642 -10.545  17.026  0.00  0.00    -0.027 A 
ATOM     35  C   UNL     1      -5.387 -10.634  18.197  0.00  0.00    +0.025 A 
ATOM     36  C   UNL     1      -5.234 -10.056  15.868  0.00  0.00    +0.025 A 
ATOM     37  C   UNL     1      -6.710 -10.226  18.155  0.00  0.00    +0.111 A 
ATOM     38  C   UNL     1      -6.563  -9.674  15.930  0.00  0.00    +0.111 A 
ENDBRANCH  25  30
ENDBRANCH   6  25
ENDBRANCH  16  19
ENDBRANCH  11  16
TORSDOF 5
ENDMDL
MODEL 5
REMARK VINA RESULT:      -7.0     29.803     33.393
REMARK  Name = 56776085
REMARK  5 active torsions:
REMARK  status: ('A' for Active; 'I' for Inactive)
REMARK    1  A    between atoms: N_6  and  C_25
REMARK    2  A    between atoms: N_8  and  C_27
REMARK    3  A    between atoms: C_11  and  C_16
REMARK    4  A    between atoms: C_16  and  C_19
REMARK    5  A    between atoms: C_25  and  C_30
REMARK                            x       y       z     vdW  Elec       q    Type
REMARK                         _______ _______ _______ _____ _____    ______ ____
ROOT
ATOM      1  O   UNL     1      -8.363 -10.242  17.714  0.00  0.00    -0.492 OA
ATOM      2  O   UNL     1      -8.252 -13.864  17.536  0.00  0.00    -0.274 OA
ATOM      5  N   UNL     1      -6.412 -13.578  16.159  0.00  0.00    -0.300 N 
ATOM      7  N   UNL     1      -8.977 -12.097  15.065  0.00  0.00    -0.304 NA
ATOM     10  C   UNL     1      -4.630 -12.220  17.206  0.00  0.00    +0.010 C 
ATOM     11  C   UNL     1      -3.817 -12.309  15.884  0.00  0.00    +0.004 C 
ATOM     12  C   UNL     1      -4.753 -12.455  14.671  0.00  0.00    +0.023 C 
ATOM     13  C   UNL     1      -5.491 -13.495  17.298  0.00  0.00    +0.111 C 
ATOM     14  C   UNL     1      -5.484 -10.931  17.286  0.00  0.00    +0.008 C 
ATOM     15  C   UNL     1      -5.754 -13.598  14.845  0.00  0.00    +0.108 C 
ATOM     17  C   UNL     1      -6.209 -10.708  18.622  0.00  0.00    +0.041 C 
ATOM     18  C   UNL     1      -7.782 -13.693  16.405  0.00  0.00    +0.229 C 
ATOM     20  C   UNL     1      -7.299  -9.642  18.457  0.00  0.00    +0.229 C 
ATOM     21  C   UNL     1      -8.740 -13.531  15.240  0.00  0.00    +0.178 C 
ATOM     22  C   UNL     1     -10.047 -11.610  15.943  0.00  0.00    +0.120 C 
ATOM     23  C   UNL     1      -9.193  -9.438  16.981  0.00  0.00    +0.125 A 
ATOM     24  C   UNL     1     -10.041 -10.100  16.067  0.00  0.00    +0.010 A 
ATOM     26  C   UNL     1     -10.899  -9.342  15.255  0.00  0.00    +0.031 A 
ATOM     27  C   UNL     1     -10.937  -7.954  15.366  0.00  0.00    +0.030 A 
ATOM     28  C   UNL     1      -9.256  -8.046  17.101  0.00  0.00    +0.048 A 
ATOM     29  C   UNL     1     -10.123  -7.309  16.293  0.00  0.00    +0.027 A 
ATOM     40  H   UNL     1      -9.247 -11.916  14.098  0.00  0.00    +0.123 HD
ENDROOT
BRANCH  27   8
ATOM      4  O   UNL     1     -13.666  -5.692  13.103  0.00  0.00    -0.377 OA
ATOM      8  N   UNL     1     -11.786  -7.208  14.542  0.00  0.00    -0.326 N 
ATOM     31  C   UNL     1     -12.021  -5.798  14.883  0.00  0.00    +0.133 C 
ATOM     32  C   UNL     1     -12.887  -7.870  13.834  0.00  0.00    +0.133 C 
ATOM     33  C   UNL     1     -12.518  -5.046  13.652  0.00  0.00    +0.178 C 
ATOM     34  C   UNL     1     -13.337  -7.009  12.660  0.00  0.00    +0.178 C 
ENDBRANCH  27   8
BRANCH  11  16
ATOM     16  C   UNL     1      -2.849 -11.144  15.685  0.00  0.00    +0.099 C 
BRANCH  16  19
ATOM      3  O   UNL     1      -1.198 -12.167  14.243  0.00  0.00    -0.276 OA
ATOM      6  N   UNL     1      -2.360 -10.297  13.500  0.00  0.00    -0.311 N 
ATOM     19  C   UNL     1      -2.035 -11.285  14.417  0.00  0.00    +0.214 C 
ATOM     39  H   UNL     1      -3.056  -9.598  13.737  0.00  0.00    +0.149 HD
BRANCH   6  25
ATOM     25  C   UNL     1      -1.735 -10.189  12.201  0.00  0.00    +0.139 C 
BRANCH  25  30
ATOM      9  N   UNL     1      -4.599 -10.493   9.011  0.00  0.00    -0.263 NA
ATOM     30  C   UNL     1      -2.737 -10.295  11.086  0.00  0.00    -0.027 A 
ATOM     35  C   UNL     1      -3.333 -11.517  10.798  0.00  0.00    +0.025 A 
ATOM     36  C   UNL     1      -3.070  -9.172  10.339  0.00  0.00    +0.025 A 
ATOM     37  C   UNL     1      -4.249 -11.563   9.760  0.00  0.00    +0.111 A 
ATOM     38  C   UNL     1      -3.997  -9.322   9.321  0.00  0.00    +0.111 A 
ENDBRANCH  25  30
ENDBRANCH   6  25
ENDBRANCH  16  19
ENDBRANCH  11  16
TORSDOF 5
ENDMDL
MODEL 6
REMARK VINA RESULT:      -7.0      1.594      2.047
REMARK  Name = 56776085
REMARK  5 active torsions:
REMARK  status: ('A' for Active; 'I' for Inactive)
REMARK    1  A    between atoms: N_6  and  C_25
REMARK    2  A    between atoms: N_8  and  C_27
REMARK    3  A    between atoms: C_11  and  C_16
REMARK    4  A    between atoms: C_16  and  C_19
REMARK    5  A    between atoms: C_25  and  C_30
REMARK                            x       y       z     vdW  Elec       q    Type
REMARK                         _______ _______ _______ _____ _____    ______ ____
ROOT
ATOM      1  O   UNL     1      19.659   7.401  20.848  0.00  0.00    -0.492 OA
ATOM      2  O   UNL     1      21.500  10.359  21.861  0.00  0.00    -0.274 OA
ATOM      5  N   UNL     1      21.435   9.469  23.998  0.00  0.00    -0.300 N 
ATOM      7  N   UNL     1      18.554   9.842  22.760  0.00  0.00    -0.304 NA
ATOM     10  C   UNL     1      22.374   7.184  24.117  0.00  0.00    +0.010 C 
ATOM     11  C   UNL     1      21.988   7.129  25.622  0.00  0.00    +0.004 C 
ATOM     12  C   UNL     1      20.760   8.011  25.909  0.00  0.00    +0.023 C 
ATOM     13  C   UNL     1      22.639   8.663  23.769  0.00  0.00    +0.111 C 
ATOM     14  C   UNL     1      21.290   6.555  23.208  0.00  0.00    +0.008 C 
ATOM     15  C   UNL     1      20.934   9.436  25.380  0.00  0.00    +0.108 C 
ATOM     17  C   UNL     1      21.663   6.451  21.720  0.00  0.00    +0.041 C 
ATOM     18  C   UNL     1      20.919  10.225  22.945  0.00  0.00    +0.229 C 
ATOM     20  C   UNL     1      20.408   6.184  20.882  0.00  0.00    +0.229 C 
ATOM     21  C   UNL     1      19.549  10.857  23.113  0.00  0.00    +0.178 C 
ATOM     22  C   UNL     1      18.300   9.806  21.316  0.00  0.00    +0.120 C 
ATOM     23  C   UNL     1      18.306   7.341  20.647  0.00  0.00    +0.125 A 
ATOM     24  C   UNL     1      17.594   8.534  20.892  0.00  0.00    +0.010 A 
ATOM     26  C   UNL     1      16.199   8.544  20.740  0.00  0.00    +0.031 A 
ATOM     27  C   UNL     1      15.524   7.398  20.323  0.00  0.00    +0.030 A 
ATOM     28  C   UNL     1      17.622   6.203  20.207  0.00  0.00    +0.048 A 
ATOM     29  C   UNL     1      16.235   6.234  20.050  0.00  0.00    +0.027 A 
ATOM     40  H   UNL     1      17.676  10.052  23.236  0.00  0.00    +0.123 HD
ENDROOT
BRANCH  27   8
ATOM      4  O   UNL     1      11.347   7.723  19.968  0.00  0.00    -0.377 OA
ATOM      8  N   UNL     1      14.132   7.415  20.188  0.00  0.00    -0.326 N 
ATOM     31  C   UNL     1      13.553   8.161  19.061  0.00  0.00    +0.133 C 
ATOM     32  C   UNL     1      13.279   7.322  21.378  0.00  0.00    +0.133 C 
ATOM     33  C   UNL     1      12.140   7.660  18.783  0.00  0.00    +0.178 C 
ATOM     34  C   UNL     1      11.881   6.867  20.976  0.00  0.00    +0.178 C 
ENDBRANCH  27   8
BRANCH  11  16
ATOM     16  C   UNL     1      21.768   5.708  26.142  0.00  0.00    +0.099 C 
BRANCH  16  19
ATOM      3  O   UNL     1      24.103   5.116  26.362  0.00  0.00    -0.276 OA
ATOM      6  N   UNL     1      22.664   3.683  25.234  0.00  0.00    -0.311 N 
ATOM     19  C   UNL     1      22.985   4.830  25.943  0.00  0.00    +0.214 C 
ATOM     39  H   UNL     1      21.712   3.537  24.914  0.00  0.00    +0.149 HD
BRANCH   6  25
ATOM     25  C   UNL     1      23.634   2.665  24.898  0.00  0.00    +0.139 C 
BRANCH  25  30
ATOM      9  N   UNL     1      23.700   1.837  20.682  0.00  0.00    -0.263 NA
ATOM     30  C   UNL     1      23.656   2.376  23.424  0.00  0.00    -0.027 A 
ATOM     35  C   UNL     1      24.461   1.357  22.925  0.00  0.00    +0.025 A 
ATOM     36  C   UNL     1      22.873   3.125  22.553  0.00  0.00    +0.025 A 
ATOM     37  C   UNL     1      24.447   1.131  21.559  0.00  0.00    +0.111 A 
ATOM     38  C   UNL     1      22.931   2.820  21.204  0.00  0.00    +0.111 A 
ENDBRANCH  25  30
ENDBRANCH   6  25
ENDBRANCH  16  19
ENDBRANCH  11  16
TORSDOF 5
ENDMDL
MODEL 7
REMARK VINA RESULT:      -7.0     30.084     33.384
REMARK  Name = 56776085
REMARK  5 active torsions:
REMARK  status: ('A' for Active; 'I' for Inactive)
REMARK    1  A    between atoms: N_6  and  C_25
REMARK    2  A    between atoms: N_8  and  C_27
REMARK    3  A    between atoms: C_11  and  C_16
REMARK    4  A    between atoms: C_16  and  C_19
REMARK    5  A    between atoms: C_25  and  C_30
REMARK                            x       y       z     vdW  Elec       q    Type
REMARK                         _______ _______ _______ _____ _____    ______ ____
ROOT
ATOM      1  O   UNL     1      -3.585 -11.805  16.514  0.00  0.00    -0.492 OA
ATOM      2  O   UNL     1      -2.421 -14.681  14.633  0.00  0.00    -0.274 OA
ATOM      5  N   UNL     1      -3.218 -13.575  12.761  0.00  0.00    -0.300 N 
ATOM      7  N   UNL     1      -5.456 -14.013  14.945  0.00  0.00    -0.304 NA
ATOM     10  C   UNL     1      -2.259 -11.311  12.501  0.00  0.00    +0.010 C 
ATOM     11  C   UNL     1      -3.168 -11.093  11.259  0.00  0.00    +0.004 C 
ATOM     12  C   UNL     1      -4.464 -11.915  11.374  0.00  0.00    +0.023 C 
ATOM     13  C   UNL     1      -1.970 -12.822  12.594  0.00  0.00    +0.111 C 
ATOM     14  C   UNL     1      -2.893 -10.756  13.800  0.00  0.00    +0.008 C 
ATOM     15  C   UNL     1      -4.190 -13.390  11.673  0.00  0.00    +0.108 C 
ATOM     17  C   UNL     1      -1.993 -10.813  15.044  0.00  0.00    +0.041 C 
ATOM     18  C   UNL     1      -3.352 -14.425  13.860  0.00  0.00    +0.229 C 
ATOM     20  C   UNL     1      -2.833 -10.606  16.309  0.00  0.00    +0.229 C 
ATOM     21  C   UNL     1      -4.721 -15.007  14.160  0.00  0.00    +0.178 C 
ATOM     22  C   UNL     1      -5.157 -14.120  16.377  0.00  0.00    +0.120 C 
ATOM     23  C   UNL     1      -4.763 -11.737  17.208  0.00  0.00    +0.125 A 
ATOM     24  C   UNL     1      -5.583 -12.884  17.143  0.00  0.00    +0.010 A 
ATOM     26  C   UNL     1      -6.822 -12.880  17.802  0.00  0.00    +0.031 A 
ATOM     27  C   UNL     1      -7.228 -11.769  18.539  0.00  0.00    +0.030 A 
ATOM     28  C   UNL     1      -5.170 -10.636  17.969  0.00  0.00    +0.048 A 
ATOM     29  C   UNL     1      -6.401 -10.653  18.628  0.00  0.00    +0.027 A 
ATOM     40  H   UNL     1      -6.458 -14.154  14.814  0.00  0.00    +0.123 HD
ENDROOT
BRANCH  27   8
ATOM      4  O   UNL     1     -11.074 -11.876  20.235  0.00  0.00    -0.377 OA
ATOM      8  N   UNL     1      -8.471 -11.770  19.181  0.00  0.00    -0.326 N 
ATOM     31  C   UNL     1      -9.115 -13.065  19.443  0.00  0.00    +0.133 C 
ATOM     32  C   UNL     1      -9.390 -10.641  19.000  0.00  0.00    +0.133 C 
ATOM     33  C   UNL     1     -10.147 -12.912  20.555  0.00  0.00    +0.178 C 
ATOM     34  C   UNL     1     -10.407 -10.618  20.135  0.00  0.00    +0.178 C 
ENDBRANCH  27   8
BRANCH  11  16
ATOM     16  C   UNL     1      -3.482  -9.622  10.985  0.00  0.00    +0.099 C 
BRANCH  16  19
ATOM      3  O   UNL     1      -5.699  -8.932  10.308  0.00  0.00    -0.276 OA
ATOM      6  N   UNL     1      -4.303  -9.962   8.762  0.00  0.00    -0.311 N 
ATOM     19  C   UNL     1      -4.628  -9.453  10.010  0.00  0.00    +0.214 C 
ATOM     39  H   UNL     1      -3.395 -10.390   8.612  0.00  0.00    +0.149 HD
BRANCH   6  25
ATOM     25  C   UNL     1      -5.212  -9.936   7.638  0.00  0.00    +0.139 C 
BRANCH  25  30
ATOM      9  N   UNL     1      -4.841 -13.447   5.189  0.00  0.00    -0.263 NA
ATOM     30  C   UNL     1      -5.081 -11.163   6.782  0.00  0.00    -0.027 A 
ATOM     35  C   UNL     1      -5.362 -11.098   5.422  0.00  0.00    +0.025 A 
ATOM     36  C   UNL     1      -4.681 -12.368   7.346  0.00  0.00    +0.025 A 
ATOM     37  C   UNL     1      -5.228 -12.258   4.676  0.00  0.00    +0.111 A 
ATOM     38  C   UNL     1      -4.578 -13.471   6.515  0.00  0.00    +0.111 A 
ENDBRANCH  25  30
ENDBRANCH   6  25
ENDBRANCH  16  19
ENDBRANCH  11  16
TORSDOF 5
ENDMDL
MODEL 8
REMARK VINA RESULT:      -6.9     33.816     36.957
REMARK  Name = 56776085
REMARK  5 active torsions:
REMARK  status: ('A' for Active; 'I' for Inactive)
REMARK    1  A    between atoms: N_6  and  C_25
REMARK    2  A    between atoms: N_8  and  C_27
REMARK    3  A    between atoms: C_11  and  C_16
REMARK    4  A    between atoms: C_16  and  C_19
REMARK    5  A    between atoms: C_25  and  C_30
REMARK                            x       y       z     vdW  Elec       q    Type
REMARK                         _______ _______ _______ _____ _____    ______ ____
ROOT
ATOM      1  O   UNL     1     -17.451   3.588  29.724  0.00  0.00    -0.492 OA
ATOM      2  O   UNL     1     -15.592   1.100  31.601  0.00  0.00    -0.274 OA
ATOM      5  N   UNL     1     -14.299   2.868  32.351  0.00  0.00    -0.300 N 
ATOM      7  N   UNL     1     -14.337   2.656  29.201  0.00  0.00    -0.304 NA
ATOM     10  C   UNL     1     -15.637   4.650  33.424  0.00  0.00    +0.010 C 
ATOM     11  C   UNL     1     -14.339   5.488  33.596  0.00  0.00    +0.004 C 
ATOM     12  C   UNL     1     -13.320   5.160  32.491  0.00  0.00    +0.023 C 
ATOM     13  C   UNL     1     -15.225   3.164  33.449  0.00  0.00    +0.111 C 
ATOM     14  C   UNL     1     -16.410   5.020  32.135  0.00  0.00    +0.008 C 
ATOM     15  C   UNL     1     -13.058   3.657  32.372  0.00  0.00    +0.108 C 
ATOM     17  C   UNL     1     -17.772   4.329  31.966  0.00  0.00    +0.041 C 
ATOM     18  C   UNL     1     -14.625   1.855  31.448  0.00  0.00    +0.229 C 
ATOM     20  C   UNL     1     -18.254   4.465  30.517  0.00  0.00    +0.229 C 
ATOM     21  C   UNL     1     -13.793   1.719  30.185  0.00  0.00    +0.178 C 
ATOM     22  C   UNL     1     -15.462   2.076  28.458  0.00  0.00    +0.120 C 
ATOM     23  C   UNL     1     -17.282   3.866  28.394  0.00  0.00    +0.125 A 
ATOM     24  C   UNL     1     -16.274   3.130  27.735  0.00  0.00    +0.010 A 
ATOM     26  C   UNL     1     -16.017   3.382  26.379  0.00  0.00    +0.031 A 
ATOM     27  C   UNL     1     -16.768   4.326  25.679  0.00  0.00    +0.030 A 
ATOM     28  C   UNL     1     -18.044   4.795  27.678  0.00  0.00    +0.048 A 
ATOM     29  C   UNL     1     -17.783   5.024  26.326  0.00  0.00    +0.027 A 
ATOM     40  H   UNL     1     -13.606   2.906  28.534  0.00  0.00    +0.123 HD
ENDROOT
BRANCH  27   8
ATOM      4  O   UNL     1     -15.970   4.809  21.579  0.00  0.00    -0.377 OA
ATOM      8  N   UNL     1     -16.495   4.577  24.330  0.00  0.00    -0.326 N 
ATOM     31  C   UNL     1     -17.556   4.319  23.348  0.00  0.00    +0.133 C 
ATOM     32  C   UNL     1     -15.125   4.437  23.822  0.00  0.00    +0.133 C 
ATOM     33  C   UNL     1     -17.278   5.105  22.070  0.00  0.00    +0.178 C 
ATOM     34  C   UNL     1     -14.977   5.215  22.520  0.00  0.00    +0.178 C 
ENDBRANCH  27   8
BRANCH  11  16
ATOM     16  C   UNL     1     -14.592   6.994  33.670  0.00  0.00    +0.099 C 
BRANCH  16  19
ATOM      3  O   UNL     1     -12.808   7.669  35.158  0.00  0.00    -0.276 OA
ATOM      6  N   UNL     1     -12.922   8.582  33.024  0.00  0.00    -0.311 N 
ATOM     19  C   UNL     1     -13.350   7.766  34.060  0.00  0.00    +0.214 C 
ATOM     39  H   UNL     1     -13.443   8.609  32.154  0.00  0.00    +0.149 HD
BRANCH   6  25
ATOM     25  C   UNL     1     -11.758   9.434  33.120  0.00  0.00    +0.139 C 
BRANCH  25  30
ATOM      9  N   UNL     1     -10.981  11.512  29.440  0.00  0.00    -0.263 NA
ATOM     30  C   UNL     1     -11.487  10.161  31.834  0.00  0.00    -0.027 A 
ATOM     35  C   UNL     1     -11.889   9.609  30.622  0.00  0.00    +0.025 A 
ATOM     36  C   UNL     1     -10.832  11.387  31.849  0.00  0.00    +0.025 A 
ATOM     37  C   UNL     1     -11.615  10.318  29.465  0.00  0.00    +0.111 A 
ATOM     38  C   UNL     1     -10.604  12.016  30.637  0.00  0.00    +0.111 A 
ENDBRANCH  25  30
ENDBRANCH   6  25
ENDBRANCH  16  19
ENDBRANCH  11  16
TORSDOF 5
ENDMDL
MODEL 9
REMARK VINA RESULT:      -6.8     30.083     33.658
REMARK  Name = 56776085
REMARK  5 active torsions:
REMARK  status: ('A' for Active; 'I' for Inactive)
REMARK    1  A    between atoms: N_6  and  C_25
REMARK    2  A    between atoms: N_8  and  C_27
REMARK    3  A    between atoms: C_11  and  C_16
REMARK    4  A    between atoms: C_16  and  C_19
REMARK    5  A    between atoms: C_25  and  C_30
REMARK                            x       y       z     vdW  Elec       q    Type
REMARK                         _______ _______ _______ _____ _____    ______ ____
ROOT
ATOM      1  O   UNL     1      -3.625 -11.821  16.497  0.00  0.00    -0.492 OA
ATOM      2  O   UNL     1      -2.339 -14.553  14.485  0.00  0.00    -0.274 OA
ATOM      5  N   UNL     1      -3.223 -13.417  12.670  0.00  0.00    -0.300 N 
ATOM      7  N   UNL     1      -5.400 -14.061  14.865  0.00  0.00    -0.304 NA
ATOM     10  C   UNL     1      -2.388 -11.096  12.491  0.00  0.00    +0.010 C 
ATOM     11  C   UNL     1      -3.327 -10.877  11.272  0.00  0.00    +0.004 C 
ATOM     12  C   UNL     1      -4.576 -11.771  11.370  0.00  0.00    +0.023 C 
ATOM     13  C   UNL     1      -2.019 -12.592  12.518  0.00  0.00    +0.111 C 
ATOM     14  C   UNL     1      -3.030 -10.628  13.820  0.00  0.00    +0.008 C 
ATOM     15  C   UNL     1      -4.220 -13.240  11.604  0.00  0.00    +0.108 C 
ATOM     17  C   UNL     1      -2.110 -10.687  15.049  0.00  0.00    +0.041 C 
ATOM     18  C   UNL     1      -3.294 -14.316  13.736  0.00  0.00    +0.229 C 
ATOM     20  C   UNL     1      -2.940 -10.577  16.332  0.00  0.00    +0.229 C 
ATOM     21  C   UNL     1      -4.627 -14.981  14.030  0.00  0.00    +0.178 C 
ATOM     22  C   UNL     1      -5.074 -14.209  16.287  0.00  0.00    +0.120 C 
ATOM     23  C   UNL     1      -4.793 -11.844  17.210  0.00  0.00    +0.125 A 
ATOM     24  C   UNL     1      -5.552 -13.029  17.109  0.00  0.00    +0.010 A 
ATOM     26  C   UNL     1      -6.780 -13.118  17.784  0.00  0.00    +0.031 A 
ATOM     27  C   UNL     1      -7.233 -12.060  18.571  0.00  0.00    +0.030 A 
ATOM     28  C   UNL     1      -5.246 -10.797  18.021  0.00  0.00    +0.048 A 
ATOM     29  C   UNL     1      -6.464 -10.907  18.694  0.00  0.00    +0.027 A 
ATOM     40  H   UNL     1      -6.395 -14.250  14.741  0.00  0.00    +0.123 HD
ENDROOT
BRANCH  27   8
ATOM      4  O   UNL     1     -10.814 -12.220  20.769  0.00  0.00    -0.377 OA
ATOM      8  N   UNL     1      -8.464 -12.154  19.229  0.00  0.00    -0.326 N 
ATOM     31  C   UNL     1      -9.171 -10.909  19.559  0.00  0.00    +0.133 C 
ATOM     32  C   UNL     1      -8.726 -13.280  20.133  0.00  0.00    +0.133 C 
ATOM     33  C   UNL     1     -10.651 -11.201  19.783  0.00  0.00    +0.178 C 
ATOM     34  C   UNL     1     -10.229 -13.445  20.327  0.00  0.00    +0.178 C 
ENDBRANCH  27   8
BRANCH  11  16
ATOM     16  C   UNL     1      -3.722  -9.415  11.062  0.00  0.00    +0.099 C 
BRANCH  16  19
ATOM      3  O   UNL     1      -4.283  -9.652   8.721  0.00  0.00    -0.276 OA
ATOM      6  N   UNL     1      -5.736  -8.515  10.133  0.00  0.00    -0.311 N 
ATOM     19  C   UNL     1      -4.584  -9.226   9.832  0.00  0.00    +0.214 C 
ATOM     39  H   UNL     1      -5.895  -8.189  11.081  0.00  0.00    +0.149 HD
BRANCH   6  25
ATOM     25  C   UNL     1      -6.741  -8.187   9.148  0.00  0.00    +0.139 C 
BRANCH  25  30
ATOM      9  N   UNL     1     -10.709  -9.068  10.543  0.00  0.00    -0.263 NA
ATOM     30  C   UNL     1      -8.128  -8.495   9.635  0.00  0.00    -0.027 A 
ATOM     35  C   UNL     1      -9.224  -7.843   9.081  0.00  0.00    +0.025 A 
ATOM     36  C   UNL     1      -8.321  -9.433  10.643  0.00  0.00    +0.025 A 
ATOM     37  C   UNL     1     -10.482  -8.163   9.566  0.00  0.00    +0.111 A 
ATOM     38  C   UNL     1      -9.618  -9.681  11.058  0.00  0.00    +0.111 A 
ENDBRANCH  25  30
ENDBRANCH   6  25
ENDBRANCH  16  19
ENDBRANCH  11  16
TORSDOF 5
ENDMDL
MODEL 10
REMARK VINA RESULT:      -6.8     27.819     33.158
REMARK  Name = 56776085
REMARK  5 active torsions:
REMARK  status: ('A' for Active; 'I' for Inactive)
REMARK    1  A    between atoms: N_6  and  C_25
REMARK    2  A    between atoms: N_8  and  C_27
REMARK    3  A    between atoms: C_11  and  C_16
REMARK    4  A    between atoms: C_16  and  C_19
REMARK    5  A    between atoms: C_25  and  C_30
REMARK                            x       y       z     vdW  Elec       q    Type
REMARK                         _______ _______ _______ _____ _____    ______ ____
ROOT
ATOM      1  O   UNL     1     -11.241  10.395  34.581  0.00  0.00    -0.492 OA
ATOM      2  O   UNL     1     -11.141  11.552  38.019  0.00  0.00    -0.274 OA
ATOM      5  N   UNL     1      -9.077  10.508  38.139  0.00  0.00    -0.300 N 
ATOM      7  N   UNL     1     -11.381   8.525  37.286  0.00  0.00    -0.304 NA
ATOM     10  C   UNL     1      -7.501  11.293  36.402  0.00  0.00    +0.010 C 
ATOM     11  C   UNL     1      -6.461  10.255  36.910  0.00  0.00    +0.004 C 
ATOM     12  C   UNL     1      -7.160   9.031  37.528  0.00  0.00    +0.023 C 
ATOM     13  C   UNL     1      -8.379  11.684  37.608  0.00  0.00    +0.111 C 
ATOM     14  C   UNL     1      -8.340  10.754  35.218  0.00  0.00    +0.008 C 
ATOM     15  C   UNL     1      -8.189   9.426  38.589  0.00  0.00    +0.108 C 
ATOM     17  C   UNL     1      -9.295  11.772  34.575  0.00  0.00    +0.041 C 
ATOM     18  C   UNL     1     -10.470  10.536  38.234  0.00  0.00    +0.229 C 
ATOM     20  C   UNL     1     -10.323  11.047  33.699  0.00  0.00    +0.229 C 
ATOM     21  C   UNL     1     -11.196   9.241  38.550  0.00  0.00    +0.178 C 
ATOM     22  C   UNL     1     -12.588   8.968  36.579  0.00  0.00    +0.120 C 
ATOM     23  C   UNL     1     -11.913   9.289  34.137  0.00  0.00    +0.125 A 
ATOM     24  C   UNL     1     -12.587   8.541  35.126  0.00  0.00    +0.010 A 
ATOM     26  C   UNL     1     -13.273   7.374  34.754  0.00  0.00    +0.031 A 
ATOM     27  C   UNL     1     -13.315   6.971  33.421  0.00  0.00    +0.030 A 
ATOM     28  C   UNL     1     -11.980   8.889  32.798  0.00  0.00    +0.048 A 
ATOM     29  C   UNL     1     -12.676   7.731  32.445  0.00  0.00    +0.027 A 
ATOM     40  H   UNL     1     -11.467   7.526  37.475  0.00  0.00    +0.123 HD
ENDROOT
BRANCH  27   8
ATOM      4  O   UNL     1     -15.575   3.560  32.454  0.00  0.00    -0.377 OA
ATOM      8  N   UNL     1     -13.990   5.799  33.064  0.00  0.00    -0.326 N 
ATOM     31  C   UNL     1     -15.031   5.885  32.031  0.00  0.00    +0.133 C 
ATOM     32  C   UNL     1     -14.179   4.733  34.054  0.00  0.00    +0.133 C 
ATOM     33  C   UNL     1     -15.275   4.506  31.428  0.00  0.00    +0.178 C 
ATOM     34  C   UNL     1     -14.469   3.416  33.344  0.00  0.00    +0.178 C 
ENDBRANCH  27   8
BRANCH  11  16
ATOM     16  C   UNL     1      -5.459   9.824  35.840  0.00  0.00    +0.099 C 
BRANCH  16  19
ATOM      3  O   UNL     1      -3.482  11.072  36.461  0.00  0.00    -0.276 OA
ATOM      6  N   UNL     1      -3.425   8.750  36.505  0.00  0.00    -0.311 N 
ATOM     19  C   UNL     1      -4.025   9.983  36.299  0.00  0.00    +0.214 C 
ATOM     39  H   UNL     1      -3.949   7.898  36.332  0.00  0.00    +0.149 HD
BRANCH   6  25
ATOM     25  C   UNL     1      -2.057   8.601  36.945  0.00  0.00    +0.139 C 
BRANCH  25  30
ATOM      9  N   UNL     1      -1.742   6.024  40.369  0.00  0.00    -0.263 NA
ATOM     30  C   UNL     1      -1.946   7.701  38.143  0.00  0.00    -0.027 A 
ATOM     35  C   UNL     1      -0.860   6.843  38.273  0.00  0.00    +0.025 A 
ATOM     36  C   UNL     1      -2.930   7.722  39.124  0.00  0.00    +0.025 A 
ATOM     37  C   UNL     1      -0.805   6.033  39.395  0.00  0.00    +0.111 A 
ATOM     38  C   UNL     1      -2.783   6.872  40.208  0.00  0.00    +0.111 A 
ENDBRANCH  25  30
ENDBRANCH   6  25
ENDBRANCH  16  19
ENDBRANCH  11  16
TORSDOF 5
ENDMDL
