REMARK  Name = 11913093
REMARK  10 active torsions:
REMARK  status: ('A' for Active; 'I' for Inactive)
REMARK    1  A    between atoms: O_3  and  C_13
REMARK    2  A    between atoms: O_3  and  C_17
REMARK    3  A    between atoms: O_5  and  C_28
REMARK    4  A    between atoms: O_5  and  C_31
REMARK    5  A    between atoms: N_6  and  C_12
REMARK    6  A    between atoms: N_9  and  C_25
REMARK    7  A    between atoms: C_18  and  C_19
REMARK    8  A    between atoms: C_18  and  C_22
REMARK    9  A    between atoms: C_18  and  C_23
REMARK   10  A    between atoms: C_18  and  C_24
REMARK                            x       y       z     vdW  Elec       q    Type
REMARK                         _______ _______ _______ _____ _____    ______ ____
ROOT
ATOM      1  O   UNL     1       0.188  -0.325  -1.442  0.00  0.00    -0.368 OA
ATOM      2  O   UNL     1      -1.577  -2.373   0.007  0.00  0.00    -0.368 OA
ATOM     10  C   UNL     1      -1.589  -0.930   0.006  0.00  0.00    +0.173 C 
ATOM     11  C   UNL     1      -0.143  -0.480  -0.053  0.00  0.00    +0.192 C 
ATOM     12  C   UNL     1      -2.184  -0.419  -1.285  0.00  0.00    +0.130 C 
ATOM     13  C   UNL     1       0.588  -1.645   0.570  0.00  0.00    +0.235 C 
ATOM     14  C   UNL     1      -1.000  -0.479  -2.234  0.00  0.00    +0.185 C 
ATOM     15  C   UNL     1      -0.218  -2.826   0.079  0.00  0.00    +0.207 C 
ENDROOT
BRANCH  12   6
ATOM      6  N   UNL     1      -2.630   0.949  -1.125  0.00  0.00    -0.306 N 
ATOM      7  N   UNL     1      -4.712   0.286  -0.269  0.00  0.00    -0.219 NA
ATOM      8  N   UNL     1      -4.165   2.619  -0.525  0.00  0.00    -0.223 NA
ATOM     16  C   UNL     1      -3.873   1.295  -0.625  0.00  0.00    +0.216 A 
ATOM     19  C   UNL     1      -5.915   0.660   0.215  0.00  0.00    +0.052 A 
ATOM     20  C   UNL     1      -6.309   1.974   0.357  0.00  0.00    +0.043 A 
ATOM     21  C   UNL     1      -5.384   2.921  -0.033  0.00  0.00    +0.116 A 
ATOM     32  H   UNL     1      -1.993   1.708  -1.338  0.00  0.00    +0.149 HD
BRANCH  19  18
ATOM     18  C   UNL     1      -6.848  -0.435   0.610  0.00  0.00    +0.005 C 
ATOM     22  C   UNL     1      -7.226  -0.338   2.121  0.00  0.00    +0.017 C 
ATOM     23  C   UNL     1      -6.302  -1.887   0.410  0.00  0.00    +0.017 C 
ATOM     24  C   UNL     1      -8.173  -0.372  -0.211  0.00  0.00    +0.017 C 
ENDBRANCH  19  18
ENDBRANCH  12   6
BRANCH  13   3
ATOM      3  O   UNL     1       1.942  -1.729   0.187  0.00  0.00    -0.442 OA
BRANCH   3  17
ATOM      4  O   UNL     1       2.353   0.291   1.177  0.00  0.00    -0.226 OA
ATOM      9  N   UNL     1       4.045  -0.918   0.102  0.00  0.00    -0.251 N 
ATOM     17  C   UNL     1       2.760  -0.680   0.550  0.00  0.00    +0.405 C 
ATOM     33  H   UNL     1       4.189  -1.789  -0.404  0.00  0.00    +0.158 HD
BRANCH   9  25
ATOM     25  C   UNL     1       5.187  -0.101   0.259  0.00  0.00    +0.040 A 
ATOM     26  C   UNL     1       6.399  -0.518  -0.269  0.00  0.00    +0.069 A 
ATOM     27  C   UNL     1       5.074   1.102   0.937  0.00  0.00    +0.023 A 
ATOM     28  C   UNL     1       7.526   0.289  -0.114  0.00  0.00    +0.122 A 
ATOM     29  C   UNL     1       6.201   1.909   1.091  0.00  0.00    +0.005 A 
ATOM     30  C   UNL     1       7.427   1.502   0.566  0.00  0.00    +0.046 A 
BRANCH  28   5
ATOM      5  O   UNL     1       8.723  -0.108  -0.628  0.00  0.00    -0.495 OA
ATOM     31  C   UNL     1       9.834   0.765  -0.433  0.00  0.00    +0.277 C 
ENDBRANCH  28   5
ENDBRANCH   9  25
ENDBRANCH   3  17
ENDBRANCH  13   3
TORSDOF 6
