MODEL 1
REMARK VINA RESULT:      -6.9      0.000      0.000
REMARK  Name = 38027105
REMARK  13 active torsions:
REMARK  status: ('A' for Active; 'I' for Inactive)
REMARK    1  A    between atoms: N_4  and  C_15
REMARK    2  A    between atoms: N_5  and  C_22
REMARK    3  A    between atoms: N_6  and  C_23
REMARK    4  A    between atoms: C_8  and  C_12
REMARK    5  A    between atoms: C_9  and  C_15
REMARK    6  A    between atoms: C_11  and  C_16
REMARK    7  A    between atoms: C_12  and  C_17
REMARK    8  A    between atoms: C_12  and  C_18
REMARK    9  A    between atoms: C_13  and  C_19
REMARK   10  A    between atoms: C_16  and  C_20
REMARK   11  A    between atoms: C_21  and  C_24
REMARK   12  A    between atoms: C_22  and  C_23
REMARK   13  A    between atoms: C_33  and  C_34
REMARK                            x       y       z     vdW  Elec       q    Type
REMARK                         _______ _______ _______ _____ _____    ______ ____
ROOT
ATOM      8  C   UNL     1      -3.197 -12.141  12.422  0.00  0.00    +0.000 C 
ATOM      9  C   UNL     1      -2.140 -11.031  12.205  0.00  0.00    +0.032 C 
ATOM     10  C   UNL     1      -3.898 -12.480  11.097  0.00  0.00    +0.012 C 
ATOM     11  C   UNL     1      -4.596 -11.255  10.478  0.00  0.00    +0.023 C 
ATOM     13  C   UNL     1      -3.697 -10.036  10.476  0.00  0.00    -0.073 C 
ATOM     14  C   UNL     1      -2.595  -9.959  11.243  0.00  0.00    -0.022 C 
ATOM     19  C   UNL     1      -4.066  -8.924   9.534  0.00  0.00    +0.039 C 
ENDROOT
BRANCH   8  12
ATOM     12  C   UNL     1      -2.578 -13.409  13.020  0.00  0.00    -0.013 C 
ATOM     17  C   UNL     1      -3.347 -13.841  14.263  0.00  0.00    +0.007 C 
ATOM     18  C   UNL     1      -2.551 -14.527  11.984  0.00  0.00    +0.007 C 
ENDBRANCH   8  12
BRANCH   9  15
ATOM     15  C   UNL     1      -1.735 -10.385  13.536  0.00  0.00    +0.112 C 
BRANCH  15   4
ATOM      2  O   UNL     1      -1.527 -10.839  16.363  0.00  0.00    -0.270 OA
ATOM      4  N   UNL     1      -2.812 -10.437  14.472  0.00  0.00    -0.311 N 
ATOM     21  C   UNL     1      -2.622 -10.663  15.835  0.00  0.00    +0.244 C 
ATOM     35  H   UNL     1      -3.738 -10.209  14.125  0.00  0.00    +0.149 HD
BRANCH  21  24
ATOM     24  C   UNL     1      -3.848 -10.714  16.674  0.00  0.00    +0.037 A 
ATOM     29  C   UNL     1      -3.831 -11.392  17.892  0.00  0.00    +0.014 A 
ATOM     30  C   UNL     1      -5.015 -10.083  16.242  0.00  0.00    +0.014 A 
ATOM     31  C   UNL     1      -4.982 -11.440  18.679  0.00  0.00    +0.019 A 
ATOM     32  C   UNL     1      -6.166 -10.131  17.029  0.00  0.00    +0.019 A 
ATOM     33  C   UNL     1      -6.149 -10.809  18.248  0.00  0.00    +0.052 A 
BRANCH  33  34
ATOM      7  N   UNL     1      -8.286 -10.898  19.708  0.00  0.00    -0.191 NA
ATOM     34  C   UNL     1      -7.328 -10.858  19.053  0.00  0.00    +0.099 C 
ENDBRANCH  33  34
ENDBRANCH  21  24
ENDBRANCH  15   4
ENDBRANCH   9  15
BRANCH  11  16
ATOM     16  C   UNL     1      -5.922 -10.957  11.188  0.00  0.00    +0.103 C 
BRANCH  16  20
ATOM      1  O   UNL     1      -7.394 -11.531   9.356  0.00  0.00    -0.276 OA
ATOM      5  N   UNL     1      -7.627  -9.473  10.410  0.00  0.00    -0.314 N 
ATOM     20  C   UNL     1      -7.050 -10.718  10.210  0.00  0.00    +0.214 C 
ATOM     36  H   UNL     1      -7.273  -8.875  11.151  0.00  0.00    +0.149 HD
BRANCH   5  22
ATOM     22  C   UNL     1      -8.728  -8.976   9.616  0.00  0.00    +0.119 C 
BRANCH  22  23
ATOM     23  C   UNL     1      -8.282  -7.841   8.706  0.00  0.00    +0.103 C 
BRANCH  23   6
ATOM      3  O   UNL     1      -7.255  -8.223   4.656  0.00  0.00    -0.377 OA
ATOM      6  N   UNL     1      -8.273  -8.280   7.313  0.00  0.00    -0.297 NA
ATOM     25  C   UNL     1      -6.986  -8.901   6.969  0.00  0.00    +0.112 C 
ATOM     26  C   UNL     1      -8.544  -7.153   6.410  0.00  0.00    +0.112 C 
ATOM     27  C   UNL     1      -6.996  -9.340   5.508  0.00  0.00    +0.175 C 
ATOM     28  C   UNL     1      -8.519  -7.633   4.961  0.00  0.00    +0.175 C 
ENDBRANCH  23   6
ENDBRANCH  22  23
ENDBRANCH   5  22
ENDBRANCH  16  20
ENDBRANCH  11  16
TORSDOF 10
ENDMDL
MODEL 2
REMARK VINA RESULT:      -6.8      3.727      7.562
REMARK  Name = 38027105
REMARK  13 active torsions:
REMARK  status: ('A' for Active; 'I' for Inactive)
REMARK    1  A    between atoms: N_4  and  C_15
REMARK    2  A    between atoms: N_5  and  C_22
REMARK    3  A    between atoms: N_6  and  C_23
REMARK    4  A    between atoms: C_8  and  C_12
REMARK    5  A    between atoms: C_9  and  C_15
REMARK    6  A    between atoms: C_11  and  C_16
REMARK    7  A    between atoms: C_12  and  C_17
REMARK    8  A    between atoms: C_12  and  C_18
REMARK    9  A    between atoms: C_13  and  C_19
REMARK   10  A    between atoms: C_16  and  C_20
REMARK   11  A    between atoms: C_21  and  C_24
REMARK   12  A    between atoms: C_22  and  C_23
REMARK   13  A    between atoms: C_33  and  C_34
REMARK                            x       y       z     vdW  Elec       q    Type
REMARK                         _______ _______ _______ _____ _____    ______ ____
ROOT
ATOM      8  C   UNL     1      -7.327 -11.607  17.092  0.00  0.00    +0.000 C 
ATOM      9  C   UNL     1      -7.428 -11.990  18.589  0.00  0.00    +0.032 C 
ATOM     10  C   UNL     1      -6.123 -12.306  16.441  0.00  0.00    +0.012 C 
ATOM     11  C   UNL     1      -4.795 -11.940  17.130  0.00  0.00    +0.023 C 
ATOM     13  C   UNL     1      -4.898 -12.035  18.638  0.00  0.00    -0.073 C 
ATOM     14  C   UNL     1      -6.084 -12.070  19.272  0.00  0.00    -0.022 C 
ATOM     19  C   UNL     1      -3.606 -12.136  19.400  0.00  0.00    +0.039 C 
ENDROOT
BRANCH   8  12
ATOM     12  C   UNL     1      -8.607 -11.959  16.327  0.00  0.00    -0.013 C 
ATOM     17  C   UNL     1      -8.726 -11.105  15.069  0.00  0.00    +0.007 C 
ATOM     18  C   UNL     1      -8.626 -13.443  15.976  0.00  0.00    +0.007 C 
ENDBRANCH   8  12
BRANCH   9  15
ATOM     15  C   UNL     1      -8.330 -11.011  19.351  0.00  0.00    +0.112 C 
BRANCH  15   4
ATOM      2  O   UNL     1     -11.068 -10.148  19.275  0.00  0.00    -0.270 OA
ATOM      4  N   UNL     1      -8.897 -10.047  18.461  0.00  0.00    -0.311 N 
ATOM     21  C   UNL     1     -10.243  -9.684  18.493  0.00  0.00    +0.244 C 
ATOM     35  H   UNL     1      -8.257  -9.553  17.847  0.00  0.00    +0.149 HD
BRANCH  21  24
ATOM     24  C   UNL     1     -10.681  -8.686  17.483  0.00  0.00    +0.037 A 
ATOM     29  C   UNL     1     -12.033  -8.571  17.159  0.00  0.00    +0.014 A 
ATOM     30  C   UNL     1      -9.742  -7.864  16.861  0.00  0.00    +0.014 A 
ATOM     31  C   UNL     1     -12.445  -7.634  16.210  0.00  0.00    +0.019 A 
ATOM     32  C   UNL     1     -10.154  -6.927  15.912  0.00  0.00    +0.019 A 
ATOM     33  C   UNL     1     -11.505  -6.812  15.588  0.00  0.00    +0.052 A 
BRANCH  33  34
ATOM      7  N   UNL     1     -12.268  -5.073  13.827  0.00  0.00    -0.191 NA
ATOM     34  C   UNL     1     -11.927  -5.853  14.617  0.00  0.00    +0.099 C 
ENDBRANCH  33  34
ENDBRANCH  21  24
ENDBRANCH  15   4
ENDBRANCH   9  15
BRANCH  11  16
ATOM     16  C   UNL     1      -4.315 -10.549  16.699  0.00  0.00    +0.103 C 
BRANCH  16  20
ATOM      1  O   UNL     1      -1.912 -10.817  16.607  0.00  0.00    -0.276 OA
ATOM      5  N   UNL     1      -3.090 -10.368  14.655  0.00  0.00    -0.314 N 
ATOM     20  C   UNL     1      -2.967 -10.599  16.016  0.00  0.00    +0.214 C 
ATOM     36  H   UNL     1      -4.012 -10.206  14.260  0.00  0.00    +0.149 HD
BRANCH   5  22
ATOM     22  C   UNL     1      -1.963 -10.356  13.751  0.00  0.00    +0.119 C 
BRANCH  22  23
ATOM     23  C   UNL     1      -2.150 -11.360  12.623  0.00  0.00    +0.103 C 
BRANCH  23   6
ATOM      3  O   UNL     1      -4.030 -10.315   9.020  0.00  0.00    -0.377 OA
ATOM      6  N   UNL     1      -3.139 -10.871  11.665  0.00  0.00    -0.297 NA
ATOM     25  C   UNL     1      -3.560 -11.944  10.754  0.00  0.00    +0.112 C 
ATOM     26  C   UNL     1      -2.602  -9.740  10.895  0.00  0.00    +0.112 C 
ATOM     27  C   UNL     1      -4.582 -11.406   9.757  0.00  0.00    +0.175 C 
ATOM     28  C   UNL     1      -3.647  -9.253   9.895  0.00  0.00    +0.175 C 
ENDBRANCH  23   6
ENDBRANCH  22  23
ENDBRANCH   5  22
ENDBRANCH  16  20
ENDBRANCH  11  16
TORSDOF 10
ENDMDL
MODEL 3
REMARK VINA RESULT:      -6.6      1.424      1.773
REMARK  Name = 38027105
REMARK  13 active torsions:
REMARK  status: ('A' for Active; 'I' for Inactive)
REMARK    1  A    between atoms: N_4  and  C_15
REMARK    2  A    between atoms: N_5  and  C_22
REMARK    3  A    between atoms: N_6  and  C_23
REMARK    4  A    between atoms: C_8  and  C_12
REMARK    5  A    between atoms: C_9  and  C_15
REMARK    6  A    between atoms: C_11  and  C_16
REMARK    7  A    between atoms: C_12  and  C_17
REMARK    8  A    between atoms: C_12  and  C_18
REMARK    9  A    between atoms: C_13  and  C_19
REMARK   10  A    between atoms: C_16  and  C_20
REMARK   11  A    between atoms: C_21  and  C_24
REMARK   12  A    between atoms: C_22  and  C_23
REMARK   13  A    between atoms: C_33  and  C_34
REMARK                            x       y       z     vdW  Elec       q    Type
REMARK                         _______ _______ _______ _____ _____    ______ ____
ROOT
ATOM      8  C   UNL     1      -3.151 -12.107  12.688  0.00  0.00    +0.000 C 
ATOM      9  C   UNL     1      -2.053 -11.035  12.481  0.00  0.00    +0.032 C 
ATOM     10  C   UNL     1      -3.752 -12.525  11.337  0.00  0.00    +0.012 C 
ATOM     11  C   UNL     1      -4.369 -11.334  10.580  0.00  0.00    +0.023 C 
ATOM     13  C   UNL     1      -3.442 -10.135  10.566  0.00  0.00    -0.073 C 
ATOM     14  C   UNL     1      -2.403 -10.026  11.414  0.00  0.00    -0.022 C 
ATOM     19  C   UNL     1      -3.708  -9.086   9.523  0.00  0.00    +0.039 C 
ENDROOT
BRANCH   8  12
ATOM     12  C   UNL     1      -2.612 -13.340  13.420  0.00  0.00    -0.013 C 
ATOM     17  C   UNL     1      -3.604 -13.802  14.483  0.00  0.00    +0.007 C 
ATOM     18  C   UNL     1      -2.320 -14.461  12.430  0.00  0.00    +0.007 C 
ENDBRANCH   8  12
BRANCH   9  15
ATOM     15  C   UNL     1      -1.739 -10.303  13.792  0.00  0.00    +0.112 C 
BRANCH  15   4
ATOM      2  O   UNL     1      -1.618 -10.819  16.614  0.00  0.00    -0.270 OA
ATOM      4  N   UNL     1      -2.845 -10.382  14.693  0.00  0.00    -0.311 N 
ATOM     21  C   UNL     1      -2.696 -10.638  16.056  0.00  0.00    +0.244 C 
ATOM     35  H   UNL     1      -3.761 -10.152  14.322  0.00  0.00    +0.149 HD
BRANCH  21  24
ATOM     24  C   UNL     1      -3.948 -10.714  16.854  0.00  0.00    +0.037 A 
ATOM     29  C   UNL     1      -3.973 -11.442  18.043  0.00  0.00    +0.014 A 
ATOM     30  C   UNL     1      -5.097 -10.057  16.413  0.00  0.00    +0.014 A 
ATOM     31  C   UNL     1      -5.148 -11.514  18.792  0.00  0.00    +0.019 A 
ATOM     32  C   UNL     1      -6.272 -10.129  17.162  0.00  0.00    +0.019 A 
ATOM     33  C   UNL     1      -6.297 -10.857  18.352  0.00  0.00    +0.052 A 
BRANCH  33  34
ATOM      7  N   UNL     1      -8.479 -10.991  19.741  0.00  0.00    -0.191 NA
ATOM     34  C   UNL     1      -7.500 -10.930  19.118  0.00  0.00    +0.099 C 
ENDBRANCH  33  34
ENDBRANCH  21  24
ENDBRANCH  15   4
ENDBRANCH   9  15
BRANCH  11  16
ATOM     16  C   UNL     1      -5.739 -10.961  11.158  0.00  0.00    +0.103 C 
BRANCH  16  20
ATOM      1  O   UNL     1      -7.586 -12.223  10.236  0.00  0.00    -0.276 OA
ATOM      5  N   UNL     1      -6.951 -10.224   9.235  0.00  0.00    -0.314 N 
ATOM     20  C   UNL     1      -6.861 -11.232  10.181  0.00  0.00    +0.214 C 
ATOM     36  H   UNL     1      -6.307  -9.439   9.281  0.00  0.00    +0.149 HD
BRANCH   5  22
ATOM     22  C   UNL     1      -7.933 -10.222   8.175  0.00  0.00    +0.119 C 
BRANCH  22  23
ATOM     23  C   UNL     1      -7.336  -9.710   6.872  0.00  0.00    +0.103 C 
BRANCH  23   6
ATOM      3  O   UNL     1      -5.030 -11.838   4.086  0.00  0.00    -0.377 OA
ATOM      6  N   UNL     1      -6.728 -10.808   6.126  0.00  0.00    -0.297 NA
ATOM     25  C   UNL     1      -5.263 -10.781   6.257  0.00  0.00    +0.112 C 
ATOM     26  C   UNL     1      -7.106 -10.747   4.707  0.00  0.00    +0.112 C 
ATOM     27  C   UNL     1      -4.651 -11.929   5.460  0.00  0.00    +0.175 C 
ATOM     28  C   UNL     1      -6.450 -11.896   3.946  0.00  0.00    +0.175 C 
ENDBRANCH  23   6
ENDBRANCH  22  23
ENDBRANCH   5  22
ENDBRANCH  16  20
ENDBRANCH  11  16
TORSDOF 10
ENDMDL
MODEL 4
REMARK VINA RESULT:      -6.6      1.244      1.885
REMARK  Name = 38027105
REMARK  13 active torsions:
REMARK  status: ('A' for Active; 'I' for Inactive)
REMARK    1  A    between atoms: N_4  and  C_15
REMARK    2  A    between atoms: N_5  and  C_22
REMARK    3  A    between atoms: N_6  and  C_23
REMARK    4  A    between atoms: C_8  and  C_12
REMARK    5  A    between atoms: C_9  and  C_15
REMARK    6  A    between atoms: C_11  and  C_16
REMARK    7  A    between atoms: C_12  and  C_17
REMARK    8  A    between atoms: C_12  and  C_18
REMARK    9  A    between atoms: C_13  and  C_19
REMARK   10  A    between atoms: C_16  and  C_20
REMARK   11  A    between atoms: C_21  and  C_24
REMARK   12  A    between atoms: C_22  and  C_23
REMARK   13  A    between atoms: C_33  and  C_34
REMARK                            x       y       z     vdW  Elec       q    Type
REMARK                         _______ _______ _______ _____ _____    ______ ____
ROOT
ATOM      8  C   UNL     1      -3.284 -12.065  12.381  0.00  0.00    +0.000 C 
ATOM      9  C   UNL     1      -2.171 -11.012  12.155  0.00  0.00    +0.032 C 
ATOM     10  C   UNL     1      -3.964 -12.419  11.049  0.00  0.00    +0.012 C 
ATOM     11  C   UNL     1      -4.588 -11.187  10.368  0.00  0.00    +0.023 C 
ATOM     13  C   UNL     1      -3.633 -10.011  10.348  0.00  0.00    -0.073 C 
ATOM     14  C   UNL     1      -2.550  -9.956  11.144  0.00  0.00    -0.022 C 
ATOM     19  C   UNL     1      -3.926  -8.918   9.358  0.00  0.00    +0.039 C 
ENDROOT
BRANCH   8  12
ATOM     12  C   UNL     1      -2.740 -13.336  13.039  0.00  0.00    -0.013 C 
ATOM     17  C   UNL     1      -3.630 -13.753  14.207  0.00  0.00    +0.007 C 
ATOM     18  C   UNL     1      -2.631 -14.461  12.016  0.00  0.00    +0.007 C 
ENDBRANCH   8  12
BRANCH   9  15
ATOM     15  C   UNL     1      -1.772 -10.337  13.473  0.00  0.00    +0.112 C 
BRANCH  15   4
ATOM      2  O   UNL     1      -1.520 -10.764  16.301  0.00  0.00    -0.270 OA
ATOM      4  N   UNL     1      -2.837 -10.412  14.423  0.00  0.00    -0.311 N 
ATOM     21  C   UNL     1      -2.625 -10.622  15.785  0.00  0.00    +0.244 C 
ATOM     35  H   UNL     1      -3.773 -10.212  14.085  0.00  0.00    +0.149 HD
BRANCH  21  24
ATOM     24  C   UNL     1      -3.840 -10.701  16.637  0.00  0.00    +0.037 A 
ATOM     29  C   UNL     1      -5.010 -10.050  16.245  0.00  0.00    +0.014 A 
ATOM     30  C   UNL     1      -3.811 -11.425  17.829  0.00  0.00    +0.014 A 
ATOM     31  C   UNL     1      -6.150 -10.123  17.045  0.00  0.00    +0.019 A 
ATOM     32  C   UNL     1      -4.951 -11.498  18.629  0.00  0.00    +0.019 A 
ATOM     33  C   UNL     1      -6.121 -10.847  18.236  0.00  0.00    +0.052 A 
BRANCH  33  34
ATOM      7  N   UNL     1      -8.238 -10.984  19.722  0.00  0.00    -0.191 NA
ATOM     34  C   UNL     1      -7.289 -10.922  19.056  0.00  0.00    +0.099 C 
ENDBRANCH  33  34
ENDBRANCH  21  24
ENDBRANCH  15   4
ENDBRANCH   9  15
BRANCH  11  16
ATOM     16  C   UNL     1      -5.917 -10.803  11.029  0.00  0.00    +0.103 C 
BRANCH  16  20
ATOM      1  O   UNL     1      -7.910 -12.158  10.812  0.00  0.00    -0.276 OA
ATOM      5  N   UNL     1      -7.154 -10.931   8.988  0.00  0.00    -0.314 N 
ATOM     20  C   UNL     1      -7.105 -11.385  10.297  0.00  0.00    +0.214 C 
ATOM     36  H   UNL     1      -6.443 -10.284   8.660  0.00  0.00    +0.149 HD
BRANCH   5  22
ATOM     22  C   UNL     1      -8.184 -11.326   8.054  0.00  0.00    +0.119 C 
BRANCH  22  23
ATOM     23  C   UNL     1      -8.618 -10.154   7.186  0.00  0.00    +0.103 C 
BRANCH  23   6
ATOM      3  O   UNL     1      -9.354  -6.195   8.366  0.00  0.00    -0.377 OA
ATOM      6  N   UNL     1      -8.640  -8.922   7.970  0.00  0.00    -0.297 NA
ATOM     25  C   UNL     1     -10.020  -8.525   8.284  0.00  0.00    +0.112 C 
ATOM     26  C   UNL     1      -7.956  -7.836   7.253  0.00  0.00    +0.112 C 
ATOM     27  C   UNL     1     -10.017  -7.231   9.091  0.00  0.00    +0.175 C 
ATOM     28  C   UNL     1      -8.001  -6.557   8.085  0.00  0.00    +0.175 C 
ENDBRANCH  23   6
ENDBRANCH  22  23
ENDBRANCH   5  22
ENDBRANCH  16  20
ENDBRANCH  11  16
TORSDOF 10
ENDMDL
MODEL 5
REMARK VINA RESULT:      -6.5     27.168     30.341
REMARK  Name = 38027105
REMARK  13 active torsions:
REMARK  status: ('A' for Active; 'I' for Inactive)
REMARK    1  A    between atoms: N_4  and  C_15
REMARK    2  A    between atoms: N_5  and  C_22
REMARK    3  A    between atoms: N_6  and  C_23
REMARK    4  A    between atoms: C_8  and  C_12
REMARK    5  A    between atoms: C_9  and  C_15
REMARK    6  A    between atoms: C_11  and  C_16
REMARK    7  A    between atoms: C_12  and  C_17
REMARK    8  A    between atoms: C_12  and  C_18
REMARK    9  A    between atoms: C_13  and  C_19
REMARK   10  A    between atoms: C_16  and  C_20
REMARK   11  A    between atoms: C_21  and  C_24
REMARK   12  A    between atoms: C_22  and  C_23
REMARK   13  A    between atoms: C_33  and  C_34
REMARK                            x       y       z     vdW  Elec       q    Type
REMARK                         _______ _______ _______ _____ _____    ______ ____
ROOT
ATOM      8  C   UNL     1      12.398   8.939  21.111  0.00  0.00    +0.000 C 
ATOM      9  C   UNL     1      12.078   8.411  19.690  0.00  0.00    +0.032 C 
ATOM     10  C   UNL     1      12.304  10.472  21.147  0.00  0.00    +0.012 C 
ATOM     11  C   UNL     1      13.270  11.138  20.150  0.00  0.00    +0.023 C 
ATOM     13  C   UNL     1      13.206  10.487  18.782  0.00  0.00    -0.073 C 
ATOM     14  C   UNL     1      12.656   9.274  18.594  0.00  0.00    -0.022 C 
ATOM     19  C   UNL     1      13.745  11.284  17.628  0.00  0.00    +0.039 C 
ENDROOT
BRANCH   8  12
ATOM     12  C   UNL     1      11.462   8.338  22.165  0.00  0.00    -0.013 C 
ATOM     17  C   UNL     1      10.578   9.423  22.771  0.00  0.00    +0.007 C 
ATOM     18  C   UNL     1      10.614   7.228  21.553  0.00  0.00    +0.007 C 
ENDBRANCH   8  12
BRANCH   9  15
ATOM     15  C   UNL     1      12.565   6.967  19.514  0.00  0.00    +0.112 C 
BRANCH  15   4
ATOM      2  O   UNL     1      14.911   7.036  17.860  0.00  0.00    -0.270 OA
ATOM      4  N   UNL     1      13.919   6.832  19.948  0.00  0.00    -0.311 N 
ATOM     21  C   UNL     1      15.004   6.879  19.074  0.00  0.00    +0.244 C 
ATOM     35  H   UNL     1      14.081   6.791  20.950  0.00  0.00    +0.149 HD
BRANCH  21  24
ATOM     24  C   UNL     1      16.349   6.696  19.681  0.00  0.00    +0.037 A 
ATOM     29  C   UNL     1      16.695   7.402  20.833  0.00  0.00    +0.014 A 
ATOM     30  C   UNL     1      17.263   5.818  19.099  0.00  0.00    +0.014 A 
ATOM     31  C   UNL     1      17.957   7.231  21.403  0.00  0.00    +0.019 A 
ATOM     32  C   UNL     1      18.525   5.647  19.668  0.00  0.00    +0.019 A 
ATOM     33  C   UNL     1      18.871   6.353  20.821  0.00  0.00    +0.052 A 
BRANCH  33  34
ATOM      7  N   UNL     1      21.214   6.035  21.878  0.00  0.00    -0.191 NA
ATOM     34  C   UNL     1      20.164   6.178  21.404  0.00  0.00    +0.099 C 
ENDBRANCH  33  34
ENDBRANCH  21  24
ENDBRANCH  15   4
ENDBRANCH   9  15
BRANCH  11  16
ATOM     16  C   UNL     1      14.706  11.139  20.688  0.00  0.00    +0.103 C 
BRANCH  16  20
ATOM      1  O   UNL     1      15.358  13.468  20.771  0.00  0.00    -0.276 OA
ATOM      5  N   UNL     1      14.985  12.312  22.752  0.00  0.00    -0.314 N 
ATOM     20  C   UNL     1      15.055  12.441  21.374  0.00  0.00    +0.214 C 
ATOM     36  H   UNL     1      14.716  11.419  23.155  0.00  0.00    +0.149 HD
BRANCH   5  22
ATOM     22  C   UNL     1      15.270  13.398  23.662  0.00  0.00    +0.119 C 
BRANCH  22  23
ATOM     23  C   UNL     1      14.018  14.210  23.959  0.00  0.00    +0.103 C 
BRANCH  23   6
ATOM      3  O   UNL     1      10.160  12.730  24.689  0.00  0.00    -0.377 OA
ATOM      6  N   UNL     1      12.839  13.348  23.953  0.00  0.00    -0.297 NA
ATOM     25  C   UNL     1      11.694  14.032  23.335  0.00  0.00    +0.112 C 
ATOM     26  C   UNL     1      12.495  12.926  25.318  0.00  0.00    +0.112 C 
ATOM     27  C   UNL     1      10.474  13.116  23.351  0.00  0.00    +0.175 C 
ATOM     28  C   UNL     1      11.256  12.035  25.288  0.00  0.00    +0.175 C 
ENDBRANCH  23   6
ENDBRANCH  22  23
ENDBRANCH   5  22
ENDBRANCH  16  20
ENDBRANCH  11  16
TORSDOF 10
ENDMDL
MODEL 6
REMARK VINA RESULT:      -6.5     27.099     29.700
REMARK  Name = 38027105
REMARK  13 active torsions:
REMARK  status: ('A' for Active; 'I' for Inactive)
REMARK    1  A    between atoms: N_4  and  C_15
REMARK    2  A    between atoms: N_5  and  C_22
REMARK    3  A    between atoms: N_6  and  C_23
REMARK    4  A    between atoms: C_8  and  C_12
REMARK    5  A    between atoms: C_9  and  C_15
REMARK    6  A    between atoms: C_11  and  C_16
REMARK    7  A    between atoms: C_12  and  C_17
REMARK    8  A    between atoms: C_12  and  C_18
REMARK    9  A    between atoms: C_13  and  C_19
REMARK   10  A    between atoms: C_16  and  C_20
REMARK   11  A    between atoms: C_21  and  C_24
REMARK   12  A    between atoms: C_22  and  C_23
REMARK   13  A    between atoms: C_33  and  C_34
REMARK                            x       y       z     vdW  Elec       q    Type
REMARK                         _______ _______ _______ _____ _____    ______ ____
ROOT
ATOM      8  C   UNL     1      13.187   9.141  20.120  0.00  0.00    +0.000 C 
ATOM      9  C   UNL     1      12.220   8.101  19.502  0.00  0.00    +0.032 C 
ATOM     10  C   UNL     1      12.960  10.523  19.489  0.00  0.00    +0.012 C 
ATOM     11  C   UNL     1      13.170  10.508  17.963  0.00  0.00    +0.023 C 
ATOM     13  C   UNL     1      12.459   9.340  17.309  0.00  0.00    -0.073 C 
ATOM     14  C   UNL     1      12.029   8.280  18.015  0.00  0.00    -0.022 C 
ATOM     19  C   UNL     1      12.211   9.442  15.830  0.00  0.00    +0.039 C 
ENDROOT
BRANCH   8  12
ATOM     12  C   UNL     1      13.026   9.234  21.641  0.00  0.00    -0.013 C 
ATOM     17  C   UNL     1      14.236   9.925  22.262  0.00  0.00    +0.007 C 
ATOM     18  C   UNL     1      11.741   9.972  21.997  0.00  0.00    +0.007 C 
ENDBRANCH   8  12
BRANCH   9  15
ATOM     15  C   UNL     1      12.692   6.670  19.788  0.00  0.00    +0.112 C 
BRANCH  15   4
ATOM      2  O   UNL     1      14.985   6.843  18.070  0.00  0.00    -0.270 OA
ATOM      4  N   UNL     1      14.062   6.659  20.191  0.00  0.00    -0.311 N 
ATOM     21  C   UNL     1      15.120   6.748  19.287  0.00  0.00    +0.244 C 
ATOM     35  H   UNL     1      14.251   6.675  21.189  0.00  0.00    +0.149 HD
BRANCH  21  24
ATOM     24  C   UNL     1      16.488   6.697  19.864  0.00  0.00    +0.037 A 
ATOM     29  C   UNL     1      17.441   5.835  19.322  0.00  0.00    +0.014 A 
ATOM     30  C   UNL     1      16.819   7.511  20.947  0.00  0.00    +0.014 A 
ATOM     31  C   UNL     1      18.726   5.786  19.864  0.00  0.00    +0.019 A 
ATOM     32  C   UNL     1      18.104   7.462  21.490  0.00  0.00    +0.019 A 
ATOM     33  C   UNL     1      19.057   6.600  20.947  0.00  0.00    +0.052 A 
BRANCH  33  34
ATOM      7  N   UNL     1      21.441   6.512  21.954  0.00  0.00    -0.191 NA
ATOM     34  C   UNL     1      20.373   6.551  21.503  0.00  0.00    +0.099 C 
ENDBRANCH  33  34
ENDBRANCH  21  24
ENDBRANCH  15   4
ENDBRANCH   9  15
BRANCH  11  16
ATOM     16  C   UNL     1      14.662  10.509  17.610  0.00  0.00    +0.103 C 
BRANCH  16  20
ATOM      1  O   UNL     1      16.235  12.229  16.961  0.00  0.00    -0.276 OA
ATOM      5  N   UNL     1      14.012  12.403  16.305  0.00  0.00    -0.314 N 
ATOM     20  C   UNL     1      15.086  11.796  16.938  0.00  0.00    +0.214 C 
ATOM     36  H   UNL     1      13.100  11.958  16.337  0.00  0.00    +0.149 HD
BRANCH   5  22
ATOM     22  C   UNL     1      14.125  13.650  15.582  0.00  0.00    +0.119 C 
BRANCH  22  23
ATOM     23  C   UNL     1      13.631  13.502  14.150  0.00  0.00    +0.103 C 
BRANCH  23   6
ATOM      3  O   UNL     1      17.414  12.754  12.495  0.00  0.00    -0.377 OA
ATOM      6  N   UNL     1      14.760  13.481  13.223  0.00  0.00    -0.297 NA
ATOM     25  C   UNL     1      15.106  12.101  12.852  0.00  0.00    +0.112 C 
ATOM     26  C   UNL     1      15.929  14.151  13.811  0.00  0.00    +0.112 C 
ATOM     27  C   UNL     1      16.294  12.104  11.895  0.00  0.00    +0.175 C 
ATOM     28  C   UNL     1      17.098  14.106  12.830  0.00  0.00    +0.175 C 
ENDBRANCH  23   6
ENDBRANCH  22  23
ENDBRANCH   5  22
ENDBRANCH  16  20
ENDBRANCH  11  16
TORSDOF 10
ENDMDL
MODEL 7
REMARK VINA RESULT:      -6.5     28.622     31.847
REMARK  Name = 38027105
REMARK  13 active torsions:
REMARK  status: ('A' for Active; 'I' for Inactive)
REMARK    1  A    between atoms: N_4  and  C_15
REMARK    2  A    between atoms: N_5  and  C_22
REMARK    3  A    between atoms: N_6  and  C_23
REMARK    4  A    between atoms: C_8  and  C_12
REMARK    5  A    between atoms: C_9  and  C_15
REMARK    6  A    between atoms: C_11  and  C_16
REMARK    7  A    between atoms: C_12  and  C_17
REMARK    8  A    between atoms: C_12  and  C_18
REMARK    9  A    between atoms: C_13  and  C_19
REMARK   10  A    between atoms: C_16  and  C_20
REMARK   11  A    between atoms: C_21  and  C_24
REMARK   12  A    between atoms: C_22  and  C_23
REMARK   13  A    between atoms: C_33  and  C_34
REMARK                            x       y       z     vdW  Elec       q    Type
REMARK                         _______ _______ _______ _____ _____    ______ ____
ROOT
ATOM      8  C   UNL     1      20.554   6.909  22.002  0.00  0.00    +0.000 C 
ATOM      9  C   UNL     1      20.349   5.648  21.126  0.00  0.00    +0.032 C 
ATOM     10  C   UNL     1      19.223   7.343  22.636  0.00  0.00    +0.012 C 
ATOM     11  C   UNL     1      18.148   7.653  21.578  0.00  0.00    +0.023 C 
ATOM     13  C   UNL     1      18.073   6.572  20.518  0.00  0.00    -0.073 C 
ATOM     14  C   UNL     1      19.059   5.676  20.340  0.00  0.00    -0.022 C 
ATOM     19  C   UNL     1      16.814   6.515  19.698  0.00  0.00    +0.039 C 
ENDROOT
BRANCH   8  12
ATOM     12  C   UNL     1      21.599   6.677  23.098  0.00  0.00    -0.013 C 
ATOM     17  C   UNL     1      22.817   7.566  22.868  0.00  0.00    +0.007 C 
ATOM     18  C   UNL     1      20.994   6.935  24.473  0.00  0.00    +0.007 C 
ENDBRANCH   8  12
BRANCH   9  15
ATOM     15  C   UNL     1      21.528   5.444  20.166  0.00  0.00    +0.112 C 
BRANCH  15   4
ATOM      2  O   UNL     1      24.382   5.430  20.471  0.00  0.00    -0.270 OA
ATOM      4  N   UNL     1      22.336   4.342  20.583  0.00  0.00    -0.311 N 
ATOM     21  C   UNL     1      23.722   4.422  20.706  0.00  0.00    +0.244 C 
ATOM     35  H   UNL     1      21.852   3.501  20.884  0.00  0.00    +0.149 HD
BRANCH  21  24
ATOM     24  C   UNL     1      24.421   3.179  21.127  0.00  0.00    +0.037 A 
ATOM     29  C   UNL     1      25.708   3.249  21.659  0.00  0.00    +0.014 A 
ATOM     30  C   UNL     1      23.788   1.943  20.991  0.00  0.00    +0.014 A 
ATOM     31  C   UNL     1      26.364   2.083  22.053  0.00  0.00    +0.019 A 
ATOM     32  C   UNL     1      24.444   0.777  21.385  0.00  0.00    +0.019 A 
ATOM     33  C   UNL     1      25.731   0.847  21.917  0.00  0.00    +0.052 A 
BRANCH  33  34
ATOM      7  N   UNL     1      26.948  -1.319  22.648  0.00  0.00    -0.191 NA
ATOM     34  C   UNL     1      26.402  -0.348  22.321  0.00  0.00    +0.099 C 
ENDBRANCH  33  34
ENDBRANCH  21  24
ENDBRANCH  15   4
ENDBRANCH   9  15
BRANCH  11  16
ATOM     16  C   UNL     1      18.379   9.029  20.941  0.00  0.00    +0.103 C 
BRANCH  16  20
ATOM      1  O   UNL     1      17.234  11.159  20.868  0.00  0.00    -0.276 OA
ATOM      5  N   UNL     1      16.229   9.356  21.934  0.00  0.00    -0.314 N 
ATOM     20  C   UNL     1      17.241   9.984  21.225  0.00  0.00    +0.214 C 
ATOM     36  H   UNL     1      16.327   8.374  22.176  0.00  0.00    +0.149 HD
BRANCH   5  22
ATOM     22  C   UNL     1      15.018  10.029  22.345  0.00  0.00    +0.119 C 
BRANCH  22  23
ATOM     23  C   UNL     1      13.965   9.988  21.247  0.00  0.00    +0.103 C 
BRANCH  23   6
ATOM      3  O   UNL     1      11.678   6.657  20.112  0.00  0.00    -0.377 OA
ATOM      6  N   UNL     1      13.556   8.610  20.987  0.00  0.00    -0.297 NA
ATOM     25  C   UNL     1      13.259   8.413  19.561  0.00  0.00    +0.112 C 
ATOM     26  C   UNL     1      12.383   8.253  21.798  0.00  0.00    +0.112 C 
ATOM     27  C   UNL     1      12.822   6.971  19.317  0.00  0.00    +0.175 C 
ATOM     28  C   UNL     1      11.967   6.815  21.502  0.00  0.00    +0.175 C 
ENDBRANCH  23   6
ENDBRANCH  22  23
ENDBRANCH   5  22
ENDBRANCH  16  20
ENDBRANCH  11  16
TORSDOF 10
ENDMDL
MODEL 8
REMARK VINA RESULT:      -6.4     26.471     28.911
REMARK  Name = 38027105
REMARK  13 active torsions:
REMARK  status: ('A' for Active; 'I' for Inactive)
REMARK    1  A    between atoms: N_4  and  C_15
REMARK    2  A    between atoms: N_5  and  C_22
REMARK    3  A    between atoms: N_6  and  C_23
REMARK    4  A    between atoms: C_8  and  C_12
REMARK    5  A    between atoms: C_9  and  C_15
REMARK    6  A    between atoms: C_11  and  C_16
REMARK    7  A    between atoms: C_12  and  C_17
REMARK    8  A    between atoms: C_12  and  C_18
REMARK    9  A    between atoms: C_13  and  C_19
REMARK   10  A    between atoms: C_16  and  C_20
REMARK   11  A    between atoms: C_21  and  C_24
REMARK   12  A    between atoms: C_22  and  C_23
REMARK   13  A    between atoms: C_33  and  C_34
REMARK                            x       y       z     vdW  Elec       q    Type
REMARK                         _______ _______ _______ _____ _____    ______ ____
ROOT
ATOM      8  C   UNL     1      13.454   9.945  20.327  0.00  0.00    +0.000 C 
ATOM      9  C   UNL     1      12.211   9.048  20.552  0.00  0.00    +0.032 C 
ATOM     10  C   UNL     1      13.199  10.934  19.179  0.00  0.00    +0.012 C 
ATOM     11  C   UNL     1      12.868  10.217  17.856  0.00  0.00    +0.023 C 
ATOM     13  C   UNL     1      11.836   9.125  18.050  0.00  0.00    -0.073 C 
ATOM     14  C   UNL     1      11.545   8.625  19.264  0.00  0.00    -0.022 C 
ATOM     19  C   UNL     1      11.110   8.654  16.821  0.00  0.00    +0.039 C 
ENDROOT
BRANCH   8  12
ATOM     12  C   UNL     1      13.838  10.712  21.596  0.00  0.00    -0.013 C 
ATOM     17  C   UNL     1      15.056  11.594  21.335  0.00  0.00    +0.007 C 
ATOM     18  C   UNL     1      12.663  11.547  22.090  0.00  0.00    +0.007 C 
ENDBRANCH   8  12
BRANCH   9  15
ATOM     15  C   UNL     1      12.569   7.804  21.374  0.00  0.00    +0.112 C 
BRANCH  15   4
ATOM      2  O   UNL     1      13.929   6.498  19.209  0.00  0.00    -0.270 OA
ATOM      4  N   UNL     1      13.967   7.525  21.290  0.00  0.00    -0.311 N 
ATOM     21  C   UNL     1      14.549   6.884  20.196  0.00  0.00    +0.244 C 
ATOM     35  H   UNL     1      14.559   7.897  22.027  0.00  0.00    +0.149 HD
BRANCH  21  24
ATOM     24  C   UNL     1      16.014   6.645  20.273  0.00  0.00    +0.037 A 
ATOM     29  C   UNL     1      16.671   6.006  19.222  0.00  0.00    +0.014 A 
ATOM     30  C   UNL     1      16.731   7.061  21.395  0.00  0.00    +0.014 A 
ATOM     31  C   UNL     1      18.046   5.781  19.294  0.00  0.00    +0.019 A 
ATOM     32  C   UNL     1      18.106   6.836  21.467  0.00  0.00    +0.019 A 
ATOM     33  C   UNL     1      18.763   6.197  20.416  0.00  0.00    +0.052 A 
BRANCH  33  34
ATOM      7  N   UNL     1      21.316   5.780  20.550  0.00  0.00    -0.191 NA
ATOM     34  C   UNL     1      20.171   5.967  20.490  0.00  0.00    +0.099 C 
ENDBRANCH  33  34
ENDBRANCH  21  24
ENDBRANCH  15   4
ENDBRANCH   9  15
BRANCH  11  16
ATOM     16  C   UNL     1      14.136   9.662  17.196  0.00  0.00    +0.103 C 
BRANCH  16  20
ATOM      1  O   UNL     1      14.683   9.403  14.853  0.00  0.00    -0.276 OA
ATOM      5  N   UNL     1      13.896  11.448  15.626  0.00  0.00    -0.314 N 
ATOM     20  C   UNL     1      14.279  10.123  15.763  0.00  0.00    +0.214 C 
ATOM     36  H   UNL     1      13.566  11.957  16.441  0.00  0.00    +0.149 HD
BRANCH   5  22
ATOM     22  C   UNL     1      13.931  12.154  14.365  0.00  0.00    +0.119 C 
BRANCH  22  23
ATOM     23  C   UNL     1      12.614  12.009  13.617  0.00  0.00    +0.103 C 
BRANCH  23   6
ATOM      3  O   UNL     1      13.078  12.722   9.507  0.00  0.00    -0.377 OA
ATOM      6  N   UNL     1      12.685  12.690  12.327  0.00  0.00    -0.297 NA
ATOM     25  C   UNL     1      11.669  12.168  11.402  0.00  0.00    +0.112 C 
ATOM     26  C   UNL     1      14.023  12.547  11.735  0.00  0.00    +0.112 C 
ATOM     27  C   UNL     1      11.771  12.885  10.060  0.00  0.00    +0.175 C 
ATOM     28  C   UNL     1      14.071  13.257  10.384  0.00  0.00    +0.175 C 
ENDBRANCH  23   6
ENDBRANCH  22  23
ENDBRANCH   5  22
ENDBRANCH  16  20
ENDBRANCH  11  16
TORSDOF 10
ENDMDL
MODEL 9
REMARK VINA RESULT:      -6.3      3.230      5.564
REMARK  Name = 38027105
REMARK  13 active torsions:
REMARK  status: ('A' for Active; 'I' for Inactive)
REMARK    1  A    between atoms: N_4  and  C_15
REMARK    2  A    between atoms: N_5  and  C_22
REMARK    3  A    between atoms: N_6  and  C_23
REMARK    4  A    between atoms: C_8  and  C_12
REMARK    5  A    between atoms: C_9  and  C_15
REMARK    6  A    between atoms: C_11  and  C_16
REMARK    7  A    between atoms: C_12  and  C_17
REMARK    8  A    between atoms: C_12  and  C_18
REMARK    9  A    between atoms: C_13  and  C_19
REMARK   10  A    between atoms: C_16  and  C_20
REMARK   11  A    between atoms: C_21  and  C_24
REMARK   12  A    between atoms: C_22  and  C_23
REMARK   13  A    between atoms: C_33  and  C_34
REMARK                            x       y       z     vdW  Elec       q    Type
REMARK                         _______ _______ _______ _____ _____    ______ ____
ROOT
ATOM      8  C   UNL     1      -5.849 -12.508  16.776  0.00  0.00    +0.000 C 
ATOM      9  C   UNL     1      -4.935 -12.187  17.985  0.00  0.00    +0.032 C 
ATOM     10  C   UNL     1      -5.003 -12.875  15.547  0.00  0.00    +0.012 C 
ATOM     11  C   UNL     1      -4.040 -11.743  15.145  0.00  0.00    +0.023 C 
ATOM     13  C   UNL     1      -3.292 -11.187  16.340  0.00  0.00    -0.073 C 
ATOM     14  C   UNL     1      -3.699 -11.408  17.602  0.00  0.00    -0.022 C 
ATOM     19  C   UNL     1      -2.037 -10.411  16.052  0.00  0.00    +0.039 C 
ENDROOT
BRANCH   8  12
ATOM     12  C   UNL     1      -6.829 -13.643  17.089  0.00  0.00    -0.013 C 
ATOM     17  C   UNL     1      -8.185 -13.367  16.448  0.00  0.00    +0.007 C 
ATOM     18  C   UNL     1      -6.267 -14.978  16.611  0.00  0.00    +0.007 C 
ENDBRANCH   8  12
BRANCH   9  15
ATOM     15  C   UNL     1      -5.703 -11.425  19.072  0.00  0.00    +0.112 C 
BRANCH  15   4
ATOM      2  O   UNL     1      -8.458 -11.381  19.878  0.00  0.00    -0.270 OA
ATOM      4  N   UNL     1      -6.747 -10.638  18.497  0.00  0.00    -0.311 N 
ATOM     21  C   UNL     1      -8.065 -10.677  18.952  0.00  0.00    +0.244 C 
ATOM     35  H   UNL     1      -6.481  -9.962  17.788  0.00  0.00    +0.149 HD
BRANCH  21  24
ATOM     24  C   UNL     1      -9.038  -9.816  18.230  0.00  0.00    +0.037 A 
ATOM     29  C   UNL     1      -8.596  -8.956  17.225  0.00  0.00    +0.014 A 
ATOM     30  C   UNL     1     -10.393  -9.869  18.558  0.00  0.00    +0.014 A 
ATOM     31  C   UNL     1      -9.510  -8.148  16.548  0.00  0.00    +0.019 A 
ATOM     32  C   UNL     1     -11.307  -9.060  17.881  0.00  0.00    +0.019 A 
ATOM     33  C   UNL     1     -10.864  -8.201  16.875  0.00  0.00    +0.052 A 
BRANCH  33  34
ATOM      7  N   UNL     1     -12.560  -6.700  15.618  0.00  0.00    -0.191 NA
ATOM     34  C   UNL     1     -11.800  -7.373  16.182  0.00  0.00    +0.099 C 
ENDBRANCH  33  34
ENDBRANCH  21  24
ENDBRANCH  15   4
ENDBRANCH   9  15
BRANCH  11  16
ATOM     16  C   UNL     1      -4.779 -10.629  14.394  0.00  0.00    +0.103 C 
BRANCH  16  20
ATOM      1  O   UNL     1      -5.668 -11.141  12.203  0.00  0.00    -0.276 OA
ATOM      5  N   UNL     1      -3.431 -10.553  12.422  0.00  0.00    -0.314 N 
ATOM     20  C   UNL     1      -4.709 -10.809  12.895  0.00  0.00    +0.214 C 
ATOM     36  H   UNL     1      -2.705 -10.275  13.077  0.00  0.00    +0.149 HD
BRANCH   5  22
ATOM     22  C   UNL     1      -3.071 -10.650  11.026  0.00  0.00    +0.119 C 
BRANCH  22  23
ATOM     23  C   UNL     1      -2.930  -9.271  10.397  0.00  0.00    +0.103 C 
BRANCH  23   6
ATOM      3  O   UNL     1      -6.697  -9.370   8.552  0.00  0.00    -0.377 OA
ATOM      6  N   UNL     1      -4.020  -9.028   9.456  0.00  0.00    -0.297 NA
ATOM     25  C   UNL     1      -5.148  -8.363  10.123  0.00  0.00    +0.112 C 
ATOM     26  C   UNL     1      -4.470 -10.286   8.843  0.00  0.00    +0.112 C 
ATOM     27  C   UNL     1      -6.277  -8.131   9.124  0.00  0.00    +0.175 C 
ATOM     28  C   UNL     1      -5.615 -10.009   7.873  0.00  0.00    +0.175 C 
ENDBRANCH  23   6
ENDBRANCH  22  23
ENDBRANCH   5  22
ENDBRANCH  16  20
ENDBRANCH  11  16
TORSDOF 10
ENDMDL
MODEL 10
REMARK VINA RESULT:      -6.3     24.199     26.787
REMARK  Name = 38027105
REMARK  13 active torsions:
REMARK  status: ('A' for Active; 'I' for Inactive)
REMARK    1  A    between atoms: N_4  and  C_15
REMARK    2  A    between atoms: N_5  and  C_22
REMARK    3  A    between atoms: N_6  and  C_23
REMARK    4  A    between atoms: C_8  and  C_12
REMARK    5  A    between atoms: C_9  and  C_15
REMARK    6  A    between atoms: C_11  and  C_16
REMARK    7  A    between atoms: C_12  and  C_17
REMARK    8  A    between atoms: C_12  and  C_18
REMARK    9  A    between atoms: C_13  and  C_19
REMARK   10  A    between atoms: C_16  and  C_20
REMARK   11  A    between atoms: C_21  and  C_24
REMARK   12  A    between atoms: C_22  and  C_23
REMARK   13  A    between atoms: C_33  and  C_34
REMARK                            x       y       z     vdW  Elec       q    Type
REMARK                         _______ _______ _______ _____ _____    ______ ____
ROOT
ATOM      8  C   UNL     1       9.152   8.272   5.855  0.00  0.00    +0.000 C 
ATOM      9  C   UNL     1       8.893   8.309   7.381  0.00  0.00    +0.032 C 
ATOM     10  C   UNL     1       8.689   6.931   5.265  0.00  0.00    +0.012 C 
ATOM     11  C   UNL     1       9.408   5.732   5.912  0.00  0.00    +0.023 C 
ATOM     13  C   UNL     1       9.428   5.836   7.423  0.00  0.00    -0.073 C 
ATOM     14  C   UNL     1       9.181   6.993   8.063  0.00  0.00    -0.022 C 
ATOM     19  C   UNL     1       9.692   4.567   8.185  0.00  0.00    +0.039 C 
ENDROOT
BRANCH   8  12
ATOM     12  C   UNL     1       8.451   9.426   5.131  0.00  0.00    -0.013 C 
ATOM     17  C   UNL     1       9.479  10.351   4.486  0.00  0.00    +0.007 C 
ATOM     18  C   UNL     1       7.480   8.887   4.086  0.00  0.00    +0.007 C 
ENDBRANCH   8  12
BRANCH   9  15
ATOM     15  C   UNL     1       9.706   9.422   8.054  0.00  0.00    +0.112 C 
BRANCH  15   4
ATOM      2  O   UNL     1      11.419  11.567   7.215  0.00  0.00    -0.270 OA
ATOM      4  N   UNL     1      11.087   9.323   7.703  0.00  0.00    -0.311 N 
ATOM     21  C   UNL     1      11.849  10.421   7.304  0.00  0.00    +0.244 C 
ATOM     35  H   UNL     1      11.536   8.423   7.841  0.00  0.00    +0.149 HD
BRANCH  21  24
ATOM     24  C   UNL     1      13.266  10.146   6.947  0.00  0.00    +0.037 A 
ATOM     29  C   UNL     1      13.665   8.848   6.628  0.00  0.00    +0.014 A 
ATOM     30  C   UNL     1      14.195  11.187   6.930  0.00  0.00    +0.014 A 
ATOM     31  C   UNL     1      14.994   8.591   6.293  0.00  0.00    +0.019 A 
ATOM     32  C   UNL     1      15.524  10.929   6.595  0.00  0.00    +0.019 A 
ATOM     33  C   UNL     1      15.923   9.631   6.276  0.00  0.00    +0.052 A 
BRANCH  33  34
ATOM      7  N   UNL     1      18.392   9.154   5.654  0.00  0.00    -0.191 NA
ATOM     34  C   UNL     1      17.285   9.367   5.933  0.00  0.00    +0.099 C 
ENDBRANCH  33  34
ENDBRANCH  21  24
ENDBRANCH  15   4
ENDBRANCH   9  15
BRANCH  11  16
ATOM     16  C   UNL     1      10.827   5.572   5.354  0.00  0.00    +0.103 C 
BRANCH  16  20
ATOM      1  O   UNL     1       9.923   4.357   3.467  0.00  0.00    -0.276 OA
ATOM      5  N   UNL     1      11.964   5.447   3.256  0.00  0.00    -0.314 N 
ATOM     20  C   UNL     1      10.825   5.047   3.936  0.00  0.00    +0.214 C 
ATOM     36  H   UNL     1      12.650   6.026   3.732  0.00  0.00    +0.149 HD
BRANCH   5  22
ATOM     22  C   UNL     1      12.230   5.089   1.881  0.00  0.00    +0.119 C 
BRANCH  22  23
ATOM     23  C   UNL     1      12.720   3.653   1.771  0.00  0.00    +0.103 C 
BRANCH  23   6
ATOM      3  O   UNL     1      15.579   4.649  -1.135  0.00  0.00    -0.377 OA
ATOM      6  N   UNL     1      13.724   3.537   0.716  0.00  0.00    -0.297 NA
ATOM     25  C   UNL     1      15.012   4.091   1.157  0.00  0.00    +0.112 C 
ATOM     26  C   UNL     1      13.275   4.220  -0.506  0.00  0.00    +0.112 C 
ATOM     27  C   UNL     1      16.039   3.970   0.034  0.00  0.00    +0.175 C 
ATOM     28  C   UNL     1      14.343   4.096  -1.590  0.00  0.00    +0.175 C 
ENDBRANCH  23   6
ENDBRANCH  22  23
ENDBRANCH   5  22
ENDBRANCH  16  20
ENDBRANCH  11  16
TORSDOF 10
ENDMDL
