REMARK  Name = 71693889
REMARK  8 active torsions:
REMARK  status: ('A' for Active; 'I' for Inactive)
REMARK    1  A    between atoms: O_4  and  C_11
REMARK    2  A    between atoms: O_5  and  C_13
REMARK    3  A    between atoms: O_7  and  C_21
REMARK    4  A    between atoms: O_7  and  C_27
REMARK    5  A    between atoms: N_8  and  C_10
REMARK    6  A    between atoms: C_9  and  C_14
REMARK    7  A    between atoms: C_17  and  C_20
REMARK    8  A    between atoms: C_26  and  C_28
REMARK                            x       y       z     vdW  Elec       q    Type
REMARK                         _______ _______ _______ _____ _____    ______ ____
ROOT
ATOM      9  C   UNL     1       2.253   1.219   1.030  0.00  0.00    +0.044 C 
ATOM     10  C   UNL     1       1.394   1.768  -0.132  0.00  0.00    +0.112 C 
ATOM     11  C   UNL     1       1.591   3.280  -0.036  0.00  0.00    +0.164 C 
ATOM     12  C   UNL     1       3.313   2.312   1.325  0.00  0.00    +0.044 C 
ATOM     13  C   UNL     1       3.072   3.415   0.296  0.00  0.00    +0.145 C 
ENDROOT
BRANCH   9  14
ATOM     14  C   UNL     1       2.832  -0.150   0.743  0.00  0.00    -0.042 A 
ATOM     15  C   UNL     1       2.521  -1.228   1.573  0.00  0.00    +0.007 A 
ATOM     16  C   UNL     1       3.677  -0.335  -0.351  0.00  0.00    +0.007 A 
ATOM     18  C   UNL     1       3.055  -2.489   1.308  0.00  0.00    +0.046 A 
ATOM     19  C   UNL     1       4.211  -1.596  -0.616  0.00  0.00    +0.046 A 
ATOM     21  C   UNL     1       3.900  -2.673   0.214  0.00  0.00    +0.120 A 
BRANCH  21   7
ATOM      7  O   UNL     1       4.419  -3.904  -0.045  0.00  0.00    -0.495 OA
ATOM     27  C   UNL     1       5.276  -4.021  -1.181  0.00  0.00    +0.277 C 
ENDBRANCH  21   7
ENDBRANCH   9  14
BRANCH  10   8
ATOM      6  O   UNL     1       0.116  -0.526  -1.295  0.00  0.00    -0.270 OA
ATOM      8  N   UNL     1       0.008   1.396  -0.001  0.00  0.00    -0.305 N 
ATOM     17  C   UNL     1      -0.522   0.263  -0.603  0.00  0.00    +0.244 C 
ATOM     29  H   UNL     1      -0.585   2.018   0.538  0.00  0.00    +0.149 HD
BRANCH  17  20
ATOM     20  C   UNL     1      -1.975   0.034  -0.394  0.00  0.00    +0.037 A 
ATOM     22  C   UNL     1      -2.713  -0.677  -1.340  0.00  0.00    +0.013 A 
ATOM     23  C   UNL     1      -2.602   0.532   0.749  0.00  0.00    +0.013 A 
ATOM     24  C   UNL     1      -4.077  -0.892  -1.144  0.00  0.00    +0.013 A 
ATOM     25  C   UNL     1      -3.966   0.318   0.945  0.00  0.00    +0.013 A 
ATOM     26  C   UNL     1      -4.704  -0.394  -0.001  0.00  0.00    +0.055 A 
BRANCH  26  28
ATOM      1  F   UNL     1      -6.889   0.529   0.302  0.00  0.00    -0.166 F 
ATOM      2  F   UNL     1      -6.449  -1.318   1.349  0.00  0.00    -0.166 F 
ATOM      3  F   UNL     1      -6.733  -1.334  -0.807  0.00  0.00    -0.166 F 
ATOM     28  C   UNL     1      -6.163  -0.623   0.208  0.00  0.00    +0.417 C 
ENDBRANCH  26  28
ENDBRANCH  17  20
ENDBRANCH  10   8
BRANCH  11   4
ATOM      4  O   UNL     1       1.278   3.939  -1.249  0.00  0.00    -0.387 OA
ATOM     30  H   UNL     1       1.516   4.875  -1.142  0.00  0.00    +0.210 HD
ENDBRANCH  11   4
BRANCH  13   5
ATOM      5  O   UNL     1       3.879   3.155  -0.849  0.00  0.00    -0.389 OA
ATOM     31  H   UNL     1       4.809   3.216  -0.571  0.00  0.00    +0.210 HD
ENDBRANCH  13   5
TORSDOF 7
