MODEL 1
REMARK VINA RESULT:      -7.5      0.000      0.000
REMARK  Name = 11943110
REMARK  5 active torsions:
REMARK  status: ('A' for Active; 'I' for Inactive)
REMARK    1  A    between atoms: N_5  and  C_10
REMARK    2  A    between atoms: C_18  and  C_24
REMARK    3  A    between atoms: C_21  and  C_23
REMARK    4  A    between atoms: C_25  and  C_29
REMARK    5  A    between atoms: C_27  and  C_32
REMARK                            x       y       z     vdW  Elec       q    Type
REMARK                         _______ _______ _______ _____ _____    ______ ____
ROOT
ATOM      1  O   UNL     1       8.529   7.306   8.151  0.00  0.00    -0.273 OA
ATOM      2  O   UNL     1       9.836   8.725   3.306  0.00  0.00    -0.270 OA
ATOM      4  N   UNL     1      10.007   8.742   5.621  0.00  0.00    -0.286 N 
ATOM      6  N   UNL     1       9.093   6.023   6.346  0.00  0.00    -0.283 N 
ATOM      9  C   UNL     1      10.411   8.039   6.832  0.00  0.00    +0.164 C 
ATOM     10  C   UNL     1       9.989  10.200   8.151  0.00  0.00    +0.077 C 
ATOM     11  C   UNL     1      10.850   8.949   7.985  0.00  0.00    +0.054 C 
ATOM     12  C   UNL     1       9.895  10.929   6.815  0.00  0.00    +0.041 C 
ATOM     13  C   UNL     1       9.300  10.018   5.754  0.00  0.00    +0.111 C 
ATOM     14  C   UNL     1       9.249   7.122   7.170  0.00  0.00    +0.238 C 
ATOM     15  C   UNL     1      10.069   8.139   4.364  0.00  0.00    +0.249 C 
ATOM     16  C   UNL     1      10.360   6.683   4.286  0.00  0.00    +0.059 A 
ATOM     17  C   UNL     1       9.797   5.729   5.155  0.00  0.00    +0.046 A 
ATOM     19  C   UNL     1      11.072   6.255   3.153  0.00  0.00    +0.023 A 
ATOM     20  C   UNL     1       9.906   4.368   4.829  0.00  0.00    +0.024 A 
ATOM     21  C   UNL     1      11.212   4.896   2.873  0.00  0.00    -0.017 A 
ATOM     22  C   UNL     1      10.618   3.953   3.703  0.00  0.00    +0.010 A 
ATOM     36  H   UNL     1       8.472   5.295   6.690  0.00  0.00    +0.155 HD
ENDROOT
BRANCH  21  23
ATOM     23  C   UNL     1      11.954   4.469   1.706  0.00  0.00    -0.015 A 
ATOM     25  C   UNL     1      11.369   4.462   0.438  0.00  0.00    -0.040 A 
ATOM     26  C   UNL     1      13.279   4.059   1.861  0.00  0.00    +0.009 A 
ATOM     27  C   UNL     1      12.106   4.044  -0.670  0.00  0.00    -0.047 A 
ATOM     29  C   UNL     1       9.947   4.899   0.255  0.00  0.00    +0.044 C 
ATOM     30  C   UNL     1      14.016   3.642   0.752  0.00  0.00    +0.001 A 
ATOM     31  C   UNL     1      13.430   3.634  -0.513  0.00  0.00    +0.003 A 
ATOM     32  C   UNL     1      11.503   4.026  -2.036  0.00  0.00    +0.044 C 
ENDBRANCH  21  23
BRANCH  10   5
ATOM      3  O   UNL     1       8.622  11.181  10.478  0.00  0.00    -0.268 OA
ATOM      5  N   UNL     1      10.534  11.065   9.171  0.00  0.00    -0.307 N 
ATOM     18  C   UNL     1       9.792  11.487  10.264  0.00  0.00    +0.264 C 
ATOM     35  H   UNL     1      11.481  11.415   9.052  0.00  0.00    +0.149 HD
BRANCH  18  24
ATOM      7  N   UNL     1      11.612  11.912  11.741  0.00  0.00    -0.247 NA
ATOM      8  N   UNL     1      10.598  14.457  12.339  0.00  0.00    -0.259 NA
ATOM     24  C   UNL     1      10.489  12.396  11.211  0.00  0.00    +0.143 A 
ATOM     28  C   UNL     1       9.975  13.625  11.482  0.00  0.00    +0.143 A 
ATOM     33  C   UNL     1      12.236  12.744  12.597  0.00  0.00    +0.131 A 
ATOM     34  C   UNL     1      11.738  13.994  12.891  0.00  0.00    +0.130 A 
ENDBRANCH  18  24
ENDBRANCH  10   5
TORSDOF 3
ENDMDL
MODEL 2
REMARK VINA RESULT:      -7.4     31.488     35.101
REMARK  Name = 11943110
REMARK  5 active torsions:
REMARK  status: ('A' for Active; 'I' for Inactive)
REMARK    1  A    between atoms: N_5  and  C_10
REMARK    2  A    between atoms: C_18  and  C_24
REMARK    3  A    between atoms: C_21  and  C_23
REMARK    4  A    between atoms: C_25  and  C_29
REMARK    5  A    between atoms: C_27  and  C_32
REMARK                            x       y       z     vdW  Elec       q    Type
REMARK                         _______ _______ _______ _____ _____    ______ ____
ROOT
ATOM      1  O   UNL     1     -10.941  10.416  35.530  0.00  0.00    -0.273 OA
ATOM      2  O   UNL     1     -13.631   9.446  31.168  0.00  0.00    -0.270 OA
ATOM      4  N   UNL     1     -11.712   9.856  32.409  0.00  0.00    -0.286 N 
ATOM      6  N   UNL     1     -12.415   8.734  35.055  0.00  0.00    -0.283 N 
ATOM      9  C   UNL     1     -10.738   9.358  33.371  0.00  0.00    +0.164 C 
ATOM     10  C   UNL     1      -9.320  11.450  32.921  0.00  0.00    +0.077 C 
ATOM     11  C   UNL     1      -9.332   9.953  33.226  0.00  0.00    +0.054 C 
ATOM     12  C   UNL     1     -10.215  11.729  31.718  0.00  0.00    +0.041 C 
ATOM     13  C   UNL     1     -11.635  11.259  31.994  0.00  0.00    +0.111 C 
ATOM     14  C   UNL     1     -11.370   9.581  34.734  0.00  0.00    +0.238 C 
ATOM     15  C   UNL     1     -12.838   9.113  32.049  0.00  0.00    +0.249 C 
ATOM     16  C   UNL     1     -13.152   7.880  32.817  0.00  0.00    +0.059 A 
ATOM     17  C   UNL     1     -13.048   7.787  34.218  0.00  0.00    +0.046 A 
ATOM     19  C   UNL     1     -13.772   6.845  32.097  0.00  0.00    +0.023 A 
ATOM     20  C   UNL     1     -13.630   6.687  34.869  0.00  0.00    +0.024 A 
ATOM     21  C   UNL     1     -14.300   5.736  32.758  0.00  0.00    -0.017 A 
ATOM     22  C   UNL     1     -14.242   5.664  34.144  0.00  0.00    +0.010 A 
ATOM     36  H   UNL     1     -12.691   8.723  36.033  0.00  0.00    +0.155 HD
ENDROOT
BRANCH  21  23
ATOM     23  C   UNL     1     -14.932   4.675  32.003  0.00  0.00    -0.015 A 
ATOM     25  C   UNL     1     -14.190   3.609  31.491  0.00  0.00    -0.040 A 
ATOM     26  C   UNL     1     -16.310   4.728  31.787  0.00  0.00    +0.009 A 
ATOM     27  C   UNL     1     -14.824   2.599  30.766  0.00  0.00    -0.047 A 
ATOM     29  C   UNL     1     -12.710   3.537  31.714  0.00  0.00    +0.044 C 
ATOM     30  C   UNL     1     -16.944   3.719  31.062  0.00  0.00    +0.001 A 
ATOM     31  C   UNL     1     -16.202   2.655  30.552  0.00  0.00    +0.003 A 
ATOM     32  C   UNL     1     -14.053   1.449  30.208  0.00  0.00    +0.044 C 
ENDBRANCH  21  23
BRANCH  10   5
ATOM      3  O   UNL     1      -7.346  12.108  34.901  0.00  0.00    -0.268 OA
ATOM      5  N   UNL     1      -7.975  11.913  32.677  0.00  0.00    -0.307 N 
ATOM     18  C   UNL     1      -7.089  12.206  33.704  0.00  0.00    +0.264 C 
ATOM     35  H   UNL     1      -7.687  12.076  31.716  0.00  0.00    +0.149 HD
BRANCH  18  24
ATOM      7  N   UNL     1      -5.702  13.264  32.082  0.00  0.00    -0.247 NA
ATOM      8  N   UNL     1      -3.461  12.989  33.745  0.00  0.00    -0.259 NA
ATOM     24  C   UNL     1      -5.749  12.696  33.287  0.00  0.00    +0.143 A 
ATOM     28  C   UNL     1      -4.680  12.549  34.113  0.00  0.00    +0.143 A 
ATOM     33  C   UNL     1      -4.482  13.704  31.714  0.00  0.00    +0.131 A 
ATOM     34  C   UNL     1      -3.382  13.568  32.531  0.00  0.00    +0.130 A 
ENDBRANCH  18  24
ENDBRANCH  10   5
TORSDOF 3
ENDMDL
MODEL 3
REMARK VINA RESULT:      -7.4      2.036      3.263
REMARK  Name = 11943110
REMARK  5 active torsions:
REMARK  status: ('A' for Active; 'I' for Inactive)
REMARK    1  A    between atoms: N_5  and  C_10
REMARK    2  A    between atoms: C_18  and  C_24
REMARK    3  A    between atoms: C_21  and  C_23
REMARK    4  A    between atoms: C_25  and  C_29
REMARK    5  A    between atoms: C_27  and  C_32
REMARK                            x       y       z     vdW  Elec       q    Type
REMARK                         _______ _______ _______ _____ _____    ______ ____
ROOT
ATOM      1  O   UNL     1      13.129   8.266   6.686  0.00  0.00    -0.273 OA
ATOM      2  O   UNL     1       9.893   4.713   4.660  0.00  0.00    -0.270 OA
ATOM      4  N   UNL     1      10.440   6.752   5.626  0.00  0.00    -0.286 N 
ATOM      6  N   UNL     1      13.207   7.185   4.673  0.00  0.00    -0.283 N 
ATOM      9  C   UNL     1      11.055   8.063   5.469  0.00  0.00    +0.164 C 
ATOM     10  C   UNL     1      10.106   8.712   7.764  0.00  0.00    +0.077 C 
ATOM     11  C   UNL     1      10.448   9.165   6.346  0.00  0.00    +0.054 C 
ATOM     12  C   UNL     1       9.245   7.455   7.699  0.00  0.00    +0.041 C 
ATOM     13  C   UNL     1       9.975   6.349   6.956  0.00  0.00    +0.111 C 
ATOM     14  C   UNL     1      12.540   7.839   5.693  0.00  0.00    +0.238 C 
ATOM     15  C   UNL     1      10.484   5.792   4.614  0.00  0.00    +0.249 C 
ATOM     16  C   UNL     1      11.353   6.042   3.433  0.00  0.00    +0.059 A 
ATOM     17  C   UNL     1      12.649   6.584   3.521  0.00  0.00    +0.046 A 
ATOM     19  C   UNL     1      10.905   5.511   2.212  0.00  0.00    +0.023 A 
ATOM     20  C   UNL     1      13.488   6.519   2.397  0.00  0.00    +0.024 A 
ATOM     21  C   UNL     1      11.736   5.500   1.093  0.00  0.00    -0.017 A 
ATOM     22  C   UNL     1      13.032   5.992   1.189  0.00  0.00    +0.010 A 
ATOM     36  H   UNL     1      14.223   7.229   4.708  0.00  0.00    +0.155 HD
ENDROOT
BRANCH  21  23
ATOM     23  C   UNL     1      11.259   4.955  -0.160  0.00  0.00    -0.015 A 
ATOM     25  C   UNL     1      11.831   3.810  -0.717  0.00  0.00    -0.040 A 
ATOM     26  C   UNL     1      10.204   5.593  -0.816  0.00  0.00    +0.009 A 
ATOM     27  C   UNL     1      11.353   3.306  -1.927  0.00  0.00    -0.047 A 
ATOM     29  C   UNL     1      12.963   3.114  -0.025  0.00  0.00    +0.044 C 
ATOM     30  C   UNL     1       9.726   5.089  -2.025  0.00  0.00    +0.001 A 
ATOM     31  C   UNL     1      10.299   3.946  -2.581  0.00  0.00    +0.003 A 
ATOM     32  C   UNL     1      11.949   2.084  -2.544  0.00  0.00    +0.044 C 
ENDBRANCH  21  23
BRANCH  10   5
ATOM      3  O   UNL     1      11.334  10.864   9.216  0.00  0.00    -0.268 OA
ATOM      5  N   UNL     1       9.428   9.761   8.488  0.00  0.00    -0.307 N 
ATOM     18  C   UNL     1      10.111  10.763   9.163  0.00  0.00    +0.264 C 
ATOM     35  H   UNL     1       8.414   9.731   8.545  0.00  0.00    +0.149 HD
BRANCH  18  24
ATOM      7  N   UNL     1       8.503  12.519   9.102  0.00  0.00    -0.247 NA
ATOM      8  N   UNL     1       8.554  12.729  11.898  0.00  0.00    -0.259 NA
ATOM     24  C   UNL     1       9.269  11.754   9.880  0.00  0.00    +0.143 A 
ATOM     28  C   UNL     1       9.313  11.834  11.237  0.00  0.00    +0.143 A 
ATOM     33  C   UNL     1       7.743  13.414   9.764  0.00  0.00    +0.131 A 
ATOM     34  C   UNL     1       7.769  13.517  11.138  0.00  0.00    +0.130 A 
ENDBRANCH  18  24
ENDBRANCH  10   5
TORSDOF 3
ENDMDL
MODEL 4
REMARK VINA RESULT:      -7.4     16.404     19.889
REMARK  Name = 11943110
REMARK  5 active torsions:
REMARK  status: ('A' for Active; 'I' for Inactive)
REMARK    1  A    between atoms: N_5  and  C_10
REMARK    2  A    between atoms: C_18  and  C_24
REMARK    3  A    between atoms: C_21  and  C_23
REMARK    4  A    between atoms: C_25  and  C_29
REMARK    5  A    between atoms: C_27  and  C_32
REMARK                            x       y       z     vdW  Elec       q    Type
REMARK                         _______ _______ _______ _____ _____    ______ ____
ROOT
ATOM      1  O   UNL     1      17.929   5.856  19.120  0.00  0.00    -0.273 OA
ATOM      2  O   UNL     1      21.531   7.916  22.279  0.00  0.00    -0.270 OA
ATOM      4  N   UNL     1      19.383   7.280  21.671  0.00  0.00    -0.286 N 
ATOM      6  N   UNL     1      19.884   4.963  19.900  0.00  0.00    -0.283 N 
ATOM      9  C   UNL     1      18.435   6.196  21.455  0.00  0.00    +0.164 C 
ATOM     10  C   UNL     1      16.583   7.953  21.192  0.00  0.00    +0.077 C 
ATOM     11  C   UNL     1      16.968   6.567  21.705  0.00  0.00    +0.054 C 
ATOM     12  C   UNL     1      17.564   8.986  21.737  0.00  0.00    +0.041 C 
ATOM     13  C   UNL     1      18.983   8.644  21.313  0.00  0.00    +0.111 C 
ATOM     14  C   UNL     1      18.717   5.689  20.052  0.00  0.00    +0.238 C 
ATOM     15  C   UNL     1      20.720   7.037  21.988  0.00  0.00    +0.249 C 
ATOM     16  C   UNL     1      21.230   5.643  21.903  0.00  0.00    +0.059 A 
ATOM     17  C   UNL     1      20.904   4.757  20.858  0.00  0.00    +0.046 A 
ATOM     19  C   UNL     1      22.242   5.297  22.814  0.00  0.00    +0.023 A 
ATOM     20  C   UNL     1      21.648   3.575  20.714  0.00  0.00    +0.024 A 
ATOM     21  C   UNL     1      22.936   4.095  22.685  0.00  0.00    -0.017 A 
ATOM     22  C   UNL     1      22.649   3.241  21.626  0.00  0.00    +0.010 A 
ATOM     36  H   UNL     1      19.969   4.437  19.035  0.00  0.00    +0.155 HD
ENDROOT
BRANCH  21  23
ATOM     23  C   UNL     1      23.972   3.750  23.634  0.00  0.00    -0.015 A 
ATOM     25  C   UNL     1      23.770   2.763  24.601  0.00  0.00    -0.040 A 
ATOM     26  C   UNL     1      25.194   4.423  23.574  0.00  0.00    +0.009 A 
ATOM     27  C   UNL     1      24.785   2.451  25.505  0.00  0.00    -0.047 A 
ATOM     29  C   UNL     1      22.464   2.032  24.678  0.00  0.00    +0.044 C 
ATOM     30  C   UNL     1      26.209   4.110  24.479  0.00  0.00    +0.001 A 
ATOM     31  C   UNL     1      26.006   3.125  25.444  0.00  0.00    +0.003 A 
ATOM     32  C   UNL     1      24.593   1.400  26.548  0.00  0.00    +0.044 C 
ENDBRANCH  21  23
BRANCH  10   5
ATOM      3  O   UNL     1      14.181   6.703  20.233  0.00  0.00    -0.268 OA
ATOM      5  N   UNL     1      15.229   8.282  21.570  0.00  0.00    -0.307 N 
ATOM     18  C   UNL     1      14.127   7.618  21.051  0.00  0.00    +0.264 C 
ATOM     35  H   UNL     1      15.081   9.064  22.203  0.00  0.00    +0.149 HD
BRANCH  18  24
ATOM      7  N   UNL     1      12.761   9.365  21.922  0.00  0.00    -0.247 NA
ATOM      8  N   UNL     1      10.527   7.669  21.953  0.00  0.00    -0.259 NA
ATOM     24  C   UNL     1      12.801   8.093  21.523  0.00  0.00    +0.143 A 
ATOM     28  C   UNL     1      11.735   7.250  21.526  0.00  0.00    +0.143 A 
ATOM     33  C   UNL     1      11.553   9.784  22.347  0.00  0.00    +0.131 A 
ATOM     34  C   UNL     1      10.456   8.951  22.363  0.00  0.00    +0.130 A 
ENDBRANCH  18  24
ENDBRANCH  10   5
TORSDOF 3
ENDMDL
MODEL 5
REMARK VINA RESULT:      -7.1     14.454     16.098
REMARK  Name = 11943110
REMARK  5 active torsions:
REMARK  status: ('A' for Active; 'I' for Inactive)
REMARK    1  A    between atoms: N_5  and  C_10
REMARK    2  A    between atoms: C_18  and  C_24
REMARK    3  A    between atoms: C_21  and  C_23
REMARK    4  A    between atoms: C_25  and  C_29
REMARK    5  A    between atoms: C_27  and  C_32
REMARK                            x       y       z     vdW  Elec       q    Type
REMARK                         _______ _______ _______ _____ _____    ______ ____
ROOT
ATOM      1  O   UNL     1      -2.753  11.854   4.062  0.00  0.00    -0.273 OA
ATOM      2  O   UNL     1      -3.724   6.846   5.144  0.00  0.00    -0.270 OA
ATOM      4  N   UNL     1      -3.224   9.052   5.666  0.00  0.00    -0.286 N 
ATOM      6  N   UNL     1      -4.521  10.536   3.460  0.00  0.00    -0.283 N 
ATOM      9  C   UNL     1      -3.689  10.429   5.769  0.00  0.00    +0.164 C 
ATOM     10  C   UNL     1      -1.474  11.023   6.921  0.00  0.00    +0.077 C 
ATOM     11  C   UNL     1      -2.980  11.266   6.839  0.00  0.00    +0.054 C 
ATOM     12  C   UNL     1      -1.210   9.527   7.059  0.00  0.00    +0.041 C 
ATOM     13  C   UNL     1      -1.801   8.774   5.878  0.00  0.00    +0.111 C 
ATOM     14  C   UNL     1      -3.581  10.995   4.364  0.00  0.00    +0.238 C 
ATOM     15  C   UNL     1      -4.035   8.037   5.155  0.00  0.00    +0.249 C 
ATOM     16  C   UNL     1      -5.325   8.410   4.516  0.00  0.00    +0.059 A 
ATOM     17  C   UNL     1      -5.475   9.510   3.650  0.00  0.00    +0.046 A 
ATOM     19  C   UNL     1      -6.370   7.480   4.643  0.00  0.00    +0.023 A 
ATOM     20  C   UNL     1      -6.646   9.613   2.882  0.00  0.00    +0.024 A 
ATOM     21  C   UNL     1      -7.546   7.627   3.910  0.00  0.00    -0.017 A 
ATOM     22  C   UNL     1      -7.679   8.685   3.018  0.00  0.00    +0.010 A 
ATOM     36  H   UNL     1      -4.600  11.066   2.595  0.00  0.00    +0.155 HD
ENDROOT
BRANCH  21  23
ATOM     23  C   UNL     1      -8.617   6.664   4.056  0.00  0.00    -0.015 A 
ATOM     25  C   UNL     1      -9.806   6.995   4.708  0.00  0.00    -0.040 A 
ATOM     26  C   UNL     1      -8.447   5.381   3.530  0.00  0.00    +0.009 A 
ATOM     27  C   UNL     1     -10.821   6.047   4.835  0.00  0.00    -0.047 A 
ATOM     29  C   UNL     1     -10.003   8.367   5.276  0.00  0.00    +0.044 C 
ATOM     30  C   UNL     1      -9.463   4.433   3.658  0.00  0.00    +0.001 A 
ATOM     31  C   UNL     1     -10.650   4.766   4.310  0.00  0.00    +0.003 A 
ATOM     32  C   UNL     1     -12.102   6.377   5.529  0.00  0.00    +0.044 C 
ENDBRANCH  21  23
BRANCH  10   5
ATOM      3  O   UNL     1       1.171  12.136   7.049  0.00  0.00    -0.268 OA
ATOM      5  N   UNL     1      -0.896  11.749   8.027  0.00  0.00    -0.307 N 
ATOM     18  C   UNL     1       0.397  12.252   7.996  0.00  0.00    +0.264 C 
ATOM     35  H   UNL     1      -1.444  11.850   8.878  0.00  0.00    +0.149 HD
BRANCH  18  24
ATOM      7  N   UNL     1       2.173  13.035   9.376  0.00  0.00    -0.247 NA
ATOM      8  N   UNL     1       0.341  14.096  11.216  0.00  0.00    -0.259 NA
ATOM     24  C   UNL     1       0.851  12.954   9.224  0.00  0.00    +0.143 A 
ATOM     28  C   UNL     1      -0.059  13.458  10.098  0.00  0.00    +0.143 A 
ATOM     33  C   UNL     1       2.573  13.674  10.493  0.00  0.00    +0.131 A 
ATOM     34  C   UNL     1       1.673  14.194  11.397  0.00  0.00    +0.130 A 
ENDBRANCH  18  24
ENDBRANCH  10   5
TORSDOF 3
ENDMDL
MODEL 6
REMARK VINA RESULT:      -7.1     24.475     27.169
REMARK  Name = 11943110
REMARK  5 active torsions:
REMARK  status: ('A' for Active; 'I' for Inactive)
REMARK    1  A    between atoms: N_5  and  C_10
REMARK    2  A    between atoms: C_18  and  C_24
REMARK    3  A    between atoms: C_21  and  C_23
REMARK    4  A    between atoms: C_25  and  C_29
REMARK    5  A    between atoms: C_27  and  C_32
REMARK                            x       y       z     vdW  Elec       q    Type
REMARK                         _______ _______ _______ _____ _____    ______ ____
ROOT
ATOM      1  O   UNL     1      -6.628 -11.080   6.623  0.00  0.00    -0.273 OA
ATOM      2  O   UNL     1      -4.620 -14.149  10.330  0.00  0.00    -0.270 OA
ATOM      4  N   UNL     1      -4.645 -13.083   8.268  0.00  0.00    -0.286 N 
ATOM      6  N   UNL     1      -6.232 -10.650   8.832  0.00  0.00    -0.283 N 
ATOM      9  C   UNL     1      -4.522 -11.835   7.526  0.00  0.00    +0.164 C 
ATOM     10  C   UNL     1      -4.533 -13.202   5.353  0.00  0.00    +0.077 C 
ATOM     11  C   UNL     1      -3.981 -11.989   6.100  0.00  0.00    +0.054 C 
ATOM     12  C   UNL     1      -4.340 -14.452   6.206  0.00  0.00    +0.041 C 
ATOM     13  C   UNL     1      -5.042 -14.294   7.545  0.00  0.00    +0.111 C 
ATOM     14  C   UNL     1      -5.892 -11.184   7.604  0.00  0.00    +0.238 C 
ATOM     15  C   UNL     1      -4.622 -13.114   9.664  0.00  0.00    +0.249 C 
ATOM     16  C   UNL     1      -4.677 -11.827  10.406  0.00  0.00    +0.059 A 
ATOM     17  C   UNL     1      -5.520 -10.758  10.049  0.00  0.00    +0.046 A 
ATOM     19  C   UNL     1      -3.993 -11.792  11.633  0.00  0.00    +0.023 A 
ATOM     20  C   UNL     1      -5.707  -9.709  10.963  0.00  0.00    +0.024 A 
ATOM     21  C   UNL     1      -4.153 -10.716  12.506  0.00  0.00    -0.017 A 
ATOM     22  C   UNL     1      -5.021  -9.681  12.177  0.00  0.00    +0.010 A 
ATOM     36  H   UNL     1      -7.034 -10.024   8.837  0.00  0.00    +0.155 HD
ENDROOT
BRANCH  21  23
ATOM     23  C   UNL     1      -3.437 -10.690  13.763  0.00  0.00    -0.015 A 
ATOM     25  C   UNL     1      -4.069 -11.018  14.964  0.00  0.00    -0.040 A 
ATOM     26  C   UNL     1      -2.089 -10.329  13.765  0.00  0.00    +0.009 A 
ATOM     27  C   UNL     1      -3.356 -10.984  16.162  0.00  0.00    -0.047 A 
ATOM     29  C   UNL     1      -5.516 -11.409  14.979  0.00  0.00    +0.044 C 
ATOM     30  C   UNL     1      -1.375 -10.295  14.963  0.00  0.00    +0.001 A 
ATOM     31  C   UNL     1      -2.008 -10.622  16.162  0.00  0.00    +0.003 A 
ATOM     32  C   UNL     1      -4.009 -11.330  17.460  0.00  0.00    +0.044 C 
ENDBRANCH  21  23
BRANCH  10   5
ATOM      3  O   UNL     1      -5.429 -12.123   2.847  0.00  0.00    -0.268 OA
ATOM      5  N   UNL     1      -3.888 -13.352   4.070  0.00  0.00    -0.307 N 
ATOM     18  C   UNL     1      -4.399 -12.790   2.909  0.00  0.00    +0.264 C 
ATOM     35  H   UNL     1      -3.057 -13.933   4.012  0.00  0.00    +0.149 HD
BRANCH  18  24
ATOM      7  N   UNL     1      -4.291 -12.830   0.529  0.00  0.00    -0.247 NA
ATOM      8  N   UNL     1      -1.643 -13.750   0.616  0.00  0.00    -0.259 NA
ATOM     24  C   UNL     1      -3.631 -13.058   1.665  0.00  0.00    +0.143 A 
ATOM     28  C   UNL     1      -2.349 -13.503   1.737  0.00  0.00    +0.143 A 
ATOM     33  C   UNL     1      -3.584 -13.075  -0.591  0.00  0.00    +0.131 A 
ATOM     34  C   UNL     1      -2.284 -13.528  -0.549  0.00  0.00    +0.130 A 
ENDBRANCH  18  24
ENDBRANCH  10   5
TORSDOF 3
ENDMDL
MODEL 7
REMARK VINA RESULT:      -7.0     27.219     30.867
REMARK  Name = 11943110
REMARK  5 active torsions:
REMARK  status: ('A' for Active; 'I' for Inactive)
REMARK    1  A    between atoms: N_5  and  C_10
REMARK    2  A    between atoms: C_18  and  C_24
REMARK    3  A    between atoms: C_21  and  C_23
REMARK    4  A    between atoms: C_25  and  C_29
REMARK    5  A    between atoms: C_27  and  C_32
REMARK                            x       y       z     vdW  Elec       q    Type
REMARK                         _______ _______ _______ _____ _____    ______ ____
ROOT
ATOM      1  O   UNL     1     -14.755  10.200  28.069  0.00  0.00    -0.273 OA
ATOM      2  O   UNL     1     -12.050  13.081  24.667  0.00  0.00    -0.270 OA
ATOM      4  N   UNL     1     -12.318  11.748  26.548  0.00  0.00    -0.286 N 
ATOM      6  N   UNL     1     -14.613  10.040  25.793  0.00  0.00    -0.283 N 
ATOM      9  C   UNL     1     -12.561  10.417  27.090  0.00  0.00    +0.164 C 
ATOM     10  C   UNL     1     -12.044  11.345  29.427  0.00  0.00    +0.077 C 
ATOM     11  C   UNL     1     -11.935  10.162  28.466  0.00  0.00    +0.054 C 
ATOM     12  C   UNL     1     -11.505  12.599  28.747  0.00  0.00    +0.041 C 
ATOM     13  C   UNL     1     -12.280  12.885  27.471  0.00  0.00    +0.111 C 
ATOM     14  C   UNL     1     -14.068  10.235  27.049  0.00  0.00    +0.238 C 
ATOM     15  C   UNL     1     -12.348  12.001  25.176  0.00  0.00    +0.249 C 
ATOM     16  C   UNL     1     -12.838  10.932  24.265  0.00  0.00    +0.059 A 
ATOM     17  C   UNL     1     -13.958  10.126  24.543  0.00  0.00    +0.046 A 
ATOM     19  C   UNL     1     -12.255  10.893  22.988  0.00  0.00    +0.023 A 
ATOM     20  C   UNL     1     -14.506   9.349  23.510  0.00  0.00    +0.024 A 
ATOM     21  C   UNL     1     -12.784  10.077  21.989  0.00  0.00    -0.017 A 
ATOM     22  C   UNL     1     -13.918   9.315  22.246  0.00  0.00    +0.010 A 
ATOM     36  H   UNL     1     -15.570   9.697  25.775  0.00  0.00    +0.155 HD
ENDROOT
BRANCH  21  23
ATOM     23  C   UNL     1     -12.170  10.042  20.679  0.00  0.00    -0.015 A 
ATOM     25  C   UNL     1     -11.788   8.836  20.089  0.00  0.00    -0.040 A 
ATOM     26  C   UNL     1     -11.958  11.245  20.001  0.00  0.00    +0.009 A 
ATOM     27  C   UNL     1     -11.197   8.832  18.825  0.00  0.00    -0.047 A 
ATOM     29  C   UNL     1     -12.008   7.538  20.803  0.00  0.00    +0.044 C 
ATOM     30  C   UNL     1     -11.367  11.240  18.737  0.00  0.00    +0.001 A 
ATOM     31  C   UNL     1     -10.986  10.035  18.149  0.00  0.00    +0.003 A 
ATOM     32  C   UNL     1     -10.779   7.555  18.173  0.00  0.00    +0.044 C 
ENDBRANCH  21  23
BRANCH  10   5
ATOM      3  O   UNL     1     -12.992   9.824  31.671  0.00  0.00    -0.268 OA
ATOM      5  N   UNL     1     -11.328  11.078  30.652  0.00  0.00    -0.307 N 
ATOM     18  C   UNL     1     -11.872  10.328  31.685  0.00  0.00    +0.264 C 
ATOM     35  H   UNL     1     -10.412  11.499  30.778  0.00  0.00    +0.149 HD
BRANCH  18  24
ATOM      7  N   UNL     1      -9.749  10.545  32.742  0.00  0.00    -0.247 NA
ATOM      8  N   UNL     1     -10.778   9.509  35.136  0.00  0.00    -0.259 NA
ATOM     24  C   UNL     1     -11.018  10.166  32.890  0.00  0.00    +0.143 A 
ATOM     28  C   UNL     1     -11.544   9.661  34.037  0.00  0.00    +0.143 A 
ATOM     33  C   UNL     1      -8.984  10.394  33.841  0.00  0.00    +0.131 A 
ATOM     34  C   UNL     1      -9.489   9.884  35.017  0.00  0.00    +0.130 A 
ENDBRANCH  18  24
ENDBRANCH  10   5
TORSDOF 3
ENDMDL
MODEL 8
REMARK VINA RESULT:      -7.0     24.300     27.213
REMARK  Name = 11943110
REMARK  5 active torsions:
REMARK  status: ('A' for Active; 'I' for Inactive)
REMARK    1  A    between atoms: N_5  and  C_10
REMARK    2  A    between atoms: C_18  and  C_24
REMARK    3  A    between atoms: C_21  and  C_23
REMARK    4  A    between atoms: C_25  and  C_29
REMARK    5  A    between atoms: C_27  and  C_32
REMARK                            x       y       z     vdW  Elec       q    Type
REMARK                         _______ _______ _______ _____ _____    ______ ____
ROOT
ATOM      1  O   UNL     1      -6.345  -9.576   5.507  0.00  0.00    -0.273 OA
ATOM      2  O   UNL     1      -6.753 -12.963   9.450  0.00  0.00    -0.270 OA
ATOM      4  N   UNL     1      -5.904 -12.166   7.443  0.00  0.00    -0.286 N 
ATOM      6  N   UNL     1      -6.170  -9.236   7.761  0.00  0.00    -0.283 N 
ATOM      9  C   UNL     1      -5.064 -11.189   6.762  0.00  0.00    +0.164 C 
ATOM     10  C   UNL     1      -5.372 -12.529   4.595  0.00  0.00    +0.077 C 
ATOM     11  C   UNL     1      -4.433 -11.686   5.456  0.00  0.00    +0.054 C 
ATOM     12  C   UNL     1      -5.961 -13.653   5.441  0.00  0.00    +0.041 C 
ATOM     13  C   UNL     1      -6.712 -13.082   6.633  0.00  0.00    +0.111 C 
ATOM     14  C   UNL     1      -5.932  -9.953   6.603  0.00  0.00    +0.238 C 
ATOM     15  C   UNL     1      -6.136 -12.106   8.818  0.00  0.00    +0.249 C 
ATOM     16  C   UNL     1      -5.681 -10.905   9.565  0.00  0.00    +0.059 A 
ATOM     17  C   UNL     1      -5.820  -9.589   9.084  0.00  0.00    +0.046 A 
ATOM     19  C   UNL     1      -5.286 -11.118  10.897  0.00  0.00    +0.023 A 
ATOM     20  C   UNL     1      -5.623  -8.519   9.971  0.00  0.00    +0.024 A 
ATOM     21  C   UNL     1      -5.046 -10.041  11.749  0.00  0.00    -0.017 A 
ATOM     22  C   UNL     1      -5.228  -8.741  11.291  0.00  0.00    +0.010 A 
ATOM     36  H   UNL     1      -6.553  -8.302   7.632  0.00  0.00    +0.155 HD
ENDROOT
BRANCH  21  23
ATOM     23  C   UNL     1      -4.634 -10.276  13.116  0.00  0.00    -0.015 A 
ATOM     25  C   UNL     1      -3.302 -10.541  13.437  0.00  0.00    -0.040 A 
ATOM     26  C   UNL     1      -5.596 -10.235  14.128  0.00  0.00    +0.009 A 
ATOM     27  C   UNL     1      -2.932 -10.764  14.763  0.00  0.00    -0.047 A 
ATOM     29  C   UNL     1      -2.258 -10.588  12.363  0.00  0.00    +0.044 C 
ATOM     30  C   UNL     1      -5.226 -10.459  15.454  0.00  0.00    +0.001 A 
ATOM     31  C   UNL     1      -3.895 -10.723  15.772  0.00  0.00    +0.003 A 
ATOM     32  C   UNL     1      -1.513 -11.050  15.131  0.00  0.00    +0.044 C 
ENDBRANCH  21  23
BRANCH  10   5
ATOM      3  O   UNL     1      -6.168 -12.299   1.845  0.00  0.00    -0.268 OA
ATOM      5  N   UNL     1      -4.675 -13.062   3.448  0.00  0.00    -0.307 N 
ATOM     18  C   UNL     1      -5.140 -12.898   2.151  0.00  0.00    +0.264 C 
ATOM     35  H   UNL     1      -3.841 -13.621   3.606  0.00  0.00    +0.149 HD
BRANCH  18  24
ATOM      7  N   UNL     1      -4.243 -12.840  -0.055  0.00  0.00    -0.247 NA
ATOM      8  N   UNL     1      -2.973 -15.308   0.342  0.00  0.00    -0.259 NA
ATOM     24  C   UNL     1      -4.322 -13.529   1.083  0.00  0.00    +0.143 A 
ATOM     28  C   UNL     1      -3.717 -14.726   1.303  0.00  0.00    +0.143 A 
ATOM     33  C   UNL     1      -3.498 -13.421  -1.016  0.00  0.00    +0.131 A 
ATOM     34  C   UNL     1      -2.875 -14.634  -0.821  0.00  0.00    +0.130 A 
ENDBRANCH  18  24
ENDBRANCH  10   5
TORSDOF 3
ENDMDL
MODEL 9
REMARK VINA RESULT:      -6.9     26.047     29.417
REMARK  Name = 11943110
REMARK  5 active torsions:
REMARK  status: ('A' for Active; 'I' for Inactive)
REMARK    1  A    between atoms: N_5  and  C_10
REMARK    2  A    between atoms: C_18  and  C_24
REMARK    3  A    between atoms: C_21  and  C_23
REMARK    4  A    between atoms: C_25  and  C_29
REMARK    5  A    between atoms: C_27  and  C_32
REMARK                            x       y       z     vdW  Elec       q    Type
REMARK                         _______ _______ _______ _____ _____    ______ ____
ROOT
ATOM      1  O   UNL     1     -14.024   8.562  17.511  0.00  0.00    -0.273 OA
ATOM      2  O   UNL     1     -12.024   5.935  21.547  0.00  0.00    -0.270 OA
ATOM      4  N   UNL     1     -12.417   7.821  20.253  0.00  0.00    -0.286 N 
ATOM      6  N   UNL     1     -15.057   7.230  19.054  0.00  0.00    -0.283 N 
ATOM      9  C   UNL     1     -13.364   8.839  19.815  0.00  0.00    +0.164 C 
ATOM     10  C   UNL     1     -11.415  10.077  18.694  0.00  0.00    +0.077 C 
ATOM     11  C   UNL     1     -12.732  10.190  19.458  0.00  0.00    +0.054 C 
ATOM     12  C   UNL     1     -10.467   9.155  19.453  0.00  0.00    +0.041 C 
ATOM     13  C   UNL     1     -11.092   7.780  19.629  0.00  0.00    +0.111 C 
ATOM     14  C   UNL     1     -14.145   8.199  18.681  0.00  0.00    +0.238 C 
ATOM     15  C   UNL     1     -12.805   6.759  21.070  0.00  0.00    +0.249 C 
ATOM     16  C   UNL     1     -14.254   6.552  21.330  0.00  0.00    +0.059 A 
ATOM     17  C   UNL     1     -15.248   6.672  20.339  0.00  0.00    +0.046 A 
ATOM     19  C   UNL     1     -14.587   6.014  22.584  0.00  0.00    +0.023 A 
ATOM     20  C   UNL     1     -16.537   6.186  20.610  0.00  0.00    +0.024 A 
ATOM     21  C   UNL     1     -15.886   5.583  22.852  0.00  0.00    -0.017 A 
ATOM     22  C   UNL     1     -16.858   5.656  21.860  0.00  0.00    +0.010 A 
ATOM     36  H   UNL     1     -15.734   6.961  18.344  0.00  0.00    +0.155 HD
ENDROOT
BRANCH  21  23
ATOM     23  C   UNL     1     -16.216   5.037  24.151  0.00  0.00    -0.015 A 
ATOM     25  C   UNL     1     -16.993   5.752  25.062  0.00  0.00    -0.040 A 
ATOM     26  C   UNL     1     -15.741   3.768  24.489  0.00  0.00    +0.009 A 
ATOM     27  C   UNL     1     -17.296   5.202  26.308  0.00  0.00    -0.047 A 
ATOM     29  C   UNL     1     -17.510   7.115  24.714  0.00  0.00    +0.044 C 
ATOM     30  C   UNL     1     -16.044   3.217  25.735  0.00  0.00    +0.001 A 
ATOM     31  C   UNL     1     -16.820   3.934  26.644  0.00  0.00    +0.003 A 
ATOM     32  C   UNL     1     -18.125   5.948  27.301  0.00  0.00    +0.044 C 
ENDBRANCH  21  23
BRANCH  10   5
ATOM      3  O   UNL     1      -9.853  10.936  16.441  0.00  0.00    -0.268 OA
ATOM      5  N   UNL     1     -10.820  11.379  18.502  0.00  0.00    -0.307 N 
ATOM     18  C   UNL     1     -10.078  11.702  17.374  0.00  0.00    +0.264 C 
ATOM     35  H   UNL     1     -10.908  12.064  19.247  0.00  0.00    +0.149 HD
BRANCH  18  24
ATOM      7  N   UNL     1      -8.268  13.165  16.870  0.00  0.00    -0.247 NA
ATOM      8  N   UNL     1      -9.749  15.380  17.745  0.00  0.00    -0.259 NA
ATOM     24  C   UNL     1      -9.512  13.075  17.340  0.00  0.00    +0.143 A 
ATOM     28  C   UNL     1     -10.253  14.130  17.771  0.00  0.00    +0.143 A 
ATOM     33  C   UNL     1      -7.765  14.415  16.844  0.00  0.00    +0.131 A 
ATOM     34  C   UNL     1      -8.493  15.503  17.274  0.00  0.00    +0.130 A 
ENDBRANCH  18  24
ENDBRANCH  10   5
TORSDOF 3
ENDMDL
MODEL 10
REMARK VINA RESULT:      -6.9     29.929     33.299
REMARK  Name = 11943110
REMARK  5 active torsions:
REMARK  status: ('A' for Active; 'I' for Inactive)
REMARK    1  A    between atoms: N_5  and  C_10
REMARK    2  A    between atoms: C_18  and  C_24
REMARK    3  A    between atoms: C_21  and  C_23
REMARK    4  A    between atoms: C_25  and  C_29
REMARK    5  A    between atoms: C_27  and  C_32
REMARK                            x       y       z     vdW  Elec       q    Type
REMARK                         _______ _______ _______ _____ _____    ______ ____
ROOT
ATOM      1  O   UNL     1     -17.679   7.279  23.659  0.00  0.00    -0.273 OA
ATOM      2  O   UNL     1     -16.097   2.370  24.431  0.00  0.00    -0.270 OA
ATOM      4  N   UNL     1     -15.850   4.578  23.759  0.00  0.00    -0.286 N 
ATOM      6  N   UNL     1     -17.722   6.002  25.555  0.00  0.00    -0.283 N 
ATOM      9  C   UNL     1     -15.708   5.976  24.147  0.00  0.00    +0.164 C 
ATOM     10  C   UNL     1     -15.211   6.540  21.693  0.00  0.00    +0.077 C 
ATOM     11  C   UNL     1     -14.910   6.837  23.161  0.00  0.00    +0.054 C 
ATOM     12  C   UNL     1     -15.062   5.044  21.438  0.00  0.00    +0.041 C 
ATOM     13  C   UNL     1     -16.002   4.257  22.337  0.00  0.00    +0.111 C 
ATOM     14  C   UNL     1     -17.123   6.468  24.399  0.00  0.00    +0.238 C 
ATOM     15  C   UNL     1     -16.072   3.571  24.699  0.00  0.00    +0.249 C 
ATOM     16  C   UNL     1     -16.373   3.962  26.102  0.00  0.00    +0.059 A 
ATOM     17  C   UNL     1     -17.231   5.023  26.449  0.00  0.00    +0.046 A 
ATOM     19  C   UNL     1     -15.923   3.079  27.099  0.00  0.00    +0.023 A 
ATOM     20  C   UNL     1     -17.670   5.133  27.778  0.00  0.00    +0.024 A 
ATOM     21  C   UNL     1     -16.331   3.235  28.423  0.00  0.00    -0.017 A 
ATOM     22  C   UNL     1     -17.216   4.253  28.761  0.00  0.00    +0.010 A 
ATOM     36  H   UNL     1     -18.565   6.492  25.845  0.00  0.00    +0.155 HD
ENDROOT
BRANCH  21  23
ATOM     23  C   UNL     1     -15.856   2.322  29.441  0.00  0.00    -0.015 A 
ATOM     25  C   UNL     1     -15.192   2.785  30.578  0.00  0.00    -0.040 A 
ATOM     26  C   UNL     1     -16.070   0.952  29.272  0.00  0.00    +0.009 A 
ATOM     27  C   UNL     1     -14.743   1.883  31.543  0.00  0.00    -0.047 A 
ATOM     29  C   UNL     1     -14.955   4.251  30.774  0.00  0.00    +0.044 C 
ATOM     30  C   UNL     1     -15.621   0.050  30.236  0.00  0.00    +0.001 A 
ATOM     31  C   UNL     1     -14.958   0.515  31.372  0.00  0.00    +0.003 A 
ATOM     32  C   UNL     1     -14.030   2.354  32.767  0.00  0.00    +0.044 C 
ENDBRANCH  21  23
BRANCH  10   5
ATOM      3  O   UNL     1     -12.376   6.196  21.390  0.00  0.00    -0.268 OA
ATOM      5  N   UNL     1     -14.338   7.297  20.828  0.00  0.00    -0.307 N 
ATOM     18  C   UNL     1     -12.974   7.056  20.749  0.00  0.00    +0.264 C 
ATOM     35  H   UNL     1     -14.734   8.068  20.297  0.00  0.00    +0.149 HD
BRANCH  18  24
ATOM      7  N   UNL     1     -11.759   7.352  18.721  0.00  0.00    -0.247 NA
ATOM      8  N   UNL     1     -11.322  10.057  19.320  0.00  0.00    -0.259 NA
ATOM     24  C   UNL     1     -12.210   7.939  19.830  0.00  0.00    +0.143 A 
ATOM     28  C   UNL     1     -12.014   9.247  20.145  0.00  0.00    +0.143 A 
ATOM     33  C   UNL     1     -11.068   8.163  17.896  0.00  0.00    +0.131 A 
ATOM     34  C   UNL     1     -10.853   9.491  18.190  0.00  0.00    +0.130 A 
ENDBRANCH  18  24
ENDBRANCH  10   5
TORSDOF 3
ENDMDL
