MODEL 1
REMARK VINA RESULT:      -6.0      0.000      0.000
REMARK  Name = 26743242
REMARK  9 active torsions:
REMARK  status: ('A' for Active; 'I' for Inactive)
REMARK    1  A    between atoms: N_5  and  C_24
REMARK    2  A    between atoms: N_5  and  C_25
REMARK    3  A    between atoms: C_6  and  C_10
REMARK    4  A    between atoms: C_7  and  C_13
REMARK    5  A    between atoms: C_10  and  C_20
REMARK    6  A    between atoms: C_11  and  C_16
REMARK    7  A    between atoms: C_13  and  C_22
REMARK    8  A    between atoms: C_16  and  C_21
REMARK    9  A    between atoms: C_24  and  C_26
REMARK                            x       y       z     vdW  Elec       q    Type
REMARK                         _______ _______ _______ _____ _____    ______ ____
ROOT
ATOM      3  N   UNL     1      16.677  11.949  12.328  0.00  0.00    -0.316 NA
ATOM      6  C   UNL     1      15.491  11.099  14.337  0.00  0.00    +0.012 C 
ATOM      7  C   UNL     1      16.571  11.702  15.266  0.00  0.00    +0.004 C 
ATOM      8  C   UNL     1      17.885  11.848  14.480  0.00  0.00    +0.019 C 
ATOM      9  C   UNL     1      15.386  11.872  13.011  0.00  0.00    +0.085 C 
ATOM     12  C   UNL     1      17.695  12.589  13.158  0.00  0.00    +0.081 C 
ATOM     32  H   UNL     1      16.570  12.474  11.460  0.00  0.00    +0.122 HD
ENDROOT
BRANCH   6  10
ATOM     10  C   UNL     1      14.120  10.989  15.004  0.00  0.00    +0.064 C 
BRANCH  10  20
ATOM      1  O   UNL     1      13.655   7.691  16.370  0.00  0.00    -0.359 OA
ATOM      4  N   UNL     1      13.628   8.603  15.322  0.00  0.00    -0.083 NA
ATOM     20  C   UNL     1      14.026   9.759  15.861  0.00  0.00    +0.084 A 
ATOM     21  C   UNL     1      14.065   8.320  17.501  0.00  0.00    +0.138 A 
ATOM     23  C   UNL     1      14.314   9.639  17.231  0.00  0.00    +0.071 A 
BRANCH  21  16
ATOM     16  C   UNL     1      14.152   7.496  18.713  0.00  0.00    +0.080 C 
BRANCH  16  11
ATOM     11  C   UNL     1      12.805   7.309  19.410  0.00  0.00    -0.004 C 
ATOM     14  C   UNL     1      12.986   6.596  20.757  0.00  0.00    +0.004 C 
ATOM     15  C   UNL     1      12.100   8.660  19.598  0.00  0.00    +0.004 C 
ATOM     17  C   UNL     1      11.660   6.445  21.498  0.00  0.00    +0.000 C 
ATOM     18  C   UNL     1      10.776   8.506  20.342  0.00  0.00    +0.000 C 
ATOM     19  C   UNL     1      10.959   7.788  21.675  0.00  0.00    +0.000 C 
ENDBRANCH  16  11
ENDBRANCH  21  16
ENDBRANCH  10  20
ENDBRANCH   6  10
BRANCH   7  13
ATOM     13  C   UNL     1      16.169  13.036  15.907  0.00  0.00    +0.100 C 
BRANCH  13  22
ATOM      2  O   UNL     1      17.744  13.091  17.713  0.00  0.00    -0.276 OA
ATOM      5  N   UNL     1      15.499  13.211  18.283  0.00  0.00    -0.300 N 
ATOM     22  C   UNL     1      16.558  13.114  17.373  0.00  0.00    +0.216 C 
ATOM     25  C   UNL     1      14.105  13.237  17.859  0.00  0.00    +0.132 C 
BRANCH   5  24
ATOM     24  C   UNL     1      15.710  13.295  19.726  0.00  0.00    +0.142 C 
BRANCH  24  26
ATOM     26  C   UNL     1      15.486  11.975  20.404  0.00  0.00    -0.030 A 
ATOM     27  C   UNL     1      16.354  10.910  20.163  0.00  0.00    +0.005 A 
ATOM     28  C   UNL     1      14.409  11.813  21.277  0.00  0.00    +0.005 A 
ATOM     29  C   UNL     1      16.145   9.683  20.793  0.00  0.00    +0.000 A 
ATOM     30  C   UNL     1      14.200  10.586  21.907  0.00  0.00    +0.000 A 
ATOM     31  C   UNL     1      15.069   9.521  21.665  0.00  0.00    +0.000 A 
ENDBRANCH  24  26
ENDBRANCH   5  24
ENDBRANCH  13  22
ENDBRANCH   7  13
TORSDOF 8
ENDMDL
MODEL 2
REMARK VINA RESULT:      -5.8     26.902     30.905
REMARK  Name = 26743242
REMARK  9 active torsions:
REMARK  status: ('A' for Active; 'I' for Inactive)
REMARK    1  A    between atoms: N_5  and  C_24
REMARK    2  A    between atoms: N_5  and  C_25
REMARK    3  A    between atoms: C_6  and  C_10
REMARK    4  A    between atoms: C_7  and  C_13
REMARK    5  A    between atoms: C_10  and  C_20
REMARK    6  A    between atoms: C_11  and  C_16
REMARK    7  A    between atoms: C_13  and  C_22
REMARK    8  A    between atoms: C_16  and  C_21
REMARK    9  A    between atoms: C_24  and  C_26
REMARK                            x       y       z     vdW  Elec       q    Type
REMARK                         _______ _______ _______ _____ _____    ______ ____
ROOT
ATOM      3  N   UNL     1     -18.721   5.525  21.611  0.00  0.00    -0.316 NA
ATOM      6  C   UNL     1     -16.567   4.791  22.603  0.00  0.00    +0.012 C 
ATOM      7  C   UNL     1     -15.792   5.274  21.354  0.00  0.00    +0.004 C 
ATOM      8  C   UNL     1     -16.745   5.289  20.147  0.00  0.00    +0.019 C 
ATOM      9  C   UNL     1     -17.873   5.578  22.801  0.00  0.00    +0.085 C 
ATOM     12  C   UNL     1     -18.036   6.054  20.432  0.00  0.00    +0.081 C 
ATOM     32  H   UNL     1     -19.571   6.064  21.777  0.00  0.00    +0.122 HD
ENDROOT
BRANCH   6  10
ATOM     10  C   UNL     1     -15.724   4.818  23.879  0.00  0.00    +0.064 C 
BRANCH  10  20
ATOM      1  O   UNL     1     -16.375   1.583  25.317  0.00  0.00    -0.359 OA
ATOM      4  N   UNL     1     -16.070   2.414  24.246  0.00  0.00    -0.083 NA
ATOM     20  C   UNL     1     -16.033   3.645  24.764  0.00  0.00    +0.084 A 
ATOM     21  C   UNL     1     -16.513   2.333  26.441  0.00  0.00    +0.138 A 
ATOM     23  C   UNL     1     -16.306   3.653  26.143  0.00  0.00    +0.071 A 
BRANCH  21  16
ATOM     16  C   UNL     1     -16.839   1.608  27.675  0.00  0.00    +0.080 C 
BRANCH  16  11
ATOM     11  C   UNL     1     -15.839   1.862  28.803  0.00  0.00    -0.004 C 
ATOM     14  C   UNL     1     -16.495   2.657  29.940  0.00  0.00    +0.004 C 
ATOM     15  C   UNL     1     -15.263   0.539  29.324  0.00  0.00    +0.004 C 
ATOM     17  C   UNL     1     -15.531   2.877  31.103  0.00  0.00    +0.000 C 
ATOM     18  C   UNL     1     -14.301   0.762  30.488  0.00  0.00    +0.000 C 
ATOM     19  C   UNL     1     -14.954   1.561  31.612  0.00  0.00    +0.000 C 
ENDBRANCH  16  11
ENDBRANCH  21  16
ENDBRANCH  10  20
ENDBRANCH   6  10
BRANCH   7  13
ATOM     13  C   UNL     1     -15.114   6.638  21.530  0.00  0.00    +0.100 C 
BRANCH  13  22
ATOM      2  O   UNL     1     -13.017   5.501  21.767  0.00  0.00    -0.276 OA
ATOM      5  N   UNL     1     -12.934   7.702  21.036  0.00  0.00    -0.300 N 
ATOM     22  C   UNL     1     -13.600   6.545  21.461  0.00  0.00    +0.216 C 
ATOM     25  C   UNL     1     -13.643   8.924  20.680  0.00  0.00    +0.132 C 
BRANCH   5  24
ATOM     24  C   UNL     1     -11.480   7.770  20.918  0.00  0.00    +0.142 C 
BRANCH  24  26
ATOM     26  C   UNL     1     -11.050   8.296  19.580  0.00  0.00    -0.030 A 
ATOM     27  C   UNL     1     -10.469   9.561  19.482  0.00  0.00    +0.005 A 
ATOM     28  C   UNL     1     -11.230   7.521  18.434  0.00  0.00    +0.005 A 
ATOM     29  C   UNL     1     -10.068  10.050  18.238  0.00  0.00    +0.000 A 
ATOM     30  C   UNL     1     -10.829   8.010  17.191  0.00  0.00    +0.000 A 
ATOM     31  C   UNL     1     -10.248   9.275  17.092  0.00  0.00    +0.000 A 
ENDBRANCH  24  26
ENDBRANCH   5  24
ENDBRANCH  13  22
ENDBRANCH   7  13
TORSDOF 8
ENDMDL
MODEL 3
REMARK VINA RESULT:      -5.8     27.389     30.854
REMARK  Name = 26743242
REMARK  9 active torsions:
REMARK  status: ('A' for Active; 'I' for Inactive)
REMARK    1  A    between atoms: N_5  and  C_24
REMARK    2  A    between atoms: N_5  and  C_25
REMARK    3  A    between atoms: C_6  and  C_10
REMARK    4  A    between atoms: C_7  and  C_13
REMARK    5  A    between atoms: C_10  and  C_20
REMARK    6  A    between atoms: C_11  and  C_16
REMARK    7  A    between atoms: C_13  and  C_22
REMARK    8  A    between atoms: C_16  and  C_21
REMARK    9  A    between atoms: C_24  and  C_26
REMARK                            x       y       z     vdW  Elec       q    Type
REMARK                         _______ _______ _______ _____ _____    ______ ____
ROOT
ATOM      3  N   UNL     1      -6.970  -9.525  15.466  0.00  0.00    -0.316 NA
ATOM      6  C   UNL     1      -4.962 -10.135  16.793  0.00  0.00    +0.012 C 
ATOM      7  C   UNL     1      -5.838 -10.454  18.028  0.00  0.00    +0.004 C 
ATOM      8  C   UNL     1      -7.156  -9.667  17.925  0.00  0.00    +0.019 C 
ATOM      9  C   UNL     1      -5.742 -10.319  15.480  0.00  0.00    +0.085 C 
ATOM     12  C   UNL     1      -7.852  -9.867  16.580  0.00  0.00    +0.081 C 
ATOM     32  H   UNL     1      -7.462  -9.679  14.586  0.00  0.00    +0.122 HD
ENDROOT
BRANCH   6  10
ATOM     10  C   UNL     1      -3.659 -10.934  16.761  0.00  0.00    +0.064 C 
BRANCH  10  20
ATOM      1  O   UNL     1      -1.269 -10.000  14.236  0.00  0.00    -0.359 OA
ATOM      4  N   UNL     1      -1.695 -10.082  15.556  0.00  0.00    -0.083 NA
ATOM     20  C   UNL     1      -2.890 -10.676  15.497  0.00  0.00    +0.084 A 
ATOM     21  C   UNL     1      -2.214 -10.542  13.425  0.00  0.00    +0.138 A 
ATOM     23  C   UNL     1      -3.268 -10.987  14.179  0.00  0.00    +0.071 A 
BRANCH  21  16
ATOM     16  C   UNL     1      -1.924 -10.537  11.987  0.00  0.00    +0.080 C 
BRANCH  16  11
ATOM     11  C   UNL     1      -3.171 -10.359  11.122  0.00  0.00    -0.004 C 
ATOM     14  C   UNL     1      -2.992  -9.189  10.146  0.00  0.00    +0.004 C 
ATOM     15  C   UNL     1      -3.497 -11.655  10.368  0.00  0.00    +0.004 C 
ATOM     17  C   UNL     1      -4.205  -9.024   9.234  0.00  0.00    +0.000 C 
ATOM     18  C   UNL     1      -4.709 -11.486   9.455  0.00  0.00    +0.000 C 
ATOM     19  C   UNL     1      -4.531 -10.316   8.492  0.00  0.00    +0.000 C 
ENDBRANCH  16  11
ENDBRANCH  21  16
ENDBRANCH  10  20
ENDBRANCH   6  10
BRANCH   7  13
ATOM     13  C   UNL     1      -6.112 -11.950  18.229  0.00  0.00    +0.100 C 
BRANCH  13  22
ATOM      2  O   UNL     1      -6.694 -11.837  20.552  0.00  0.00    -0.276 OA
ATOM      5  N   UNL     1      -8.199 -12.910  19.150  0.00  0.00    -0.300 N 
ATOM     22  C   UNL     1      -7.013 -12.218  19.423  0.00  0.00    +0.216 C 
ATOM     25  C   UNL     1      -8.555 -13.351  17.808  0.00  0.00    +0.132 C 
BRANCH   5  24
ATOM     24  C   UNL     1      -9.168 -13.243  20.190  0.00  0.00    +0.142 C 
BRANCH  24  26
ATOM     26  C   UNL     1     -10.349 -12.317  20.175  0.00  0.00    -0.030 A 
ATOM     27  C   UNL     1     -10.153 -10.937  20.116  0.00  0.00    +0.005 A 
ATOM     28  C   UNL     1     -11.644 -12.835  20.218  0.00  0.00    +0.005 A 
ATOM     29  C   UNL     1     -11.250 -10.075  20.102  0.00  0.00    +0.000 A 
ATOM     30  C   UNL     1     -12.741 -11.974  20.204  0.00  0.00    +0.000 A 
ATOM     31  C   UNL     1     -12.544 -10.594  20.146  0.00  0.00    +0.000 A 
ENDBRANCH  24  26
ENDBRANCH   5  24
ENDBRANCH  13  22
ENDBRANCH   7  13
TORSDOF 8
ENDMDL
MODEL 4
REMARK VINA RESULT:      -5.8     27.549     29.891
REMARK  Name = 26743242
REMARK  9 active torsions:
REMARK  status: ('A' for Active; 'I' for Inactive)
REMARK    1  A    between atoms: N_5  and  C_24
REMARK    2  A    between atoms: N_5  and  C_25
REMARK    3  A    between atoms: C_6  and  C_10
REMARK    4  A    between atoms: C_7  and  C_13
REMARK    5  A    between atoms: C_10  and  C_20
REMARK    6  A    between atoms: C_11  and  C_16
REMARK    7  A    between atoms: C_13  and  C_22
REMARK    8  A    between atoms: C_16  and  C_21
REMARK    9  A    between atoms: C_24  and  C_26
REMARK                            x       y       z     vdW  Elec       q    Type
REMARK                         _______ _______ _______ _____ _____    ______ ____
ROOT
ATOM      3  N   UNL     1      -4.454  -8.565   8.855  0.00  0.00    -0.316 NA
ATOM      6  C   UNL     1      -3.777  -9.751  10.929  0.00  0.00    +0.012 C 
ATOM      7  C   UNL     1      -5.200  -9.596  11.517  0.00  0.00    +0.004 C 
ATOM      8  C   UNL     1      -5.887  -8.388  10.859  0.00  0.00    +0.019 C 
ATOM      9  C   UNL     1      -3.795  -9.756   9.391  0.00  0.00    +0.085 C 
ATOM     12  C   UNL     1      -5.830  -8.443   9.334  0.00  0.00    +0.081 C 
ATOM     32  H   UNL     1      -4.454  -8.609   7.836  0.00  0.00    +0.122 HD
ENDROOT
BRANCH   6  10
ATOM     10  C   UNL     1      -3.038 -10.978  11.462  0.00  0.00    +0.064 C 
BRANCH  10  20
ATOM      1  O   UNL     1      -1.519 -10.030  14.585  0.00  0.00    -0.359 OA
ATOM      4  N   UNL     1      -1.625  -9.970  13.200  0.00  0.00    -0.083 NA
ATOM     20  C   UNL     1      -2.633 -10.793  12.896  0.00  0.00    +0.084 A 
ATOM     21  C   UNL     1      -2.458 -10.881  15.070  0.00  0.00    +0.138 A 
ATOM     23  C   UNL     1      -3.194 -11.395  14.036  0.00  0.00    +0.071 A 
BRANCH  21  16
ATOM     16  C   UNL     1      -2.487 -11.064  16.526  0.00  0.00    +0.080 C 
BRANCH  16  11
ATOM     11  C   UNL     1      -3.894 -11.294  17.076  0.00  0.00    -0.004 C 
ATOM     14  C   UNL     1      -3.848 -11.573  18.584  0.00  0.00    +0.004 C 
ATOM     15  C   UNL     1      -4.798 -10.092  16.769  0.00  0.00    +0.004 C 
ATOM     17  C   UNL     1      -5.248 -11.753  19.167  0.00  0.00    +0.000 C 
ATOM     18  C   UNL     1      -6.196 -10.275  17.355  0.00  0.00    +0.000 C 
ATOM     19  C   UNL     1      -6.146 -10.561  18.853  0.00  0.00    +0.000 C 
ENDBRANCH  16  11
ENDBRANCH  21  16
ENDBRANCH  10  20
ENDBRANCH   6  10
BRANCH   7  13
ATOM     13  C   UNL     1      -6.068 -10.854  11.386  0.00  0.00    +0.100 C 
BRANCH  13  22
ATOM      2  O   UNL     1      -6.672 -10.502  13.679  0.00  0.00    -0.276 OA
ATOM      5  N   UNL     1      -7.298 -12.526  12.734  0.00  0.00    -0.300 N 
ATOM     22  C   UNL     1      -6.700 -11.261  12.707  0.00  0.00    +0.216 C 
ATOM     25  C   UNL     1      -7.319 -13.406  11.572  0.00  0.00    +0.132 C 
BRANCH   5  24
ATOM     24  C   UNL     1      -7.947 -13.060  13.928  0.00  0.00    +0.142 C 
BRANCH  24  26
ATOM     26  C   UNL     1      -6.953 -13.613  14.908  0.00  0.00    -0.030 A 
ATOM     27  C   UNL     1      -7.281 -13.701  16.261  0.00  0.00    +0.005 A 
ATOM     28  C   UNL     1      -5.700 -14.040  14.466  0.00  0.00    +0.005 A 
ATOM     29  C   UNL     1      -6.358 -14.214  17.172  0.00  0.00    +0.000 A 
ATOM     30  C   UNL     1      -4.777 -14.554  15.377  0.00  0.00    +0.000 A 
ATOM     31  C   UNL     1      -5.106 -14.641  16.730  0.00  0.00    +0.000 A 
ENDBRANCH  24  26
ENDBRANCH   5  24
ENDBRANCH  13  22
ENDBRANCH   7  13
TORSDOF 8
ENDMDL
MODEL 5
REMARK VINA RESULT:      -5.7      1.751      3.010
REMARK  Name = 26743242
REMARK  9 active torsions:
REMARK  status: ('A' for Active; 'I' for Inactive)
REMARK    1  A    between atoms: N_5  and  C_24
REMARK    2  A    between atoms: N_5  and  C_25
REMARK    3  A    between atoms: C_6  and  C_10
REMARK    4  A    between atoms: C_7  and  C_13
REMARK    5  A    between atoms: C_10  and  C_20
REMARK    6  A    between atoms: C_11  and  C_16
REMARK    7  A    between atoms: C_13  and  C_22
REMARK    8  A    between atoms: C_16  and  C_21
REMARK    9  A    between atoms: C_24  and  C_26
REMARK                            x       y       z     vdW  Elec       q    Type
REMARK                         _______ _______ _______ _____ _____    ______ ____
ROOT
ATOM      3  N   UNL     1      15.991  12.528  12.919  0.00  0.00    -0.316 NA
ATOM      6  C   UNL     1      14.946  11.252  14.776  0.00  0.00    +0.012 C 
ATOM      7  C   UNL     1      15.916  11.890  15.799  0.00  0.00    +0.004 C 
ATOM      8  C   UNL     1      17.193  12.338  15.069  0.00  0.00    +0.019 C 
ATOM      9  C   UNL     1      14.726  12.165  13.557  0.00  0.00    +0.085 C 
ATOM     12  C   UNL     1      16.894  13.206  13.848  0.00  0.00    +0.081 C 
ATOM     32  H   UNL     1      15.805  13.138  12.123  0.00  0.00    +0.122 HD
ENDROOT
BRANCH   6  10
ATOM     10  C   UNL     1      13.607  10.846  15.391  0.00  0.00    +0.064 C 
BRANCH  10  20
ATOM      1  O   UNL     1      13.648   7.469  16.639  0.00  0.00    -0.359 OA
ATOM      4  N   UNL     1      13.416   8.410  15.642  0.00  0.00    -0.083 NA
ATOM     20  C   UNL     1      13.735   9.584  16.194  0.00  0.00    +0.084 A 
ATOM     21  C   UNL     1      14.096   8.100  17.754  0.00  0.00    +0.138 A 
ATOM     23  C   UNL     1      14.169   9.448  17.524  0.00  0.00    +0.071 A 
BRANCH  21  16
ATOM     16  C   UNL     1      14.393   7.249  18.913  0.00  0.00    +0.080 C 
BRANCH  16  11
ATOM     11  C   UNL     1      15.820   7.420  19.434  0.00  0.00    -0.004 C 
ATOM     14  C   UNL     1      15.811   7.853  20.906  0.00  0.00    +0.004 C 
ATOM     15  C   UNL     1      16.621   6.124  19.251  0.00  0.00    +0.004 C 
ATOM     17  C   UNL     1      17.226   7.978  21.466  0.00  0.00    +0.000 C 
ATOM     18  C   UNL     1      18.034   6.251  19.814  0.00  0.00    +0.000 C 
ATOM     19  C   UNL     1      18.022   6.692  21.275  0.00  0.00    +0.000 C 
ENDBRANCH  16  11
ENDBRANCH  21  16
ENDBRANCH  10  20
ENDBRANCH   6  10
BRANCH   7  13
ATOM     13  C   UNL     1      15.307  13.051  16.595  0.00  0.00    +0.100 C 
BRANCH  13  22
ATOM      2  O   UNL     1      16.396  12.246  18.573  0.00  0.00    -0.276 OA
ATOM      5  N   UNL     1      14.405  13.398  18.873  0.00  0.00    -0.300 N 
ATOM     22  C   UNL     1      15.434  12.854  18.096  0.00  0.00    +0.216 C 
ATOM     25  C   UNL     1      13.277  14.112  18.287  0.00  0.00    +0.132 C 
BRANCH   5  24
ATOM     24  C   UNL     1      14.383  13.292  20.329  0.00  0.00    +0.142 C 
BRANCH  24  26
ATOM     26  C   UNL     1      13.390  12.270  20.803  0.00  0.00    -0.030 A 
ATOM     27  C   UNL     1      12.239  12.677  21.478  0.00  0.00    +0.005 A 
ATOM     28  C   UNL     1      13.618  10.913  20.569  0.00  0.00    +0.005 A 
ATOM     29  C   UNL     1      11.316  11.728  21.919  0.00  0.00    +0.000 A 
ATOM     30  C   UNL     1      12.696   9.965  21.010  0.00  0.00    +0.000 A 
ATOM     31  C   UNL     1      11.544  10.372  21.685  0.00  0.00    +0.000 A 
ENDBRANCH  24  26
ENDBRANCH   5  24
ENDBRANCH  13  22
ENDBRANCH   7  13
TORSDOF 8
ENDMDL
MODEL 6
REMARK VINA RESULT:      -5.7     27.517     30.666
REMARK  Name = 26743242
REMARK  9 active torsions:
REMARK  status: ('A' for Active; 'I' for Inactive)
REMARK    1  A    between atoms: N_5  and  C_24
REMARK    2  A    between atoms: N_5  and  C_25
REMARK    3  A    between atoms: C_6  and  C_10
REMARK    4  A    between atoms: C_7  and  C_13
REMARK    5  A    between atoms: C_10  and  C_20
REMARK    6  A    between atoms: C_11  and  C_16
REMARK    7  A    between atoms: C_13  and  C_22
REMARK    8  A    between atoms: C_16  and  C_21
REMARK    9  A    between atoms: C_24  and  C_26
REMARK                            x       y       z     vdW  Elec       q    Type
REMARK                         _______ _______ _______ _____ _____    ______ ____
ROOT
ATOM      3  N   UNL     1      -6.287 -13.574  18.221  0.00  0.00    -0.316 NA
ATOM      6  C   UNL     1      -5.135 -11.852  16.853  0.00  0.00    +0.012 C 
ATOM      7  C   UNL     1      -6.448 -11.528  16.101  0.00  0.00    +0.004 C 
ATOM      8  C   UNL     1      -7.376 -12.752  16.162  0.00  0.00    +0.019 C 
ATOM      9  C   UNL     1      -5.408 -12.405  18.262  0.00  0.00    +0.085 C 
ATOM     12  C   UNL     1      -7.568 -13.269  17.587  0.00  0.00    +0.081 C 
ATOM     32  H   UNL     1      -6.451 -13.906  19.171  0.00  0.00    +0.122 HD
ENDROOT
BRANCH   6  10
ATOM     10  C   UNL     1      -4.173 -10.665  16.920  0.00  0.00    +0.064 C 
BRANCH  10  20
ATOM      1  O   UNL     1      -1.421 -10.491  14.606  0.00  0.00    -0.359 OA
ATOM      4  N   UNL     1      -1.950 -10.484  15.891  0.00  0.00    -0.083 NA
ATOM     20  C   UNL     1      -3.268 -10.627  15.723  0.00  0.00    +0.084 A 
ATOM     21  C   UNL     1      -2.429 -10.636  13.707  0.00  0.00    +0.138 A 
ATOM     23  C   UNL     1      -3.626 -10.727  14.367  0.00  0.00    +0.071 A 
BRANCH  21  16
ATOM     16  C   UNL     1      -2.045 -10.664  12.291  0.00  0.00    +0.080 C 
BRANCH  16  11
ATOM     11  C   UNL     1      -3.214 -10.396  11.345  0.00  0.00    -0.004 C 
ATOM     14  C   UNL     1      -2.865  -9.277  10.354  0.00  0.00    +0.004 C 
ATOM     15  C   UNL     1      -3.614 -11.678  10.602  0.00  0.00    +0.004 C 
ATOM     17  C   UNL     1      -4.000  -9.028   9.364  0.00  0.00    +0.000 C 
ATOM     18  C   UNL     1      -4.747 -11.425   9.610  0.00  0.00    +0.000 C 
ATOM     19  C   UNL     1      -4.400 -10.305   8.633  0.00  0.00    +0.000 C 
ENDBRANCH  16  11
ENDBRANCH  21  16
ENDBRANCH  10  20
ENDBRANCH   6  10
BRANCH   7  13
ATOM     13  C   UNL     1      -7.166 -10.273  16.614  0.00  0.00    +0.100 C 
BRANCH  13  22
ATOM      2  O   UNL     1      -8.629  -9.962  14.740  0.00  0.00    -0.276 OA
ATOM      5  N   UNL     1      -9.621 -10.043  16.835  0.00  0.00    -0.300 N 
ATOM     22  C   UNL     1      -8.526 -10.079  15.964  0.00  0.00    +0.216 C 
ATOM     25  C   UNL     1      -9.475 -10.184  18.279  0.00  0.00    +0.132 C 
BRANCH   5  24
ATOM     24  C   UNL     1     -10.991  -9.864  16.364  0.00  0.00    +0.142 C 
BRANCH  24  26
ATOM     26  C   UNL     1     -11.252  -8.453  15.921  0.00  0.00    -0.030 A 
ATOM     27  C   UNL     1     -11.774  -8.207  14.651  0.00  0.00    +0.005 A 
ATOM     28  C   UNL     1     -10.974  -7.389  16.780  0.00  0.00    +0.005 A 
ATOM     29  C   UNL     1     -12.017  -6.896  14.239  0.00  0.00    +0.000 A 
ATOM     30  C   UNL     1     -11.217  -6.078  16.367  0.00  0.00    +0.000 A 
ATOM     31  C   UNL     1     -11.739  -5.832  15.097  0.00  0.00    +0.000 A 
ENDBRANCH  24  26
ENDBRANCH   5  24
ENDBRANCH  13  22
ENDBRANCH   7  13
TORSDOF 8
ENDMDL
MODEL 7
REMARK VINA RESULT:      -5.4      2.728      5.449
REMARK  Name = 26743242
REMARK  9 active torsions:
REMARK  status: ('A' for Active; 'I' for Inactive)
REMARK    1  A    between atoms: N_5  and  C_24
REMARK    2  A    between atoms: N_5  and  C_25
REMARK    3  A    between atoms: C_6  and  C_10
REMARK    4  A    between atoms: C_7  and  C_13
REMARK    5  A    between atoms: C_10  and  C_20
REMARK    6  A    between atoms: C_11  and  C_16
REMARK    7  A    between atoms: C_13  and  C_22
REMARK    8  A    between atoms: C_16  and  C_21
REMARK    9  A    between atoms: C_24  and  C_26
REMARK                            x       y       z     vdW  Elec       q    Type
REMARK                         _______ _______ _______ _____ _____    ______ ____
ROOT
ATOM      3  N   UNL     1      16.191  12.899  14.900  0.00  0.00    -0.316 NA
ATOM      6  C   UNL     1      14.764  12.334  16.852  0.00  0.00    +0.012 C 
ATOM      7  C   UNL     1      14.015  11.257  16.030  0.00  0.00    +0.004 C 
ATOM      8  C   UNL     1      14.119  11.604  14.536  0.00  0.00    +0.019 C 
ATOM      9  C   UNL     1      16.190  12.561  16.323  0.00  0.00    +0.085 C 
ATOM     12  C   UNL     1      15.559  11.856  14.093  0.00  0.00    +0.081 C 
ATOM     32  H   UNL     1      17.152  13.034  14.585  0.00  0.00    +0.122 HD
ENDROOT
BRANCH   6  10
ATOM     10  C   UNL     1      14.788  12.034  18.351  0.00  0.00    +0.064 C 
BRANCH  10  20
ATOM      1  O   UNL     1      12.145  14.206  19.472  0.00  0.00    -0.359 OA
ATOM      4  N   UNL     1      13.171  13.867  18.598  0.00  0.00    -0.083 NA
ATOM     20  C   UNL     1      13.650  12.709  19.062  0.00  0.00    +0.084 A 
ATOM     21  C   UNL     1      12.037  13.250  20.429  0.00  0.00    +0.138 A 
ATOM     23  C   UNL     1      12.973  12.274  20.214  0.00  0.00    +0.071 A 
BRANCH  21  16
ATOM     16  C   UNL     1      10.993  13.451  21.441  0.00  0.00    +0.080 C 
BRANCH  16  11
ATOM     11  C   UNL     1      11.448  13.090  22.854  0.00  0.00    -0.004 C 
ATOM     14  C   UNL     1      11.270  14.282  23.804  0.00  0.00    +0.004 C 
ATOM     15  C   UNL     1      10.686  11.861  23.371  0.00  0.00    +0.004 C 
ATOM     17  C   UNL     1      11.668  13.928  25.234  0.00  0.00    +0.000 C 
ATOM     18  C   UNL     1      11.085  11.512  24.802  0.00  0.00    +0.000 C 
ATOM     19  C   UNL     1      10.915  12.703  25.741  0.00  0.00    +0.000 C 
ENDBRANCH  16  11
ENDBRANCH  21  16
ENDBRANCH  10  20
ENDBRANCH   6  10
BRANCH   7  13
ATOM     13  C   UNL     1      14.498   9.825  16.292  0.00  0.00    +0.100 C 
BRANCH  13  22
ATOM      2  O   UNL     1      12.345   8.825  15.959  0.00  0.00    -0.276 OA
ATOM      5  N   UNL     1      13.544   8.126  17.818  0.00  0.00    -0.300 N 
ATOM     22  C   UNL     1      13.359   8.889  16.659  0.00  0.00    +0.216 C 
ATOM     25  C   UNL     1      14.751   8.218  18.630  0.00  0.00    +0.132 C 
BRANCH   5  24
ATOM     24  C   UNL     1      12.542   7.181  18.302  0.00  0.00    +0.142 C 
BRANCH  24  26
ATOM     26  C   UNL     1      11.993   7.579  19.641  0.00  0.00    -0.030 A 
ATOM     27  C   UNL     1      12.045   6.684  20.710  0.00  0.00    +0.005 A 
ATOM     28  C   UNL     1      11.433   8.845  19.818  0.00  0.00    +0.005 A 
ATOM     29  C   UNL     1      11.535   7.054  21.955  0.00  0.00    +0.000 A 
ATOM     30  C   UNL     1      10.924   9.215  21.063  0.00  0.00    +0.000 A 
ATOM     31  C   UNL     1      10.975   8.319  22.132  0.00  0.00    +0.000 A 
ENDBRANCH  24  26
ENDBRANCH   5  24
ENDBRANCH  13  22
ENDBRANCH   7  13
TORSDOF 8
ENDMDL
MODEL 8
REMARK VINA RESULT:      -5.3     28.030     31.205
REMARK  Name = 26743242
REMARK  9 active torsions:
REMARK  status: ('A' for Active; 'I' for Inactive)
REMARK    1  A    between atoms: N_5  and  C_24
REMARK    2  A    between atoms: N_5  and  C_25
REMARK    3  A    between atoms: C_6  and  C_10
REMARK    4  A    between atoms: C_7  and  C_13
REMARK    5  A    between atoms: C_10  and  C_20
REMARK    6  A    between atoms: C_11  and  C_16
REMARK    7  A    between atoms: C_13  and  C_22
REMARK    8  A    between atoms: C_16  and  C_21
REMARK    9  A    between atoms: C_24  and  C_26
REMARK                            x       y       z     vdW  Elec       q    Type
REMARK                         _______ _______ _______ _____ _____    ______ ____
ROOT
ATOM      3  N   UNL     1     -11.124 -11.001   7.394  0.00  0.00    -0.316 NA
ATOM      6  C   UNL     1     -10.125  -8.741   7.637  0.00  0.00    +0.012 C 
ATOM      7  C   UNL     1      -9.058  -9.285   8.617  0.00  0.00    +0.004 C 
ATOM      8  C   UNL     1      -9.594 -10.563   9.283  0.00  0.00    +0.019 C 
ATOM      9  C   UNL     1     -10.621  -9.832   6.673  0.00  0.00    +0.085 C 
ATOM     12  C   UNL     1     -10.105 -11.582   8.266  0.00  0.00    +0.081 C 
ATOM     32  H   UNL     1     -11.435 -11.703   6.723  0.00  0.00    +0.122 HD
ENDROOT
BRANCH   6  10
ATOM     10  C   UNL     1      -9.655  -7.511   6.860  0.00  0.00    +0.064 C 
BRANCH  10  20
ATOM      1  O   UNL     1      -9.178  -4.533   8.827  0.00  0.00    -0.359 OA
ATOM      4  N   UNL     1      -8.700  -5.629   8.118  0.00  0.00    -0.083 NA
ATOM     20  C   UNL     1      -9.793  -6.260   7.680  0.00  0.00    +0.084 A 
ATOM     21  C   UNL     1     -10.535  -4.537   8.795  0.00  0.00    +0.138 A 
ATOM     23  C   UNL     1     -10.977  -5.616   8.078  0.00  0.00    +0.071 A 
BRANCH  21  16
ATOM     16  C   UNL     1     -11.209  -3.440   9.500  0.00  0.00    +0.080 C 
BRANCH  16  11
ATOM     11  C   UNL     1     -12.331  -3.917  10.422  0.00  0.00    -0.004 C 
ATOM     14  C   UNL     1     -12.083  -3.452  11.863  0.00  0.00    +0.004 C 
ATOM     15  C   UNL     1     -13.694  -3.424   9.915  0.00  0.00    +0.004 C 
ATOM     17  C   UNL     1     -13.219  -3.871  12.793  0.00  0.00    +0.000 C 
ATOM     18  C   UNL     1     -14.826  -3.842  10.849  0.00  0.00    +0.000 C 
ATOM     19  C   UNL     1     -14.572  -3.387  12.283  0.00  0.00    +0.000 C 
ENDBRANCH  16  11
ENDBRANCH  21  16
ENDBRANCH  10  20
ENDBRANCH   6  10
BRANCH   7  13
ATOM     13  C   UNL     1      -7.691  -9.540   7.970  0.00  0.00    +0.100 C 
BRANCH  13  22
ATOM      2  O   UNL     1      -6.789  -7.734   9.263  0.00  0.00    -0.276 OA
ATOM      5  N   UNL     1      -5.304  -9.392   8.608  0.00  0.00    -0.300 N 
ATOM     22  C   UNL     1      -6.570  -8.796   8.675  0.00  0.00    +0.216 C 
ATOM     25  C   UNL     1      -5.068 -10.648   7.908  0.00  0.00    +0.132 C 
BRANCH   5  24
ATOM     24  C   UNL     1      -4.126  -8.800   9.236  0.00  0.00    +0.142 C 
BRANCH  24  26
ATOM     26  C   UNL     1      -3.791  -9.464  10.540  0.00  0.00    -0.030 A 
ATOM     27  C   UNL     1      -4.797  -9.722  11.470  0.00  0.00    +0.005 A 
ATOM     28  C   UNL     1      -2.472  -9.824  10.821  0.00  0.00    +0.005 A 
ATOM     29  C   UNL     1      -4.486 -10.339  12.682  0.00  0.00    +0.000 A 
ATOM     30  C   UNL     1      -2.161 -10.441  12.033  0.00  0.00    +0.000 A 
ATOM     31  C   UNL     1      -3.168 -10.699  12.963  0.00  0.00    +0.000 A 
ENDBRANCH  24  26
ENDBRANCH   5  24
ENDBRANCH  13  22
ENDBRANCH   7  13
TORSDOF 8
ENDMDL
MODEL 9
REMARK VINA RESULT:      -5.2     31.905     33.822
REMARK  Name = 26743242
REMARK  9 active torsions:
REMARK  status: ('A' for Active; 'I' for Inactive)
REMARK    1  A    between atoms: N_5  and  C_24
REMARK    2  A    between atoms: N_5  and  C_25
REMARK    3  A    between atoms: C_6  and  C_10
REMARK    4  A    between atoms: C_7  and  C_13
REMARK    5  A    between atoms: C_10  and  C_20
REMARK    6  A    between atoms: C_11  and  C_16
REMARK    7  A    between atoms: C_13  and  C_22
REMARK    8  A    between atoms: C_16  and  C_21
REMARK    9  A    between atoms: C_24  and  C_26
REMARK                            x       y       z     vdW  Elec       q    Type
REMARK                         _______ _______ _______ _____ _____    ______ ____
ROOT
ATOM      3  N   UNL     1       5.577 -15.159   0.693  0.00  0.00    -0.316 NA
ATOM      6  C   UNL     1       3.196 -15.512   1.304  0.00  0.00    +0.012 C 
ATOM      7  C   UNL     1       2.730 -14.662   0.098  0.00  0.00    +0.004 C 
ATOM      8  C   UNL     1       3.854 -13.690  -0.297  0.00  0.00    +0.019 C 
ATOM      9  C   UNL     1       4.569 -16.157   1.047  0.00  0.00    +0.085 C 
ATOM     12  C   UNL     1       5.194 -14.397  -0.495  0.00  0.00    +0.081 C 
ATOM     32  H   UNL     1       6.468 -15.624   0.523  0.00  0.00    +0.122 HD
ENDROOT
BRANCH   6  10
ATOM     10  C   UNL     1       2.175 -16.569   1.723  0.00  0.00    +0.064 C 
BRANCH  10  20
ATOM      1  O   UNL     1       0.488 -16.197   4.881  0.00  0.00    -0.359 OA
ATOM      4  N   UNL     1       1.280 -16.906   3.986  0.00  0.00    -0.083 NA
ATOM     20  C   UNL     1       1.376 -16.117   2.911  0.00  0.00    +0.084 A 
ATOM     21  C   UNL     1       0.132 -15.011   4.324  0.00  0.00    +0.138 A 
ATOM     23  C   UNL     1       0.672 -14.911   3.069  0.00  0.00    +0.071 A 
BRANCH  21  16
ATOM     16  C   UNL     1      -0.712 -14.131   5.141  0.00  0.00    +0.080 C 
BRANCH  16  11
ATOM     11  C   UNL     1      -2.127 -13.973   4.588  0.00  0.00    -0.004 C 
ATOM     14  C   UNL     1      -3.112 -13.620   5.711  0.00  0.00    +0.004 C 
ATOM     15  C   UNL     1      -2.161 -12.913   3.479  0.00  0.00    +0.004 C 
ATOM     17  C   UNL     1      -4.525 -13.405   5.175  0.00  0.00    +0.000 C 
ATOM     18  C   UNL     1      -3.575 -12.698   2.947  0.00  0.00    +0.000 C 
ATOM     19  C   UNL     1      -4.553 -12.356   4.068  0.00  0.00    +0.000 C 
ENDBRANCH  16  11
ENDBRANCH  21  16
ENDBRANCH  10  20
ENDBRANCH   6  10
BRANCH   7  13
ATOM     13  C   UNL     1       2.277 -15.490  -1.111  0.00  0.00    +0.100 C 
BRANCH  13  22
ATOM      2  O   UNL     1       0.450 -13.996  -1.526  0.00  0.00    -0.276 OA
ATOM      5  N   UNL     1       1.489 -14.914  -3.385  0.00  0.00    -0.300 N 
ATOM     22  C   UNL     1       1.318 -14.728  -2.008  0.00  0.00    +0.216 C 
ATOM     25  C   UNL     1       2.521 -15.785  -3.933  0.00  0.00    +0.132 C 
BRANCH   5  24
ATOM     24  C   UNL     1       0.646 -14.251  -4.376  0.00  0.00    +0.142 C 
BRANCH  24  26
ATOM     26  C   UNL     1       1.278 -12.993  -4.899  0.00  0.00    -0.030 A 
ATOM     27  C   UNL     1       1.151 -11.801  -4.186  0.00  0.00    +0.005 A 
ATOM     28  C   UNL     1       1.991 -13.016  -6.098  0.00  0.00    +0.005 A 
ATOM     29  C   UNL     1       1.737 -10.632  -4.671  0.00  0.00    +0.000 A 
ATOM     30  C   UNL     1       2.577 -11.847  -6.583  0.00  0.00    +0.000 A 
ATOM     31  C   UNL     1       2.451 -10.655  -5.870  0.00  0.00    +0.000 A 
ENDBRANCH  24  26
ENDBRANCH   5  24
ENDBRANCH  13  22
ENDBRANCH   7  13
TORSDOF 8
ENDMDL
MODEL 10
REMARK VINA RESULT:      -5.1     25.571     28.513
REMARK  Name = 26743242
REMARK  9 active torsions:
REMARK  status: ('A' for Active; 'I' for Inactive)
REMARK    1  A    between atoms: N_5  and  C_24
REMARK    2  A    between atoms: N_5  and  C_25
REMARK    3  A    between atoms: C_6  and  C_10
REMARK    4  A    between atoms: C_7  and  C_13
REMARK    5  A    between atoms: C_10  and  C_20
REMARK    6  A    between atoms: C_11  and  C_16
REMARK    7  A    between atoms: C_13  and  C_22
REMARK    8  A    between atoms: C_16  and  C_21
REMARK    9  A    between atoms: C_24  and  C_26
REMARK                            x       y       z     vdW  Elec       q    Type
REMARK                         _______ _______ _______ _____ _____    ______ ____
ROOT
ATOM      3  N   UNL     1     -16.679   6.050  22.400  0.00  0.00    -0.316 NA
ATOM      6  C   UNL     1     -15.333   8.119  22.133  0.00  0.00    +0.012 C 
ATOM      7  C   UNL     1     -14.111   7.299  21.655  0.00  0.00    +0.004 C 
ATOM      8  C   UNL     1     -14.223   5.866  22.204  0.00  0.00    +0.019 C 
ATOM      9  C   UNL     1     -16.656   7.397  21.829  0.00  0.00    +0.085 C 
ATOM     12  C   UNL     1     -15.578   5.229  21.899  0.00  0.00    +0.081 C 
ATOM     32  H   UNL     1     -17.565   5.601  22.171  0.00  0.00    +0.122 HD
ENDROOT
BRANCH   6  10
ATOM     10  C   UNL     1     -15.356   9.541  21.572  0.00  0.00    +0.064 C 
BRANCH  10  20
ATOM      1  O   UNL     1     -13.168  12.185  22.658  0.00  0.00    -0.359 OA
ATOM      4  N   UNL     1     -14.186  11.682  21.857  0.00  0.00    -0.083 NA
ATOM     20  C   UNL     1     -14.325  10.408  22.235  0.00  0.00    +0.084 A 
ATOM     21  C   UNL     1     -12.727  11.206  23.490  0.00  0.00    +0.138 A 
ATOM     23  C   UNL     1     -13.431  10.054  23.260  0.00  0.00    +0.071 A 
BRANCH  21  16
ATOM     16  C   UNL     1     -11.644  11.568  24.412  0.00  0.00    +0.080 C 
BRANCH  16  11
ATOM     11  C   UNL     1     -11.912  11.137  25.853  0.00  0.00    -0.004 C 
ATOM     14  C   UNL     1     -10.710  10.371  26.422  0.00  0.00    +0.004 C 
ATOM     15  C   UNL     1     -12.249  12.353  26.728  0.00  0.00    +0.004 C 
ATOM     17  C   UNL     1     -10.933   9.976  27.880  0.00  0.00    +0.000 C 
ATOM     18  C   UNL     1     -12.469  11.954  28.185  0.00  0.00    +0.000 C 
ATOM     19  C   UNL     1     -11.276  11.184  28.745  0.00  0.00    +0.000 C 
ENDBRANCH  16  11
ENDBRANCH  21  16
ENDBRANCH  10  20
ENDBRANCH   6  10
BRANCH   7  13
ATOM     13  C   UNL     1     -13.924   7.286  20.133  0.00  0.00    +0.100 C 
BRANCH  13  22
ATOM      2  O   UNL     1     -11.561   7.248  20.535  0.00  0.00    -0.276 OA
ATOM      5  N   UNL     1     -12.248   7.856  18.404  0.00  0.00    -0.300 N 
ATOM     22  C   UNL     1     -12.471   7.456  19.727  0.00  0.00    +0.216 C 
ATOM     25  C   UNL     1     -13.338   8.096  17.467  0.00  0.00    +0.132 C 
BRANCH   5  24
ATOM     24  C   UNL     1     -10.908   8.062  17.863  0.00  0.00    +0.142 C 
BRANCH  24  26
ATOM     26  C   UNL     1     -10.636   9.509  17.569  0.00  0.00    -0.030 A 
ATOM     27  C   UNL     1     -10.671  10.448  18.599  0.00  0.00    +0.005 A 
ATOM     28  C   UNL     1     -10.350   9.915  16.265  0.00  0.00    +0.005 A 
ATOM     29  C   UNL     1     -10.419  11.793  18.327  0.00  0.00    +0.000 A 
ATOM     30  C   UNL     1     -10.098  11.259  15.992  0.00  0.00    +0.000 A 
ATOM     31  C   UNL     1     -10.132  12.199  17.023  0.00  0.00    +0.000 A 
ENDBRANCH  24  26
ENDBRANCH   5  24
ENDBRANCH  13  22
ENDBRANCH   7  13
TORSDOF 8
ENDMDL
