MODEL 1
REMARK VINA RESULT:      -7.1      0.000      0.000
REMARK  Name = 7113909
REMARK  7 active torsions:
REMARK  status: ('A' for Active; 'I' for Inactive)
REMARK    1  A    between atoms: S_1  and  N_12
REMARK    2  A    between atoms: S_1  and  C_28
REMARK    3  A    between atoms: O_9  and  C_31
REMARK    4  A    between atoms: O_9  and  C_38
REMARK    5  A    between atoms: N_12  and  C_23
REMARK    6  A    between atoms: C_22  and  C_25
REMARK    7  A    between atoms: C_34  and  C_37
REMARK                            x       y       z     vdW  Elec       q    Type
REMARK                         _______ _______ _______ _____ _____    ______ ____
ROOT
ATOM      5  O   UNL     1      13.079  11.425   6.414  0.00  0.00    -0.266 OA
ATOM      6  O   UNL     1      14.804  10.119   1.707  0.00  0.00    -0.270 OA
ATOM     10  N   UNL     1      16.273   9.200   3.280  0.00  0.00    -0.297 N 
ATOM     11  N   UNL     1      14.897  10.000   6.024  0.00  0.00    -0.310 N 
ATOM     13  C   UNL     1      17.103  10.800   4.997  0.00  0.00    +0.027 C 
ATOM     14  C   UNL     1      16.812   8.424   5.577  0.00  0.00    +0.054 C 
ATOM     15  C   UNL     1      17.719   9.638   5.769  0.00  0.00    +0.018 C 
ATOM     16  C   UNL     1      16.994  10.453   3.501  0.00  0.00    +0.113 C 
ATOM     17  C   UNL     1      15.737  11.133   5.613  0.00  0.00    +0.130 C 
ATOM     18  C   UNL     1      16.749   8.060   4.080  0.00  0.00    +0.117 C 
ATOM     19  C   UNL     1      15.413   8.698   6.095  0.00  0.00    +0.027 A 
ATOM     20  C   UNL     1      14.663   7.693   6.582  0.00  0.00    +0.024 A 
ATOM     21  C   UNL     1      13.583  10.303   6.438  0.00  0.00    +0.274 A 
ATOM     22  C   UNL     1      15.207   9.170   2.377  0.00  0.00    +0.247 C 
ATOM     23  C   UNL     1      12.797   9.148   6.942  0.00  0.00    +0.112 A 
ATOM     24  C   UNL     1      13.312   7.921   7.019  0.00  0.00    +0.031 A 
ENDROOT
BRANCH  22  25
ATOM     25  C   UNL     1      14.479   7.906   2.217  0.00  0.00    +0.037 A 
ATOM     26  C   UNL     1      14.883   6.993   1.247  0.00  0.00    +0.016 A 
ATOM     27  C   UNL     1      13.387   7.626   3.035  0.00  0.00    +0.016 A 
ATOM     29  C   UNL     1      14.191   5.791   1.095  0.00  0.00    +0.046 A 
ATOM     30  C   UNL     1      12.696   6.424   2.883  0.00  0.00    +0.046 A 
ATOM     31  C   UNL     1      13.097   5.507   1.911  0.00  0.00    +0.120 A 
BRANCH  31   9
ATOM      9  O   UNL     1      12.424   4.333   1.765  0.00  0.00    -0.495 OA
ATOM     38  C   UNL     1      13.201   3.171   1.478  0.00  0.00    +0.277 C 
ENDBRANCH  31   9
ENDBRANCH  22  25
BRANCH  23  12
ATOM     12  N   UNL     1      11.469   9.328   7.368  0.00  0.00    -0.211 N 
ATOM     39  H   UNL     1      11.301   8.958   8.314  0.00  0.00    +0.174 HD
BRANCH  12   1
ATOM      1  S   UNL     1      10.247   8.984   6.248  0.00  0.00    +0.073 S 
ATOM      7  O   UNL     1       9.017   9.638   6.651  0.00  0.00    -0.150 OA
ATOM      8  O   UNL     1      10.758   9.155   4.900  0.00  0.00    -0.150 OA
BRANCH   1  28
ATOM     28  C   UNL     1      10.035   7.248   6.515  0.00  0.00    +0.109 A 
ATOM     32  C   UNL     1       9.811   6.786   7.800  0.00  0.00    +0.041 A 
ATOM     33  C   UNL     1      10.095   6.388   5.433  0.00  0.00    +0.029 A 
ATOM     34  C   UNL     1       9.644   5.417   8.009  0.00  0.00    +0.057 A 
ATOM     35  C   UNL     1       9.928   5.020   5.643  0.00  0.00    +0.002 A 
ATOM     36  C   UNL     1       9.703   4.534   6.931  0.00  0.00    +0.012 A 
BRANCH  34  37
ATOM      2  F   UNL     1      10.466   5.066  10.228  0.00  0.00    -0.166 F 
ATOM      3  F   UNL     1       8.350   5.495  10.019  0.00  0.00    -0.166 F 
ATOM      4  F   UNL     1       9.131   3.560   9.403  0.00  0.00    -0.166 F 
ATOM     37  C   UNL     1       9.403   4.898   9.386  0.00  0.00    +0.417 C 
ENDBRANCH  34  37
ENDBRANCH   1  28
ENDBRANCH  12   1
ENDBRANCH  23  12
TORSDOF 6
ENDMDL
MODEL 2
REMARK VINA RESULT:      -7.1     25.090     28.161
REMARK  Name = 7113909
REMARK  7 active torsions:
REMARK  status: ('A' for Active; 'I' for Inactive)
REMARK    1  A    between atoms: S_1  and  N_12
REMARK    2  A    between atoms: S_1  and  C_28
REMARK    3  A    between atoms: O_9  and  C_31
REMARK    4  A    between atoms: O_9  and  C_38
REMARK    5  A    between atoms: N_12  and  C_23
REMARK    6  A    between atoms: C_22  and  C_25
REMARK    7  A    between atoms: C_34  and  C_37
REMARK                            x       y       z     vdW  Elec       q    Type
REMARK                         _______ _______ _______ _____ _____    ______ ____
ROOT
ATOM      5  O   UNL     1      -4.294 -10.768  16.707  0.00  0.00    -0.266 OA
ATOM      6  O   UNL     1      -1.679  -9.936  12.313  0.00  0.00    -0.270 OA
ATOM     10  N   UNL     1      -2.797 -11.980  12.096  0.00  0.00    -0.297 N 
ATOM     11  N   UNL     1      -4.422 -12.143  14.815  0.00  0.00    -0.310 N 
ATOM     13  C   UNL     1      -2.460 -13.564  13.986  0.00  0.00    +0.027 C 
ATOM     14  C   UNL     1      -4.587 -13.573  12.746  0.00  0.00    +0.054 C 
ATOM     15  C   UNL     1      -3.543 -14.469  13.409  0.00  0.00    +0.018 C 
ATOM     16  C   UNL     1      -1.807 -12.729  12.869  0.00  0.00    +0.113 C 
ATOM     17  C   UNL     1      -3.081 -12.683  15.077  0.00  0.00    +0.130 C 
ATOM     18  C   UNL     1      -3.931 -12.777  11.601  0.00  0.00    +0.117 C 
ATOM     19  C   UNL     1      -5.201 -12.614  13.748  0.00  0.00    +0.027 A 
ATOM     20  C   UNL     1      -6.469 -12.191  13.591  0.00  0.00    +0.024 A 
ATOM     21  C   UNL     1      -4.921 -11.206  15.744  0.00  0.00    +0.274 A 
ATOM     22  C   UNL     1      -2.623 -10.607  11.901  0.00  0.00    +0.247 C 
ATOM     23  C   UNL     1      -6.317 -10.759  15.503  0.00  0.00    +0.112 A 
ATOM     24  C   UNL     1      -7.048 -11.234  14.494  0.00  0.00    +0.031 A 
ENDROOT
BRANCH  22  25
ATOM     25  C   UNL     1      -3.661  -9.882  11.159  0.00  0.00    +0.037 A 
ATOM     26  C   UNL     1      -3.446  -9.537   9.827  0.00  0.00    +0.016 A 
ATOM     27  C   UNL     1      -4.855  -9.542  11.790  0.00  0.00    +0.016 A 
ATOM     29  C   UNL     1      -4.433  -8.848   9.122  0.00  0.00    +0.046 A 
ATOM     30  C   UNL     1      -5.841  -8.855  11.084  0.00  0.00    +0.046 A 
ATOM     31  C   UNL     1      -5.630  -8.506   9.749  0.00  0.00    +0.120 A 
BRANCH  31   9
ATOM      9  O   UNL     1      -6.593  -7.836   9.060  0.00  0.00    -0.495 OA
ATOM     38  C   UNL     1      -7.939  -8.281   9.227  0.00  0.00    +0.277 C 
ENDBRANCH  31   9
ENDBRANCH  22  25
BRANCH  23  12
ATOM     12  N   UNL     1      -6.915  -9.816  16.357  0.00  0.00    -0.211 N 
ATOM     39  H   UNL     1      -6.329  -8.982  16.503  0.00  0.00    +0.174 HD
BRANCH  12   1
ATOM      1  S   UNL     1      -7.659 -10.408  17.758  0.00  0.00    +0.073 S 
ATOM      7  O   UNL     1      -7.876 -11.836  17.630  0.00  0.00    -0.150 OA
ATOM      8  O   UNL     1      -6.991  -9.872  18.929  0.00  0.00    -0.150 OA
BRANCH   1  28
ATOM     28  C   UNL     1      -9.241  -9.622  17.647  0.00  0.00    +0.109 A 
ATOM     32  C   UNL     1      -9.385  -8.508  16.839  0.00  0.00    +0.041 A 
ATOM     33  C   UNL     1     -10.301 -10.139  18.370  0.00  0.00    +0.029 A 
ATOM     34  C   UNL     1     -10.633  -7.889  16.754  0.00  0.00    +0.057 A 
ATOM     35  C   UNL     1     -11.548  -9.519  18.283  0.00  0.00    +0.002 A 
ATOM     36  C   UNL     1     -11.713  -8.395  17.476  0.00  0.00    +0.012 A 
BRANCH  34  37
ATOM      2  F   UNL     1      -9.632  -6.148  15.455  0.00  0.00    -0.166 F 
ATOM      3  F   UNL     1     -11.528  -6.930  14.754  0.00  0.00    -0.166 F 
ATOM      4  F   UNL     1     -11.463  -5.673  16.528  0.00  0.00    -0.166 F 
ATOM     37  C   UNL     1     -10.809  -6.687  15.889  0.00  0.00    +0.417 C 
ENDBRANCH  34  37
ENDBRANCH   1  28
ENDBRANCH  12   1
ENDBRANCH  23  12
TORSDOF 6
ENDMDL
MODEL 3
REMARK VINA RESULT:      -7.0     25.621     29.371
REMARK  Name = 7113909
REMARK  7 active torsions:
REMARK  status: ('A' for Active; 'I' for Inactive)
REMARK    1  A    between atoms: S_1  and  N_12
REMARK    2  A    between atoms: S_1  and  C_28
REMARK    3  A    between atoms: O_9  and  C_31
REMARK    4  A    between atoms: O_9  and  C_38
REMARK    5  A    between atoms: N_12  and  C_23
REMARK    6  A    between atoms: C_22  and  C_25
REMARK    7  A    between atoms: C_34  and  C_37
REMARK                            x       y       z     vdW  Elec       q    Type
REMARK                         _______ _______ _______ _____ _____    ______ ____
ROOT
ATOM      5  O   UNL     1      -5.966 -13.481  14.347  0.00  0.00    -0.266 OA
ATOM      6  O   UNL     1      -9.567 -12.834  18.015  0.00  0.00    -0.270 OA
ATOM     10  N   UNL     1      -7.717 -11.526  18.600  0.00  0.00    -0.297 N 
ATOM     11  N   UNL     1      -5.775 -11.977  16.133  0.00  0.00    -0.310 N 
ATOM     13  C   UNL     1      -5.536 -12.724  18.570  0.00  0.00    +0.027 C 
ATOM     14  C   UNL     1      -5.621 -10.324  18.029  0.00  0.00    +0.054 C 
ATOM     15  C   UNL     1      -4.813 -11.396  18.758  0.00  0.00    +0.018 C 
ATOM     16  C   UNL     1      -6.959 -12.649  19.152  0.00  0.00    +0.113 C 
ATOM     17  C   UNL     1      -5.540 -13.077  17.077  0.00  0.00    +0.130 C 
ATOM     18  C   UNL     1      -7.028 -10.227  18.651  0.00  0.00    +0.117 C 
ATOM     19  C   UNL     1      -5.737 -10.638  16.549  0.00  0.00    +0.027 A 
ATOM     20  C   UNL     1      -5.841  -9.641  15.652  0.00  0.00    +0.024 A 
ATOM     21  C   UNL     1      -5.940 -12.329  14.776  0.00  0.00    +0.274 A 
ATOM     22  C   UNL     1      -8.987 -11.752  18.061  0.00  0.00    +0.247 C 
ATOM     23  C   UNL     1      -6.074 -11.186  13.838  0.00  0.00    +0.112 A 
ATOM     24  C   UNL     1      -6.016  -9.920  14.252  0.00  0.00    +0.031 A 
ENDROOT
BRANCH  22  25
ATOM     25  C   UNL     1      -9.697 -10.609  17.476  0.00  0.00    +0.037 A 
ATOM     26  C   UNL     1      -9.482 -10.269  16.143  0.00  0.00    +0.016 A 
ATOM     27  C   UNL     1     -10.584  -9.871  18.256  0.00  0.00    +0.016 A 
ATOM     29  C   UNL     1     -10.159  -9.183  15.587  0.00  0.00    +0.046 A 
ATOM     30  C   UNL     1     -11.260  -8.786  17.700  0.00  0.00    +0.046 A 
ATOM     31  C   UNL     1     -11.047  -8.441  16.365  0.00  0.00    +0.120 A 
BRANCH  31   9
ATOM      9  O   UNL     1     -11.708  -7.383  15.821  0.00  0.00    -0.495 OA
ATOM     38  C   UNL     1     -11.003  -6.145  15.747  0.00  0.00    +0.277 C 
ENDBRANCH  31   9
ENDBRANCH  22  25
BRANCH  23  12
ATOM     12  N   UNL     1      -6.257 -11.417  12.464  0.00  0.00    -0.211 N 
ATOM     39  H   UNL     1      -6.721 -12.315  12.269  0.00  0.00    +0.174 HD
BRANCH  12   1
ATOM      1  S   UNL     1      -4.955 -11.060  11.442  0.00  0.00    +0.073 S 
ATOM      7  O   UNL     1      -5.017 -11.897  10.260  0.00  0.00    -0.150 OA
ATOM      8  O   UNL     1      -4.816  -9.621  11.312  0.00  0.00    -0.150 OA
BRANCH   1  28
ATOM     28  C   UNL     1      -3.600 -11.634  12.424  0.00  0.00    +0.109 A 
ATOM     32  C   UNL     1      -3.039 -10.785  13.361  0.00  0.00    +0.041 A 
ATOM     33  C   UNL     1      -3.129 -12.921  12.235  0.00  0.00    +0.029 A 
ATOM     34  C   UNL     1      -1.969 -11.238  14.134  0.00  0.00    +0.057 A 
ATOM     35  C   UNL     1      -2.060 -13.374  13.009  0.00  0.00    +0.002 A 
ATOM     36  C   UNL     1      -1.480 -12.532  13.958  0.00  0.00    +0.012 A 
BRANCH  34  37
ATOM      2  F   UNL     1      -2.211  -9.956  16.140  0.00  0.00    -0.166 F 
ATOM      3  F   UNL     1      -0.287 -10.896  15.799  0.00  0.00    -0.166 F 
ATOM      4  F   UNL     1      -0.881  -9.178  14.605  0.00  0.00    -0.166 F 
ATOM     37  C   UNL     1      -1.350 -10.338  15.150  0.00  0.00    +0.417 C 
ENDBRANCH  34  37
ENDBRANCH   1  28
ENDBRANCH  12   1
ENDBRANCH  23  12
TORSDOF 6
ENDMDL
MODEL 4
REMARK VINA RESULT:      -6.9      5.078      8.412
REMARK  Name = 7113909
REMARK  7 active torsions:
REMARK  status: ('A' for Active; 'I' for Inactive)
REMARK    1  A    between atoms: S_1  and  N_12
REMARK    2  A    between atoms: S_1  and  C_28
REMARK    3  A    between atoms: O_9  and  C_31
REMARK    4  A    between atoms: O_9  and  C_38
REMARK    5  A    between atoms: N_12  and  C_23
REMARK    6  A    between atoms: C_22  and  C_25
REMARK    7  A    between atoms: C_34  and  C_37
REMARK                            x       y       z     vdW  Elec       q    Type
REMARK                         _______ _______ _______ _____ _____    ______ ____
ROOT
ATOM      5  O   UNL     1      13.346   7.982   2.089  0.00  0.00    -0.266 OA
ATOM      6  O   UNL     1      10.890   9.890   6.232  0.00  0.00    -0.270 OA
ATOM     10  N   UNL     1       9.264   9.114   4.739  0.00  0.00    -0.297 N 
ATOM     11  N   UNL     1      11.030   7.868   2.418  0.00  0.00    -0.310 N 
ATOM     13  C   UNL     1       9.513   9.931   2.401  0.00  0.00    +0.027 C 
ATOM     14  C   UNL     1       8.548   7.705   2.824  0.00  0.00    +0.054 C 
ATOM     15  C   UNL     1       8.430   8.956   1.954  0.00  0.00    +0.018 C 
ATOM     16  C   UNL     1       9.325  10.299   3.884  0.00  0.00    +0.113 C 
ATOM     17  C   UNL     1      10.886   9.301   2.132  0.00  0.00    +0.130 C 
ATOM     18  C   UNL     1       8.312   8.081   4.300  0.00  0.00    +0.117 C 
ATOM     19  C   UNL     1       9.912   7.060   2.672  0.00  0.00    +0.027 A 
ATOM     20  C   UNL     1      10.051   5.729   2.819  0.00  0.00    +0.024 A 
ATOM     21  C   UNL     1      12.331   7.330   2.325  0.00  0.00    +0.274 A 
ATOM     22  C   UNL     1      10.093   9.031   5.861  0.00  0.00    +0.247 C 
ATOM     23  C   UNL     1      12.423   5.860   2.520  0.00  0.00    +0.112 A 
ATOM     24  C   UNL     1      11.345   5.107   2.742  0.00  0.00    +0.031 A 
ENDROOT
BRANCH  22  25
ATOM     25  C   UNL     1      10.035   7.807   6.668  0.00  0.00    +0.037 A 
ATOM     26  C   UNL     1      10.915   6.761   6.404  0.00  0.00    +0.016 A 
ATOM     27  C   UNL     1       9.101   7.698   7.696  0.00  0.00    +0.016 A 
ATOM     29  C   UNL     1      10.860   5.598   7.173  0.00  0.00    +0.046 A 
ATOM     30  C   UNL     1       9.048   6.536   8.464  0.00  0.00    +0.046 A 
ATOM     31  C   UNL     1       9.927   5.485   8.202  0.00  0.00    +0.120 A 
BRANCH  31   9
ATOM      9  O   UNL     1       9.876   4.351   8.953  0.00  0.00    -0.495 OA
ATOM     38  C   UNL     1       9.046   4.379  10.114  0.00  0.00    +0.277 C 
ENDBRANCH  31   9
ENDBRANCH  22  25
BRANCH  23  12
ATOM     12  N   UNL     1      13.671   5.216   2.463  0.00  0.00    -0.211 N 
ATOM     39  H   UNL     1      14.436   5.852   2.200  0.00  0.00    +0.174 HD
BRANCH  12   1
ATOM      1  S   UNL     1      13.722   3.702   1.709  0.00  0.00    +0.073 S 
ATOM      7  O   UNL     1      15.050   3.134   1.842  0.00  0.00    -0.150 OA
ATOM      8  O   UNL     1      12.555   2.927   2.089  0.00  0.00    -0.150 OA
BRANCH   1  28
ATOM     28  C   UNL     1      13.516   4.170   0.015  0.00  0.00    +0.109 A 
ATOM     32  C   UNL     1      12.814   3.334  -0.835  0.00  0.00    +0.041 A 
ATOM     33  C   UNL     1      14.059   5.364  -0.424  0.00  0.00    +0.029 A 
ATOM     34  C   UNL     1      12.652   3.705  -2.170  0.00  0.00    +0.057 A 
ATOM     35  C   UNL     1      13.897   5.734  -1.759  0.00  0.00    +0.002 A 
ATOM     36  C   UNL     1      13.194   4.904  -2.632  0.00  0.00    +0.012 A 
BRANCH  34  37
ATOM      2  F   UNL     1      10.789   3.404  -3.639  0.00  0.00    -0.166 F 
ATOM      3  F   UNL     1      12.636   2.403  -4.176  0.00  0.00    -0.166 F 
ATOM      4  F   UNL     1      11.456   1.676  -2.499  0.00  0.00    -0.166 F 
ATOM     37  C   UNL     1      11.900   2.817  -3.103  0.00  0.00    +0.417 C 
ENDBRANCH  34  37
ENDBRANCH   1  28
ENDBRANCH  12   1
ENDBRANCH  23  12
TORSDOF 6
ENDMDL
MODEL 5
REMARK VINA RESULT:      -6.9     24.700     29.858
REMARK  Name = 7113909
REMARK  7 active torsions:
REMARK  status: ('A' for Active; 'I' for Inactive)
REMARK    1  A    between atoms: S_1  and  N_12
REMARK    2  A    between atoms: S_1  and  C_28
REMARK    3  A    between atoms: O_9  and  C_31
REMARK    4  A    between atoms: O_9  and  C_38
REMARK    5  A    between atoms: N_12  and  C_23
REMARK    6  A    between atoms: C_22  and  C_25
REMARK    7  A    between atoms: C_34  and  C_37
REMARK                            x       y       z     vdW  Elec       q    Type
REMARK                         _______ _______ _______ _____ _____    ______ ____
ROOT
ATOM      5  O   UNL     1      -6.520 -13.269  15.203  0.00  0.00    -0.266 OA
ATOM      6  O   UNL     1     -11.420 -12.141  16.454  0.00  0.00    -0.270 OA
ATOM     10  N   UNL     1     -10.087 -11.676  18.320  0.00  0.00    -0.297 N 
ATOM     11  N   UNL     1      -7.173 -12.285  17.227  0.00  0.00    -0.310 N 
ATOM     13  C   UNL     1      -8.554 -13.516  18.997  0.00  0.00    +0.027 C 
ATOM     14  C   UNL     1      -7.894 -11.174  19.371  0.00  0.00    +0.054 C 
ATOM     15  C   UNL     1      -7.871 -12.574  19.981  0.00  0.00    +0.018 C 
ATOM     16  C   UNL     1     -10.007 -13.072  18.748  0.00  0.00    +0.113 C 
ATOM     17  C   UNL     1      -7.733 -13.557  17.702  0.00  0.00    +0.130 C 
ATOM     18  C   UNL     1      -9.355 -10.723  19.169  0.00  0.00    +0.117 C 
ATOM     19  C   UNL     1      -7.163 -11.144  18.042  0.00  0.00    +0.027 A 
ATOM     20  C   UNL     1      -6.544 -10.021  17.635  0.00  0.00    +0.024 A 
ATOM     21  C   UNL     1      -6.559 -12.298  15.957  0.00  0.00    +0.274 A 
ATOM     22  C   UNL     1     -10.806 -11.350  17.167  0.00  0.00    +0.247 C 
ATOM     23  C   UNL     1      -5.915 -11.021  15.554  0.00  0.00    +0.112 A 
ATOM     24  C   UNL     1      -5.900  -9.953  16.351  0.00  0.00    +0.031 A 
ENDROOT
BRANCH  22  25
ATOM     25  C   UNL     1     -10.826  -9.945  16.744  0.00  0.00    +0.037 A 
ATOM     26  C   UNL     1      -9.847  -9.469  15.876  0.00  0.00    +0.016 A 
ATOM     27  C   UNL     1     -11.824  -9.094  17.212  0.00  0.00    +0.016 A 
ATOM     29  C   UNL     1      -9.866  -8.134  15.474  0.00  0.00    +0.046 A 
ATOM     30  C   UNL     1     -11.844  -7.759  16.809  0.00  0.00    +0.046 A 
ATOM     31  C   UNL     1     -10.863  -7.278  15.940  0.00  0.00    +0.120 A 
BRANCH  31   9
ATOM      9  O   UNL     1     -10.884  -5.976  15.546  0.00  0.00    -0.495 OA
ATOM     38  C   UNL     1     -11.768  -5.635  14.479  0.00  0.00    +0.277 C 
ENDBRANCH  31   9
ENDBRANCH  22  25
BRANCH  23  12
ATOM     12  N   UNL     1      -5.284 -10.912  14.302  0.00  0.00    -0.211 N 
ATOM     39  H   UNL     1      -5.874 -11.247  13.527  0.00  0.00    +0.174 HD
BRANCH  12   1
ATOM      1  S   UNL     1      -3.664 -11.393  14.211  0.00  0.00    +0.073 S 
ATOM      7  O   UNL     1      -2.926 -10.839  15.331  0.00  0.00    -0.150 OA
ATOM      8  O   UNL     1      -3.591 -12.813  13.920  0.00  0.00    -0.150 OA
BRANCH   1  28
ATOM     28  C   UNL     1      -3.144 -10.528  12.758  0.00  0.00    +0.109 A 
ATOM     32  C   UNL     1      -4.095 -10.125  11.837  0.00  0.00    +0.041 A 
ATOM     33  C   UNL     1      -1.797 -10.272  12.571  0.00  0.00    +0.029 A 
ATOM     34  C   UNL     1      -3.684  -9.444  10.691  0.00  0.00    +0.057 A 
ATOM     35  C   UNL     1      -1.388  -9.591  11.425  0.00  0.00    +0.002 A 
ATOM     36  C   UNL     1      -2.331  -9.178  10.485  0.00  0.00    +0.012 A 
BRANCH  34  37
ATOM      2  F   UNL     1      -5.288  -7.810   9.996  0.00  0.00    -0.166 F 
ATOM      3  F   UNL     1      -4.178  -8.825   8.434  0.00  0.00    -0.166 F 
ATOM      4  F   UNL     1      -5.716  -9.894   9.540  0.00  0.00    -0.166 F 
ATOM     37  C   UNL     1      -4.694  -9.001   9.686  0.00  0.00    +0.417 C 
ENDBRANCH  34  37
ENDBRANCH   1  28
ENDBRANCH  12   1
ENDBRANCH  23  12
TORSDOF 6
ENDMDL
MODEL 6
REMARK VINA RESULT:      -6.9     25.039     28.933
REMARK  Name = 7113909
REMARK  7 active torsions:
REMARK  status: ('A' for Active; 'I' for Inactive)
REMARK    1  A    between atoms: S_1  and  N_12
REMARK    2  A    between atoms: S_1  and  C_28
REMARK    3  A    between atoms: O_9  and  C_31
REMARK    4  A    between atoms: O_9  and  C_38
REMARK    5  A    between atoms: N_12  and  C_23
REMARK    6  A    between atoms: C_22  and  C_25
REMARK    7  A    between atoms: C_34  and  C_37
REMARK                            x       y       z     vdW  Elec       q    Type
REMARK                         _______ _______ _______ _____ _____    ______ ____
ROOT
ATOM      5  O   UNL     1      -4.459 -13.964  16.610  0.00  0.00    -0.266 OA
ATOM      6  O   UNL     1      -9.454 -13.182  15.484  0.00  0.00    -0.270 OA
ATOM     10  N   UNL     1      -8.731 -11.378  16.787  0.00  0.00    -0.297 N 
ATOM     11  N   UNL     1      -5.651 -12.028  17.175  0.00  0.00    -0.310 N 
ATOM     13  C   UNL     1      -7.554 -12.009  18.888  0.00  0.00    +0.027 C 
ATOM     14  C   UNL     1      -6.940  -9.931  17.718  0.00  0.00    +0.054 C 
ATOM     15  C   UNL     1      -7.162 -10.551  19.096  0.00  0.00    +0.018 C 
ATOM     16  C   UNL     1      -8.843 -12.105  18.052  0.00  0.00    +0.113 C 
ATOM     17  C   UNL     1      -6.382 -12.746  18.227  0.00  0.00    +0.130 C 
ATOM     18  C   UNL     1      -8.251  -9.993  16.908  0.00  0.00    +0.117 C 
ATOM     19  C   UNL     1      -5.840 -10.655  16.964  0.00  0.00    +0.027 A 
ATOM     20  C   UNL     1      -5.080  -9.990  16.073  0.00  0.00    +0.024 A 
ATOM     21  C   UNL     1      -4.682 -12.764  16.460  0.00  0.00    +0.274 A 
ATOM     22  C   UNL     1      -9.053 -12.025  15.592  0.00  0.00    +0.247 C 
ATOM     23  C   UNL     1      -3.893 -11.981  15.475  0.00  0.00    +0.112 A 
ATOM     24  C   UNL     1      -4.076 -10.672  15.303  0.00  0.00    +0.031 A 
ENDROOT
BRANCH  22  25
ATOM     25  C   UNL     1      -8.885 -11.278  14.340  0.00  0.00    +0.037 A 
ATOM     26  C   UNL     1      -7.646 -11.262  13.705  0.00  0.00    +0.016 A 
ATOM     27  C   UNL     1      -9.964 -10.589  13.793  0.00  0.00    +0.016 A 
ATOM     29  C   UNL     1      -7.486 -10.552  12.514  0.00  0.00    +0.046 A 
ATOM     30  C   UNL     1      -9.804  -9.881  12.602  0.00  0.00    +0.046 A 
ATOM     31  C   UNL     1      -8.564  -9.861  11.963  0.00  0.00    +0.120 A 
BRANCH  31   9
ATOM      9  O   UNL     1      -8.409  -9.171  10.801  0.00  0.00    -0.495 OA
ATOM     38  C   UNL     1      -9.190  -9.596   9.684  0.00  0.00    +0.277 C 
ENDBRANCH  31   9
ENDBRANCH  22  25
BRANCH  23  12
ATOM     12  N   UNL     1      -2.909 -12.613  14.695  0.00  0.00    -0.211 N 
ATOM     39  H   UNL     1      -2.001 -12.129  14.730  0.00  0.00    +0.174 HD
BRANCH  12   1
ATOM      1  S   UNL     1      -3.369 -13.138  13.153  0.00  0.00    +0.073 S 
ATOM      7  O   UNL     1      -2.450 -14.161  12.691  0.00  0.00    -0.150 OA
ATOM      8  O   UNL     1      -4.800 -13.376  13.124  0.00  0.00    -0.150 OA
BRANCH   1  28
ATOM     28  C   UNL     1      -3.057 -11.680  12.201  0.00  0.00    +0.109 A 
ATOM     32  C   UNL     1      -4.046 -11.197  11.363  0.00  0.00    +0.041 A 
ATOM     33  C   UNL     1      -1.830 -11.051  12.315  0.00  0.00    +0.029 A 
ATOM     34  C   UNL     1      -3.799 -10.047  10.613  0.00  0.00    +0.057 A 
ATOM     35  C   UNL     1      -1.583  -9.902  11.565  0.00  0.00    +0.002 A 
ATOM     36  C   UNL     1      -2.568  -9.400  10.714  0.00  0.00    +0.012 A 
BRANCH  34  37
ATOM      2  F   UNL     1      -4.385  -9.171   8.465  0.00  0.00    -0.166 F 
ATOM      3  F   UNL     1      -5.872 -10.388   9.470  0.00  0.00    -0.166 F 
ATOM      4  F   UNL     1      -5.444  -8.382  10.194  0.00  0.00    -0.166 F 
ATOM     37  C   UNL     1      -4.852  -9.511   9.704  0.00  0.00    +0.417 C 
ENDBRANCH  34  37
ENDBRANCH   1  28
ENDBRANCH  12   1
ENDBRANCH  23  12
TORSDOF 6
ENDMDL
MODEL 7
REMARK VINA RESULT:      -6.9     13.374     16.214
REMARK  Name = 7113909
REMARK  7 active torsions:
REMARK  status: ('A' for Active; 'I' for Inactive)
REMARK    1  A    between atoms: S_1  and  N_12
REMARK    2  A    between atoms: S_1  and  C_28
REMARK    3  A    between atoms: O_9  and  C_31
REMARK    4  A    between atoms: O_9  and  C_38
REMARK    5  A    between atoms: N_12  and  C_23
REMARK    6  A    between atoms: C_22  and  C_25
REMARK    7  A    between atoms: C_34  and  C_37
REMARK                            x       y       z     vdW  Elec       q    Type
REMARK                         _______ _______ _______ _____ _____    ______ ____
ROOT
ATOM      5  O   UNL     1      15.196   9.170  22.910  0.00  0.00    -0.266 OA
ATOM      6  O   UNL     1      14.898   6.998  18.216  0.00  0.00    -0.270 OA
ATOM     10  N   UNL     1      12.749   7.713  18.804  0.00  0.00    -0.297 N 
ATOM     11  N   UNL     1      13.258   9.131  21.595  0.00  0.00    -0.310 N 
ATOM     13  C   UNL     1      11.980   6.978  21.055  0.00  0.00    +0.027 C 
ATOM     14  C   UNL     1      11.202   9.127  20.137  0.00  0.00    +0.054 C 
ATOM     15  C   UNL     1      10.769   7.896  20.931  0.00  0.00    +0.018 C 
ATOM     16  C   UNL     1      12.480   6.558  19.660  0.00  0.00    +0.113 C 
ATOM     17  C   UNL     1      13.066   7.699  21.864  0.00  0.00    +0.130 C 
ATOM     18  C   UNL     1      11.657   8.697  18.728  0.00  0.00    +0.117 C 
ATOM     19  C   UNL     1      12.331   9.860  20.836  0.00  0.00    +0.027 A 
ATOM     20  C   UNL     1      12.462  11.192  20.696  0.00  0.00    +0.024 A 
ATOM     21  C   UNL     1      14.360   9.751  22.220  0.00  0.00    +0.274 A 
ATOM     22  C   UNL     1      13.982   7.816  18.156  0.00  0.00    +0.247 C 
ATOM     23  C   UNL     1      14.464  11.217  22.008  0.00  0.00    +0.112 A 
ATOM     24  C   UNL     1      13.562  11.895  21.298  0.00  0.00    +0.031 A 
ENDROOT
BRANCH  22  25
ATOM     25  C   UNL     1      14.232   9.011  17.342  0.00  0.00    +0.037 A 
ATOM     26  C   UNL     1      14.007   8.973  15.968  0.00  0.00    +0.016 A 
ATOM     27  C   UNL     1      14.692  10.178  17.946  0.00  0.00    +0.016 A 
ATOM     29  C   UNL     1      14.244  10.110  15.195  0.00  0.00    +0.046 A 
ATOM     30  C   UNL     1      14.928  11.314  17.173  0.00  0.00    +0.046 A 
ATOM     31  C   UNL     1      14.705  11.280  15.796  0.00  0.00    +0.120 A 
BRANCH  31   9
ATOM      9  O   UNL     1      14.933  12.389  15.042  0.00  0.00    -0.495 OA
ATOM     38  C   UNL     1      14.743  12.267  13.633  0.00  0.00    +0.277 C 
ENDBRANCH  31   9
ENDBRANCH  22  25
BRANCH  23  12
ATOM     12  N   UNL     1      15.530  11.939  22.572  0.00  0.00    -0.211 N 
ATOM     39  H   UNL     1      15.214  12.723  23.160  0.00  0.00    +0.174 HD
BRANCH  12   1
ATOM      1  S   UNL     1      16.837  12.301  21.558  0.00  0.00    +0.073 S 
ATOM      7  O   UNL     1      16.438  12.144  20.172  0.00  0.00    -0.150 OA
ATOM      8  O   UNL     1      17.473  13.529  22.001  0.00  0.00    -0.150 OA
BRANCH   1  28
ATOM     28  C   UNL     1      17.934  10.969  21.946  0.00  0.00    +0.109 A 
ATOM     32  C   UNL     1      17.767   9.751  21.311  0.00  0.00    +0.041 A 
ATOM     33  C   UNL     1      18.937  11.172  22.877  0.00  0.00    +0.029 A 
ATOM     34  C   UNL     1      18.633   8.701  21.618  0.00  0.00    +0.057 A 
ATOM     35  C   UNL     1      19.802  10.122  23.183  0.00  0.00    +0.002 A 
ATOM     36  C   UNL     1      19.650   8.887  22.554  0.00  0.00    +0.012 A 
BRANCH  34  37
ATOM      2  F   UNL     1      17.507   7.376  19.976  0.00  0.00    -0.166 F 
ATOM      3  F   UNL     1      19.602   6.940  20.322  0.00  0.00    -0.166 F 
ATOM      4  F   UNL     1      18.119   6.388  21.814  0.00  0.00    -0.166 F 
ATOM     37  C   UNL     1      18.470   7.380  20.945  0.00  0.00    +0.417 C 
ENDBRANCH  34  37
ENDBRANCH   1  28
ENDBRANCH  12   1
ENDBRANCH  23  12
TORSDOF 6
ENDMDL
MODEL 8
REMARK VINA RESULT:      -6.9      4.077      8.442
REMARK  Name = 7113909
REMARK  7 active torsions:
REMARK  status: ('A' for Active; 'I' for Inactive)
REMARK    1  A    between atoms: S_1  and  N_12
REMARK    2  A    between atoms: S_1  and  C_28
REMARK    3  A    between atoms: O_9  and  C_31
REMARK    4  A    between atoms: O_9  and  C_38
REMARK    5  A    between atoms: N_12  and  C_23
REMARK    6  A    between atoms: C_22  and  C_25
REMARK    7  A    between atoms: C_34  and  C_37
REMARK                            x       y       z     vdW  Elec       q    Type
REMARK                         _______ _______ _______ _____ _____    ______ ____
ROOT
ATOM      5  O   UNL     1      12.689   7.292   3.433  0.00  0.00    -0.266 OA
ATOM      6  O   UNL     1       8.814   9.876   5.702  0.00  0.00    -0.270 OA
ATOM     10  N   UNL     1       9.087   7.856   6.850  0.00  0.00    -0.297 N 
ATOM     11  N   UNL     1      11.592   6.584   5.378  0.00  0.00    -0.310 N 
ATOM     13  C   UNL     1       9.145   5.829   5.406  0.00  0.00    +0.027 C 
ATOM     14  C   UNL     1      10.436   5.875   7.502  0.00  0.00    +0.054 C 
ATOM     15  C   UNL     1       9.565   4.994   6.609  0.00  0.00    +0.018 C 
ATOM     16  C   UNL     1       8.352   7.067   5.861  0.00  0.00    +0.113 C 
ATOM     17  C   UNL     1      10.399   6.210   4.607  0.00  0.00    +0.130 C 
ATOM     18  C   UNL     1       9.615   7.087   7.988  0.00  0.00    +0.117 C 
ATOM     19  C   UNL     1      11.668   6.358   6.760  0.00  0.00    +0.027 A 
ATOM     20  C   UNL     1      12.809   6.602   7.430  0.00  0.00    +0.024 A 
ATOM     21  C   UNL     1      12.688   7.087   4.645  0.00  0.00    +0.274 A 
ATOM     22  C   UNL     1       9.252   9.228   6.650  0.00  0.00    +0.247 C 
ATOM     23  C   UNL     1      13.910   7.360   5.444  0.00  0.00    +0.112 A 
ATOM     24  C   UNL     1      13.968   7.120   6.754  0.00  0.00    +0.031 A 
ENDROOT
BRANCH  22  25
ATOM     25  C   UNL     1      10.034   9.977   7.641  0.00  0.00    +0.037 A 
ATOM     26  C   UNL     1      11.401  10.162   7.448  0.00  0.00    +0.016 A 
ATOM     27  C   UNL     1       9.406  10.500   8.769  0.00  0.00    +0.016 A 
ATOM     29  C   UNL     1      12.144  10.875   8.390  0.00  0.00    +0.046 A 
ATOM     30  C   UNL     1      10.149  11.212   9.709  0.00  0.00    +0.046 A 
ATOM     31  C   UNL     1      11.519  11.399   9.521  0.00  0.00    +0.120 A 
BRANCH  31   9
ATOM      9  O   UNL     1      12.243  12.096  10.437  0.00  0.00    -0.495 OA
ATOM     38  C   UNL     1      11.666  12.260  11.733  0.00  0.00    +0.277 C 
ENDBRANCH  31   9
ENDBRANCH  22  25
BRANCH  23  12
ATOM     12  N   UNL     1      15.060   7.877   4.823  0.00  0.00    -0.211 N 
ATOM     39  H   UNL     1      15.927   7.430   5.153  0.00  0.00    +0.174 HD
BRANCH  12   1
ATOM      1  S   UNL     1      15.155   9.559   4.654  0.00  0.00    +0.073 S 
ATOM      7  O   UNL     1      15.317   9.902   3.254  0.00  0.00    -0.150 OA
ATOM      8  O   UNL     1      14.113  10.188   5.444  0.00  0.00    -0.150 OA
BRANCH   1  28
ATOM     28  C   UNL     1      16.697   9.884   5.459  0.00  0.00    +0.109 A 
ATOM     32  C   UNL     1      17.738   8.985   5.311  0.00  0.00    +0.041 A 
ATOM     33  C   UNL     1      16.830  11.033   6.219  0.00  0.00    +0.029 A 
ATOM     34  C   UNL     1      18.953   9.242   5.947  0.00  0.00    +0.057 A 
ATOM     35  C   UNL     1      18.045  11.289   6.853  0.00  0.00    +0.002 A 
ATOM     36  C   UNL     1      19.106  10.394   6.718  0.00  0.00    +0.012 A 
BRANCH  34  37
ATOM      2  F   UNL     1      20.459   7.694   6.975  0.00  0.00    -0.166 F 
ATOM      3  F   UNL     1      19.823   7.250   4.950  0.00  0.00    -0.166 F 
ATOM      4  F   UNL     1      21.216   8.879   5.316  0.00  0.00    -0.166 F 
ATOM     37  C   UNL     1      20.087   8.285   5.801  0.00  0.00    +0.417 C 
ENDBRANCH  34  37
ENDBRANCH   1  28
ENDBRANCH  12   1
ENDBRANCH  23  12
TORSDOF 6
ENDMDL
MODEL 9
REMARK VINA RESULT:      -6.8     25.283     29.373
REMARK  Name = 7113909
REMARK  7 active torsions:
REMARK  status: ('A' for Active; 'I' for Inactive)
REMARK    1  A    between atoms: S_1  and  N_12
REMARK    2  A    between atoms: S_1  and  C_28
REMARK    3  A    between atoms: O_9  and  C_31
REMARK    4  A    between atoms: O_9  and  C_38
REMARK    5  A    between atoms: N_12  and  C_23
REMARK    6  A    between atoms: C_22  and  C_25
REMARK    7  A    between atoms: C_34  and  C_37
REMARK                            x       y       z     vdW  Elec       q    Type
REMARK                         _______ _______ _______ _____ _____    ______ ____
ROOT
ATOM      5  O   UNL     1      -6.125 -13.976  14.790  0.00  0.00    -0.266 OA
ATOM      6  O   UNL     1      -9.700 -12.193  18.089  0.00  0.00    -0.270 OA
ATOM     10  N   UNL     1      -7.668 -11.162  18.621  0.00  0.00    -0.297 N 
ATOM     11  N   UNL     1      -5.738 -12.291  16.372  0.00  0.00    -0.310 N 
ATOM     13  C   UNL     1      -5.745 -12.717  18.897  0.00  0.00    +0.027 C 
ATOM     14  C   UNL     1      -5.364 -10.440  18.041  0.00  0.00    +0.054 C 
ATOM     15  C   UNL     1      -4.799 -11.524  18.958  0.00  0.00    +0.018 C 
ATOM     16  C   UNL     1      -7.154 -12.311  19.365  0.00  0.00    +0.113 C 
ATOM     17  C   UNL     1      -5.750 -13.271  17.466  0.00  0.00    +0.130 C 
ATOM     18  C   UNL     1      -6.755 -10.010  18.548  0.00  0.00    +0.117 C 
ATOM     19  C   UNL     1      -5.472 -10.935  16.611  0.00  0.00    +0.027 A 
ATOM     20  C   UNL     1      -5.352 -10.072  15.585  0.00  0.00    +0.024 A 
ATOM     21  C   UNL     1      -5.906 -12.797  15.065  0.00  0.00    +0.274 A 
ATOM     22  C   UNL     1      -8.933 -11.234  18.032  0.00  0.00    +0.247 C 
ATOM     23  C   UNL     1      -5.787 -11.792  13.978  0.00  0.00    +0.112 A 
ATOM     24  C   UNL     1      -5.515 -10.511  14.226  0.00  0.00    +0.031 A 
ENDROOT
BRANCH  22  25
ATOM     25  C   UNL     1      -9.396 -10.078  17.255  0.00  0.00    +0.037 A 
ATOM     26  C   UNL     1     -10.146  -9.082  17.875  0.00  0.00    +0.016 A 
ATOM     27  C   UNL     1      -9.082  -9.982  15.901  0.00  0.00    +0.016 A 
ATOM     29  C   UNL     1     -10.584  -7.983  17.136  0.00  0.00    +0.046 A 
ATOM     30  C   UNL     1      -9.520  -8.883  15.163  0.00  0.00    +0.046 A 
ATOM     31  C   UNL     1     -10.273  -7.883  15.780  0.00  0.00    +0.120 A 
BRANCH  31   9
ATOM      9  O   UNL     1     -10.699  -6.810  15.061  0.00  0.00    -0.495 OA
ATOM     38  C   UNL     1     -11.712  -5.995  15.649  0.00  0.00    +0.277 C 
ENDBRANCH  31   9
ENDBRANCH  22  25
BRANCH  23  12
ATOM     12  N   UNL     1      -5.950 -12.179  12.637  0.00  0.00    -0.211 N 
ATOM     39  H   UNL     1      -6.730 -12.838  12.504  0.00  0.00    +0.174 HD
BRANCH  12   1
ATOM      1  S   UNL     1      -4.547 -12.564  11.770  0.00  0.00    +0.073 S 
ATOM      7  O   UNL     1      -3.408 -12.587  12.668  0.00  0.00    -0.150 OA
ATOM      8  O   UNL     1      -4.809 -13.691  10.893  0.00  0.00    -0.150 OA
BRANCH   1  28
ATOM     28  C   UNL     1      -4.386 -11.128  10.750  0.00  0.00    +0.109 A 
ATOM     32  C   UNL     1      -5.365 -10.854   9.811  0.00  0.00    +0.041 A 
ATOM     33  C   UNL     1      -3.285 -10.306  10.913  0.00  0.00    +0.029 A 
ATOM     34  C   UNL     1      -5.237  -9.722   9.007  0.00  0.00    +0.057 A 
ATOM     35  C   UNL     1      -3.158  -9.174  10.108  0.00  0.00    +0.002 A 
ATOM     36  C   UNL     1      -4.133  -8.882   9.155  0.00  0.00    +0.012 A 
BRANCH  34  37
ATOM      2  F   UNL     1      -5.811  -9.413   6.705  0.00  0.00    -0.166 F 
ATOM      3  F   UNL     1      -7.324 -10.290   7.987  0.00  0.00    -0.166 F 
ATOM      4  F   UNL     1      -6.839  -8.177   8.170  0.00  0.00    -0.166 F 
ATOM     37  C   UNL     1      -6.280  -9.409   7.988  0.00  0.00    +0.417 C 
ENDBRANCH  34  37
ENDBRANCH   1  28
ENDBRANCH  12   1
ENDBRANCH  23  12
TORSDOF 6
ENDMDL
MODEL 10
REMARK VINA RESULT:      -6.6     25.616     27.955
REMARK  Name = 7113909
REMARK  7 active torsions:
REMARK  status: ('A' for Active; 'I' for Inactive)
REMARK    1  A    between atoms: S_1  and  N_12
REMARK    2  A    between atoms: S_1  and  C_28
REMARK    3  A    between atoms: O_9  and  C_31
REMARK    4  A    between atoms: O_9  and  C_38
REMARK    5  A    between atoms: N_12  and  C_23
REMARK    6  A    between atoms: C_22  and  C_25
REMARK    7  A    between atoms: C_34  and  C_37
REMARK                            x       y       z     vdW  Elec       q    Type
REMARK                         _______ _______ _______ _____ _____    ______ ____
ROOT
ATOM      5  O   UNL     1      -8.845 -12.036  10.523  0.00  0.00    -0.266 OA
ATOM      6  O   UNL     1      -3.865 -13.422  10.178  0.00  0.00    -0.270 OA
ATOM     10  N   UNL     1      -4.011 -11.158   9.608  0.00  0.00    -0.297 N 
ATOM     11  N   UNL     1      -7.091 -10.552  10.067  0.00  0.00    -0.310 N 
ATOM     13  C   UNL     1      -5.735 -10.617   7.895  0.00  0.00    +0.027 C 
ATOM     14  C   UNL     1      -5.179  -8.966   9.636  0.00  0.00    +0.054 C 
ATOM     15  C   UNL     1      -5.515  -9.132   8.154  0.00  0.00    +0.018 C 
ATOM     16  C   UNL     1      -4.466 -11.417   8.242  0.00  0.00    +0.113 C 
ATOM     17  C   UNL     1      -6.951 -11.085   8.705  0.00  0.00    +0.130 C 
ATOM     18  C   UNL     1      -3.882  -9.735   9.959  0.00  0.00    +0.117 C 
ATOM     19  C   UNL     1      -6.308  -9.477  10.512  0.00  0.00    +0.027 A 
ATOM     20  C   UNL     1      -6.527  -8.928  11.721  0.00  0.00    +0.024 A 
ATOM     21  C   UNL     1      -8.116 -11.106  10.863  0.00  0.00    +0.274 A 
ATOM     22  C   UNL     1      -3.759 -12.232  10.465  0.00  0.00    +0.247 C 
ATOM     23  C   UNL     1      -8.293 -10.473  12.195  0.00  0.00    +0.112 A 
ATOM     24  C   UNL     1      -7.550  -9.440  12.592  0.00  0.00    +0.031 A 
ENDROOT
BRANCH  22  25
ATOM     25  C   UNL     1      -3.348 -11.931  11.841  0.00  0.00    +0.037 A 
ATOM     26  C   UNL     1      -4.221 -12.184  12.895  0.00  0.00    +0.016 A 
ATOM     27  C   UNL     1      -2.087 -11.394  12.086  0.00  0.00    +0.016 A 
ATOM     29  C   UNL     1      -3.830 -11.898  14.204  0.00  0.00    +0.046 A 
ATOM     30  C   UNL     1      -1.696 -11.109  13.394  0.00  0.00    +0.046 A 
ATOM     31  C   UNL     1      -2.568 -11.360  14.454  0.00  0.00    +0.120 A 
BRANCH  31   9
ATOM      9  O   UNL     1      -2.186 -11.084  15.730  0.00  0.00    -0.495 OA
ATOM     38  C   UNL     1      -0.943 -10.405  15.903  0.00  0.00    +0.277 C 
ENDBRANCH  31   9
ENDBRANCH  22  25
BRANCH  23  12
ATOM     12  N   UNL     1      -9.274 -10.952  13.080  0.00  0.00    -0.211 N 
ATOM     39  H   UNL     1      -9.851 -10.199  13.481  0.00  0.00    +0.174 HD
BRANCH  12   1
ATOM      1  S   UNL     1      -8.800 -12.142  14.186  0.00  0.00    +0.073 S 
ATOM      7  O   UNL     1      -9.959 -12.901  14.616  0.00  0.00    -0.150 OA
ATOM      8  O   UNL     1      -7.622 -12.829  13.689  0.00  0.00    -0.150 OA
BRANCH   1  28
ATOM     28  C   UNL     1      -8.290 -11.139  15.551  0.00  0.00    +0.109 A 
ATOM     32  C   UNL     1      -7.001 -11.265  16.036  0.00  0.00    +0.041 A 
ATOM     33  C   UNL     1      -9.192 -10.247  16.105  0.00  0.00    +0.029 A 
ATOM     34  C   UNL     1      -6.600 -10.473  17.113  0.00  0.00    +0.057 A 
ATOM     35  C   UNL     1      -8.790  -9.456  17.181  0.00  0.00    +0.002 A 
ATOM     36  C   UNL     1      -7.495  -9.570  17.685  0.00  0.00    +0.012 A 
BRANCH  34  37
ATOM      2  F   UNL     1      -5.122 -10.332  18.988  0.00  0.00    -0.166 F 
ATOM      3  F   UNL     1      -4.674 -11.839  17.495  0.00  0.00    -0.166 F 
ATOM      4  F   UNL     1      -4.340  -9.737  17.048  0.00  0.00    -0.166 F 
ATOM     37  C   UNL     1      -5.214 -10.595  17.651  0.00  0.00    +0.417 C 
ENDBRANCH  34  37
ENDBRANCH   1  28
ENDBRANCH  12   1
ENDBRANCH  23  12
TORSDOF 6
ENDMDL
