MODEL 1
REMARK VINA RESULT:      -6.8      0.000      0.000
REMARK  Name = 75537019
REMARK  3 active torsions:
REMARK  status: ('A' for Active; 'I' for Inactive)
REMARK    1  A    between atoms: S_1  and  N_8
REMARK    2  A    between atoms: S_1  and  C_21
REMARK    3  A    between atoms: N_6  and  C_10
REMARK                            x       y       z     vdW  Elec       q    Type
REMARK                         _______ _______ _______ _____ _____    ______ ____
ROOT
ATOM      3  O   UNL     1      19.691   9.003  21.890  0.00  0.00    -0.252 OA
ATOM      6  N   UNL     1      19.261   6.879  20.962  0.00  0.00    -0.281 N 
ATOM      7  N   UNL     1      17.640   8.431  20.899  0.00  0.00    -0.278 N 
ATOM      8  N   UNL     1      14.866   8.243  20.604  0.00  0.00    -0.173 NA
ATOM      9  C   UNL     1      17.098   7.309  20.156  0.00  0.00    +0.111 C 
ATOM     11  C   UNL     1      18.117   6.196  20.384  0.00  0.00    +0.133 C 
ATOM     12  C   UNL     1      15.686   6.987  20.633  0.00  0.00    +0.133 C 
ATOM     15  C   UNL     1      18.957   8.206  21.319  0.00  0.00    +0.305 C 
ATOM     16  C   UNL     1      16.859   9.646  21.034  0.00  0.00    +0.127 C 
ATOM     17  C   UNL     1      15.443   9.308  21.490  0.00  0.00    +0.128 C 
ENDROOT
BRANCH   6  10
ATOM     10  C   UNL     1      20.500   6.193  21.238  0.00  0.00    +0.078 C 
ATOM     13  C   UNL     1      20.513   4.817  20.569  0.00  0.00    +0.022 C 
ATOM     14  C   UNL     1      20.733   6.081  22.747  0.00  0.00    +0.022 C 
ATOM     18  C   UNL     1      21.792   4.047  20.888  0.00  0.00    +0.002 C 
ATOM     19  C   UNL     1      22.013   5.311  23.063  0.00  0.00    +0.002 C 
ATOM     20  C   UNL     1      22.024   3.940  22.393  0.00  0.00    +0.000 C 
ENDBRANCH   6  10
BRANCH   8   1
ATOM      1  S   UNL     1      13.173   8.012  20.748  0.00  0.00    +0.061 S 
ATOM      4  O   UNL     1      12.636   9.010  21.646  0.00  0.00    -0.153 OA
ATOM      5  O   UNL     1      12.909   6.603  20.951  0.00  0.00    -0.153 OA
BRANCH   1  21
ATOM      2  F   UNL     1      11.476   9.407  15.278  0.00  0.00    -0.205 F 
ATOM     21  C   UNL     1      12.666   8.429  19.109  0.00  0.00    +0.106 A 
ATOM     22  C   UNL     1      13.616   8.799  18.158  0.00  0.00    +0.031 A 
ATOM     23  C   UNL     1      11.315   8.390  18.767  0.00  0.00    +0.031 A 
ATOM     24  C   UNL     1      13.215   9.129  16.863  0.00  0.00    +0.040 A 
ATOM     25  C   UNL     1      10.913   8.720  17.473  0.00  0.00    +0.040 A 
ATOM     26  C   UNL     1      11.863   9.089  16.521  0.00  0.00    +0.124 A 
ENDBRANCH   1  21
ENDBRANCH   8   1
TORSDOF 3
ENDMDL
MODEL 2
REMARK VINA RESULT:      -6.7      3.133      3.966
REMARK  Name = 75537019
REMARK  3 active torsions:
REMARK  status: ('A' for Active; 'I' for Inactive)
REMARK    1  A    between atoms: S_1  and  N_8
REMARK    2  A    between atoms: S_1  and  C_21
REMARK    3  A    between atoms: N_6  and  C_10
REMARK                            x       y       z     vdW  Elec       q    Type
REMARK                         _______ _______ _______ _____ _____    ______ ____
ROOT
ATOM      3  O   UNL     1      18.338   5.925  19.596  0.00  0.00    -0.252 OA
ATOM      6  N   UNL     1      18.278   7.695  21.152  0.00  0.00    -0.281 N 
ATOM      7  N   UNL     1      16.388   7.147  20.068  0.00  0.00    -0.278 N 
ATOM      8  N   UNL     1      14.031   8.563  19.565  0.00  0.00    -0.173 NA
ATOM      9  C   UNL     1      15.982   8.172  21.012  0.00  0.00    +0.111 C 
ATOM     11  C   UNL     1      17.302   8.678  21.589  0.00  0.00    +0.133 C 
ATOM     12  C   UNL     1      15.143   9.236  20.313  0.00  0.00    +0.133 C 
ATOM     15  C   UNL     1      17.742   6.808  20.198  0.00  0.00    +0.305 C 
ATOM     16  C   UNL     1      15.397   6.531  19.208  0.00  0.00    +0.127 C 
ATOM     17  C   UNL     1      14.550   7.605  18.533  0.00  0.00    +0.128 C 
ENDROOT
BRANCH   6  10
ATOM     10  C   UNL     1      19.656   7.747  21.575  0.00  0.00    +0.078 C 
ATOM     13  C   UNL     1      19.928   6.691  22.648  0.00  0.00    +0.022 C 
ATOM     14  C   UNL     1      20.018   9.150  22.070  0.00  0.00    +0.022 C 
ATOM     18  C   UNL     1      21.367   6.758  23.153  0.00  0.00    +0.002 C 
ATOM     19  C   UNL     1      21.459   9.213  22.573  0.00  0.00    +0.002 C 
ATOM     20  C   UNL     1      21.728   8.158  23.642  0.00  0.00    +0.000 C 
ENDBRANCH   6  10
BRANCH   8   1
ATOM      1  S   UNL     1      12.778   9.604  19.030  0.00  0.00    +0.061 S 
ATOM      4  O   UNL     1      11.800   8.828  18.300  0.00  0.00    -0.153 OA
ATOM      5  O   UNL     1      13.371  10.792  18.453  0.00  0.00    -0.153 OA
BRANCH   1  21
ATOM      2  F   UNL     1      10.403  11.094  24.214  0.00  0.00    -0.205 F 
ATOM     21  C   UNL     1      12.066  10.051  20.581  0.00  0.00    +0.106 A 
ATOM     22  C   UNL     1      12.091  11.380  21.004  0.00  0.00    +0.031 A 
ATOM     23  C   UNL     1      11.481   9.075  21.386  0.00  0.00    +0.031 A 
ATOM     24  C   UNL     1      11.529  11.733  22.230  0.00  0.00    +0.040 A 
ATOM     25  C   UNL     1      10.918   9.427  22.613  0.00  0.00    +0.040 A 
ATOM     26  C   UNL     1      10.942  10.755  23.035  0.00  0.00    +0.124 A 
ENDBRANCH   1  21
ENDBRANCH   8   1
TORSDOF 3
ENDMDL
MODEL 3
REMARK VINA RESULT:      -6.4     27.531     30.207
REMARK  Name = 75537019
REMARK  3 active torsions:
REMARK  status: ('A' for Active; 'I' for Inactive)
REMARK    1  A    between atoms: S_1  and  N_8
REMARK    2  A    between atoms: S_1  and  C_21
REMARK    3  A    between atoms: N_6  and  C_10
REMARK                            x       y       z     vdW  Elec       q    Type
REMARK                         _______ _______ _______ _____ _____    ______ ____
ROOT
ATOM      3  O   UNL     1      -5.333 -11.897  18.509  0.00  0.00    -0.252 OA
ATOM      6  N   UNL     1      -5.542 -10.707  16.485  0.00  0.00    -0.281 N 
ATOM      7  N   UNL     1      -7.207 -10.580  17.987  0.00  0.00    -0.278 N 
ATOM      8  N   UNL     1      -9.905  -9.888  17.749  0.00  0.00    -0.173 NA
ATOM      9  C   UNL     1      -7.595  -9.659  16.935  0.00  0.00    +0.111 C 
ATOM     11  C   UNL     1      -6.567  -9.911  15.834  0.00  0.00    +0.133 C 
ATOM     12  C   UNL     1      -9.042  -9.902  16.522  0.00  0.00    +0.133 C 
ATOM     15  C   UNL     1      -5.948 -11.153  17.757  0.00  0.00    +0.305 C 
ATOM     16  C   UNL     1      -8.051 -10.729  19.156  0.00  0.00    +0.127 C 
ATOM     17  C   UNL     1      -9.499 -10.949  18.730  0.00  0.00    +0.128 C 
ENDROOT
BRANCH   6  10
ATOM     10  C   UNL     1      -4.322 -11.080  15.810  0.00  0.00    +0.078 C 
ATOM     13  C   UNL     1      -3.106 -10.526  16.556  0.00  0.00    +0.022 C 
ATOM     14  C   UNL     1      -4.343 -10.611  14.353  0.00  0.00    +0.022 C 
ATOM     18  C   UNL     1      -1.803 -10.861  15.834  0.00  0.00    +0.002 C 
ATOM     19  C   UNL     1      -3.039 -10.948  13.635  0.00  0.00    +0.002 C 
ATOM     20  C   UNL     1      -1.827 -10.397  14.380  0.00  0.00    +0.000 C 
ENDBRANCH   6  10
BRANCH   8   1
ATOM      1  S   UNL     1     -11.590  -9.774  17.454  0.00  0.00    +0.061 S 
ATOM      4  O   UNL     1     -12.263  -9.435  18.689  0.00  0.00    -0.153 OA
ATOM      5  O   UNL     1     -12.006 -10.913  16.664  0.00  0.00    -0.153 OA
BRANCH   1  21
ATOM      2  F   UNL     1     -11.695  -5.018  13.973  0.00  0.00    -0.205 F 
ATOM     21  C   UNL     1     -11.623  -8.350  16.411  0.00  0.00    +0.106 A 
ATOM     22  C   UNL     1     -12.170  -8.434  15.132  0.00  0.00    +0.031 A 
ATOM     23  C   UNL     1     -11.098  -7.141  16.867  0.00  0.00    +0.031 A 
ATOM     24  C   UNL     1     -12.196  -7.309  14.308  0.00  0.00    +0.040 A 
ATOM     25  C   UNL     1     -11.124  -6.015  16.043  0.00  0.00    +0.040 A 
ATOM     26  C   UNL     1     -11.671  -6.099  14.764  0.00  0.00    +0.124 A 
ENDBRANCH   1  21
ENDBRANCH   8   1
TORSDOF 3
ENDMDL
MODEL 4
REMARK VINA RESULT:      -6.4     27.825     29.677
REMARK  Name = 75537019
REMARK  3 active torsions:
REMARK  status: ('A' for Active; 'I' for Inactive)
REMARK    1  A    between atoms: S_1  and  N_8
REMARK    2  A    between atoms: S_1  and  C_21
REMARK    3  A    between atoms: N_6  and  C_10
REMARK                            x       y       z     vdW  Elec       q    Type
REMARK                         _______ _______ _______ _____ _____    ______ ____
ROOT
ATOM      3  O   UNL     1      -2.036 -10.940  14.247  0.00  0.00    -0.252 OA
ATOM      6  N   UNL     1      -4.105 -10.529  13.194  0.00  0.00    -0.281 N 
ATOM      7  N   UNL     1      -4.021 -10.538  15.438  0.00  0.00    -0.278 N 
ATOM      8  N   UNL     1      -5.989 -10.891  17.392  0.00  0.00    -0.173 NA
ATOM      9  C   UNL     1      -5.383 -10.147  15.126  0.00  0.00    +0.111 C 
ATOM     11  C   UNL     1      -5.482 -10.346  13.616  0.00  0.00    +0.133 C 
ATOM     12  C   UNL     1      -6.373 -10.969  15.944  0.00  0.00    +0.133 C 
ATOM     15  C   UNL     1      -3.235 -10.696  14.288  0.00  0.00    +0.305 C 
ATOM     16  C   UNL     1      -3.596 -10.618  16.822  0.00  0.00    +0.127 C 
ATOM     17  C   UNL     1      -4.606 -11.423  17.633  0.00  0.00    +0.128 C 
ENDROOT
BRANCH   6  10
ATOM     10  C   UNL     1      -3.742 -10.649  11.802  0.00  0.00    +0.078 C 
ATOM     13  C   UNL     1      -4.170  -9.401  11.026  0.00  0.00    +0.022 C 
ATOM     14  C   UNL     1      -4.345 -11.917  11.193  0.00  0.00    +0.022 C 
ATOM     18  C   UNL     1      -3.846  -9.524   9.539  0.00  0.00    +0.002 C 
ATOM     19  C   UNL     1      -4.018 -12.037   9.706  0.00  0.00    +0.002 C 
ATOM     20  C   UNL     1      -4.444 -10.791   8.935  0.00  0.00    +0.000 C 
ENDBRANCH   6  10
BRANCH   8   1
ATOM      1  S   UNL     1      -7.184 -11.439  18.493  0.00  0.00    +0.061 S 
ATOM      4  O   UNL     1      -6.762 -11.126  19.841  0.00  0.00    -0.153 OA
ATOM      5  O   UNL     1      -7.578 -12.782  18.126  0.00  0.00    -0.153 OA
BRANCH   1  21
ATOM      2  F   UNL     1     -11.610  -7.804  17.098  0.00  0.00    -0.205 F 
ATOM     21  C   UNL     1      -8.508 -10.350  18.074  0.00  0.00    +0.106 A 
ATOM     22  C   UNL     1      -8.237  -9.111  17.495  0.00  0.00    +0.031 A 
ATOM     23  C   UNL     1      -9.827 -10.729  18.324  0.00  0.00    +0.031 A 
ATOM     24  C   UNL     1      -9.284  -8.251  17.164  0.00  0.00    +0.040 A 
ATOM     25  C   UNL     1     -10.874  -9.869  17.993  0.00  0.00    +0.040 A 
ATOM     26  C   UNL     1     -10.603  -8.631  17.414  0.00  0.00    +0.124 A 
ENDBRANCH   1  21
ENDBRANCH   8   1
TORSDOF 3
ENDMDL
MODEL 5
REMARK VINA RESULT:      -6.3     27.491     29.736
REMARK  Name = 75537019
REMARK  3 active torsions:
REMARK  status: ('A' for Active; 'I' for Inactive)
REMARK    1  A    between atoms: S_1  and  N_8
REMARK    2  A    between atoms: S_1  and  C_21
REMARK    3  A    between atoms: N_6  and  C_10
REMARK                            x       y       z     vdW  Elec       q    Type
REMARK                         _______ _______ _______ _____ _____    ______ ____
ROOT
ATOM      3  O   UNL     1      -6.641 -10.466  19.240  0.00  0.00    -0.252 OA
ATOM      6  N   UNL     1      -7.451  -9.857  17.112  0.00  0.00    -0.281 N 
ATOM      7  N   UNL     1      -5.512 -10.983  17.246  0.00  0.00    -0.278 N 
ATOM      8  N   UNL     1      -3.365 -11.246  15.476  0.00  0.00    -0.173 NA
ATOM      9  C   UNL     1      -5.772 -10.873  15.822  0.00  0.00    +0.111 C 
ATOM     11  C   UNL     1      -6.972  -9.933  15.744  0.00  0.00    +0.133 C 
ATOM     12  C   UNL     1      -4.528 -10.380  15.091  0.00  0.00    +0.133 C 
ATOM     15  C   UNL     1      -6.548 -10.442  18.020  0.00  0.00    +0.305 C 
ATOM     16  C   UNL     1      -4.336 -11.693  17.708  0.00  0.00    +0.127 C 
ATOM     17  C   UNL     1      -3.103 -11.207  16.953  0.00  0.00    +0.128 C 
ENDROOT
BRANCH   6  10
ATOM     10  C   UNL     1      -8.653  -9.139  17.461  0.00  0.00    +0.078 C 
ATOM     13  C   UNL     1      -9.744 -10.109  17.919  0.00  0.00    +0.022 C 
ATOM     14  C   UNL     1      -9.130  -8.277  16.289  0.00  0.00    +0.022 C 
ATOM     18  C   UNL     1     -11.045  -9.380  18.246  0.00  0.00    +0.002 C 
ATOM     19  C   UNL     1     -10.431  -7.550  16.619  0.00  0.00    +0.002 C 
ATOM     20  C   UNL     1     -11.517  -8.519  17.077  0.00  0.00    +0.000 C 
ENDBRANCH   6  10
BRANCH   8   1
ATOM      1  S   UNL     1      -1.976 -11.084  14.483  0.00  0.00    +0.061 S 
ATOM      4  O   UNL     1      -1.049 -12.150  14.792  0.00  0.00    -0.153 OA
ATOM      5  O   UNL     1      -1.553  -9.699  14.493  0.00  0.00    -0.153 OA
BRANCH   1  21
ATOM      2  F   UNL     1      -4.345 -12.217   9.206  0.00  0.00    -0.205 F 
ATOM     21  C   UNL     1      -2.686 -11.424  12.904  0.00  0.00    +0.106 A 
ATOM     22  C   UNL     1      -3.144 -12.707  12.606  0.00  0.00    +0.031 A 
ATOM     23  C   UNL     1      -2.788 -10.409  11.952  0.00  0.00    +0.031 A 
ATOM     24  C   UNL     1      -3.705 -12.975  11.358  0.00  0.00    +0.040 A 
ATOM     25  C   UNL     1      -3.349 -10.677  10.704  0.00  0.00    +0.040 A 
ATOM     26  C   UNL     1      -3.807 -11.960  10.406  0.00  0.00    +0.124 A 
ENDBRANCH   1  21
ENDBRANCH   8   1
TORSDOF 3
ENDMDL
MODEL 6
REMARK VINA RESULT:      -6.2     27.532     29.705
REMARK  Name = 75537019
REMARK  3 active torsions:
REMARK  status: ('A' for Active; 'I' for Inactive)
REMARK    1  A    between atoms: S_1  and  N_8
REMARK    2  A    between atoms: S_1  and  C_21
REMARK    3  A    between atoms: N_6  and  C_10
REMARK                            x       y       z     vdW  Elec       q    Type
REMARK                         _______ _______ _______ _____ _____    ______ ____
ROOT
ATOM      3  O   UNL     1      -4.126 -13.998  13.986  0.00  0.00    -0.252 OA
ATOM      6  N   UNL     1      -3.567 -11.721  14.231  0.00  0.00    -0.281 N 
ATOM      7  N   UNL     1      -4.500 -12.796  15.969  0.00  0.00    -0.278 N 
ATOM      8  N   UNL     1      -5.870 -11.883  18.228  0.00  0.00    -0.173 NA
ATOM      9  C   UNL     1      -4.182 -11.477  16.485  0.00  0.00    +0.111 C 
ATOM     11  C   UNL     1      -3.746 -10.699  15.246  0.00  0.00    +0.133 C 
ATOM     12  C   UNL     1      -5.384 -10.888  17.216  0.00  0.00    +0.133 C 
ATOM     15  C   UNL     1      -4.068 -12.970  14.647  0.00  0.00    +0.305 C 
ATOM     16  C   UNL     1      -5.096 -13.784  16.846  0.00  0.00    +0.127 C 
ATOM     17  C   UNL     1      -6.282 -13.176  17.589  0.00  0.00    +0.128 C 
ENDROOT
BRANCH   6  10
ATOM     10  C   UNL     1      -3.052 -11.413  12.919  0.00  0.00    +0.078 C 
ATOM     13  C   UNL     1      -2.007 -10.299  13.001  0.00  0.00    +0.022 C 
ATOM     14  C   UNL     1      -4.189 -11.041  11.964  0.00  0.00    +0.022 C 
ATOM     18  C   UNL     1      -1.483  -9.916  11.619  0.00  0.00    +0.002 C 
ATOM     19  C   UNL     1      -3.661 -10.660  10.583  0.00  0.00    +0.002 C 
ATOM     20  C   UNL     1      -2.618  -9.550  10.667  0.00  0.00    +0.000 C 
ENDBRANCH   6  10
BRANCH   8   1
ATOM      1  S   UNL     1      -6.967 -11.262  19.391  0.00  0.00    +0.061 S 
ATOM      4  O   UNL     1      -6.344 -10.153  20.081  0.00  0.00    -0.153 OA
ATOM      5  O   UNL     1      -7.548 -12.367  20.124  0.00  0.00    -0.153 OA
BRANCH   1  21
ATOM      2  F   UNL     1     -11.117  -9.073  15.824  0.00  0.00    -0.205 F 
ATOM     21  C   UNL     1      -8.208 -10.606  18.322  0.00  0.00    +0.106 A 
ATOM     22  C   UNL     1      -8.075  -9.318  17.805  0.00  0.00    +0.031 A 
ATOM     23  C   UNL     1      -9.325 -11.376  17.997  0.00  0.00    +0.031 A 
ATOM     24  C   UNL     1      -9.057  -8.800  16.960  0.00  0.00    +0.040 A 
ATOM     25  C   UNL     1     -10.307 -10.858  17.152  0.00  0.00    +0.040 A 
ATOM     26  C   UNL     1     -10.173  -9.570  16.635  0.00  0.00    +0.124 A 
ENDBRANCH   1  21
ENDBRANCH   8   1
TORSDOF 3
ENDMDL
MODEL 7
REMARK VINA RESULT:      -6.2     28.205     29.643
REMARK  Name = 75537019
REMARK  3 active torsions:
REMARK  status: ('A' for Active; 'I' for Inactive)
REMARK    1  A    between atoms: S_1  and  N_8
REMARK    2  A    between atoms: S_1  and  C_21
REMARK    3  A    between atoms: N_6  and  C_10
REMARK                            x       y       z     vdW  Elec       q    Type
REMARK                         _______ _______ _______ _____ _____    ______ ____
ROOT
ATOM      3  O   UNL     1      -2.576 -10.754  15.324  0.00  0.00    -0.252 OA
ATOM      6  N   UNL     1      -4.875 -10.585  15.817  0.00  0.00    -0.281 N 
ATOM      7  N   UNL     1      -4.235 -10.633  13.665  0.00  0.00    -0.278 N 
ATOM      8  N   UNL     1      -5.491  -9.801  11.310  0.00  0.00    -0.173 NA
ATOM      9  C   UNL     1      -5.685 -10.645  13.613  0.00  0.00    +0.111 C 
ATOM     11  C   UNL     1      -6.102 -10.402  15.061  0.00  0.00    +0.133 C 
ATOM     12  C   UNL     1      -6.190  -9.602  12.622  0.00  0.00    +0.133 C 
ATOM     15  C   UNL     1      -3.748 -10.671  14.978  0.00  0.00    +0.305 C 
ATOM     16  C   UNL     1      -3.473 -10.691  12.432  0.00  0.00    +0.127 C 
ATOM     17  C   UNL     1      -4.003  -9.659  11.442  0.00  0.00    +0.128 C 
ENDROOT
BRANCH   6  10
ATOM     10  C   UNL     1      -4.853 -10.544  17.259  0.00  0.00    +0.078 C 
ATOM     13  C   UNL     1      -4.281 -11.845  17.825  0.00  0.00    +0.022 C 
ATOM     14  C   UNL     1      -6.251 -10.262  17.814  0.00  0.00    +0.022 C 
ATOM     18  C   UNL     1      -4.295 -11.850  19.351  0.00  0.00    +0.002 C 
ATOM     19  C   UNL     1      -6.261 -10.266  19.341  0.00  0.00    +0.002 C 
ATOM     20  C   UNL     1      -5.689 -11.564  19.904  0.00  0.00    +0.000 C 
ENDBRANCH   6  10
BRANCH   8   1
ATOM      1  S   UNL     1      -6.188  -8.974   9.980  0.00  0.00    +0.061 S 
ATOM      4  O   UNL     1      -5.339  -7.859   9.621  0.00  0.00    -0.153 OA
ATOM      5  O   UNL     1      -7.601  -8.786  10.234  0.00  0.00    -0.153 OA
BRANCH   1  21
ATOM      2  F   UNL     1      -5.632 -13.094   5.801  0.00  0.00    -0.205 F 
ATOM     21  C   UNL     1      -6.020 -10.207   8.729  0.00  0.00    +0.106 A 
ATOM     22  C   UNL     1      -5.332  -9.917   7.551  0.00  0.00    +0.031 A 
ATOM     23  C   UNL     1      -6.578 -11.471   8.917  0.00  0.00    +0.031 A 
ATOM     24  C   UNL     1      -5.200 -10.892   6.562  0.00  0.00    +0.040 A 
ATOM     25  C   UNL     1      -6.446 -12.446   7.928  0.00  0.00    +0.040 A 
ATOM     26  C   UNL     1      -5.758 -12.157   6.751  0.00  0.00    +0.124 A 
ENDBRANCH   1  21
ENDBRANCH   8   1
TORSDOF 3
ENDMDL
MODEL 8
REMARK VINA RESULT:      -6.2     14.075     15.392
REMARK  Name = 75537019
REMARK  3 active torsions:
REMARK  status: ('A' for Active; 'I' for Inactive)
REMARK    1  A    between atoms: S_1  and  N_8
REMARK    2  A    between atoms: S_1  and  C_21
REMARK    3  A    between atoms: N_6  and  C_10
REMARK                            x       y       z     vdW  Elec       q    Type
REMARK                         _______ _______ _______ _____ _____    ______ ____
ROOT
ATOM      3  O   UNL     1      17.019   8.087   2.553  0.00  0.00    -0.252 OA
ATOM      6  N   UNL     1      17.134   8.208   4.905  0.00  0.00    -0.281 N 
ATOM      7  N   UNL     1      15.162   7.721   3.946  0.00  0.00    -0.278 N 
ATOM      8  N   UNL     1      12.527   7.917   4.859  0.00  0.00    -0.173 NA
ATOM      9  C   UNL     1      14.913   7.601   5.370  0.00  0.00    +0.111 C 
ATOM     11  C   UNL     1      16.194   8.135   6.008  0.00  0.00    +0.133 C 
ATOM     12  C   UNL     1      13.647   8.359   5.754  0.00  0.00    +0.133 C 
ATOM     15  C   UNL     1      16.504   8.011   3.661  0.00  0.00    +0.305 C 
ATOM     16  C   UNL     1      14.095   7.439   3.005  0.00  0.00    +0.127 C 
ATOM     17  C   UNL     1      12.829   8.184   3.413  0.00  0.00    +0.128 C 
ENDROOT
BRANCH   6  10
ATOM     10  C   UNL     1      18.516   8.573   5.102  0.00  0.00    +0.078 C 
ATOM     13  C   UNL     1      19.441   7.552   4.437  0.00  0.00    +0.022 C 
ATOM     14  C   UNL     1      18.830   8.722   6.593  0.00  0.00    +0.022 C 
ATOM     18  C   UNL     1      20.912   7.886   4.675  0.00  0.00    +0.002 C 
ATOM     19  C   UNL     1      20.301   9.057   6.826  0.00  0.00    +0.002 C 
ATOM     20  C   UNL     1      21.222   8.039   6.162  0.00  0.00    +0.000 C 
ENDBRANCH   6  10
BRANCH   8   1
ATOM      1  S   UNL     1      10.958   8.377   5.374  0.00  0.00    +0.061 S 
ATOM      4  O   UNL     1      10.081   8.428   4.225  0.00  0.00    -0.153 OA
ATOM      5  O   UNL     1      11.073   9.502   6.278  0.00  0.00    -0.153 OA
BRANCH   1  21
ATOM      2  F   UNL     1       9.493   3.639   8.560  0.00  0.00    -0.205 F 
ATOM     21  C   UNL     1      10.520   6.957   6.327  0.00  0.00    +0.106 A 
ATOM     22  C   UNL     1      10.188   5.763   5.688  0.00  0.00    +0.031 A 
ATOM     23  C   UNL     1      10.504   7.031   7.720  0.00  0.00    +0.031 A 
ATOM     24  C   UNL     1       9.842   4.641   6.442  0.00  0.00    +0.040 A 
ATOM     25  C   UNL     1      10.158   5.909   8.474  0.00  0.00    +0.040 A 
ATOM     26  C   UNL     1       9.827   4.716   7.835  0.00  0.00    +0.124 A 
ENDBRANCH   1  21
ENDBRANCH   8   1
TORSDOF 3
ENDMDL
MODEL 9
REMARK VINA RESULT:      -6.2     28.406     30.013
REMARK  Name = 75537019
REMARK  3 active torsions:
REMARK  status: ('A' for Active; 'I' for Inactive)
REMARK    1  A    between atoms: S_1  and  N_8
REMARK    2  A    between atoms: S_1  and  C_21
REMARK    3  A    between atoms: N_6  and  C_10
REMARK                            x       y       z     vdW  Elec       q    Type
REMARK                         _______ _______ _______ _____ _____    ______ ____
ROOT
ATOM      3  O   UNL     1      -3.278 -11.125  17.039  0.00  0.00    -0.252 OA
ATOM      6  N   UNL     1      -4.555 -10.657  15.113  0.00  0.00    -0.281 N 
ATOM      7  N   UNL     1      -5.517 -10.421  17.128  0.00  0.00    -0.278 N 
ATOM      8  N   UNL     1      -8.192 -10.380  17.942  0.00  0.00    -0.173 NA
ATOM      9  C   UNL     1      -6.519  -9.950  16.189  0.00  0.00    +0.111 C 
ATOM     11  C   UNL     1      -5.935 -10.310  14.825  0.00  0.00    +0.133 C 
ATOM     12  C   UNL     1      -7.871 -10.587  16.491  0.00  0.00    +0.133 C 
ATOM     15  C   UNL     1      -4.318 -10.775  16.496  0.00  0.00    +0.305 C 
ATOM     16  C   UNL     1      -5.793 -10.380  18.551  0.00  0.00    +0.127 C 
ATOM     17  C   UNL     1      -7.158 -10.999  18.836  0.00  0.00    +0.128 C 
ENDROOT
BRANCH   6  10
ATOM     10  C   UNL     1      -3.611 -10.964  14.066  0.00  0.00    +0.078 C 
ATOM     13  C   UNL     1      -4.040 -10.315  12.748  0.00  0.00    +0.022 C 
ATOM     14  C   UNL     1      -3.444 -12.478  13.913  0.00  0.00    +0.022 C 
ATOM     18  C   UNL     1      -3.086 -10.667  11.609  0.00  0.00    +0.002 C 
ATOM     19  C   UNL     1      -2.489 -12.826  12.774  0.00  0.00    +0.002 C 
ATOM     20  C   UNL     1      -2.919 -12.177  11.461  0.00  0.00    +0.000 C 
ENDBRANCH   6  10
BRANCH   8   1
ATOM      1  S   UNL     1      -9.819 -10.695  18.380  0.00  0.00    +0.061 S 
ATOM      4  O   UNL     1      -9.963 -10.528  19.810  0.00  0.00    -0.153 OA
ATOM      5  O   UNL     1     -10.256 -11.907  17.721  0.00  0.00    -0.153 OA
BRANCH   1  21
ATOM      2  F   UNL     1     -12.483  -6.142  15.749  0.00  0.00    -0.205 F 
ATOM     21  C   UNL     1     -10.618  -9.332  17.593  0.00  0.00    +0.106 A 
ATOM     22  C   UNL     1     -11.914  -9.473  17.099  0.00  0.00    +0.031 A 
ATOM     23  C   UNL     1      -9.951  -8.114  17.464  0.00  0.00    +0.031 A 
ATOM     24  C   UNL     1     -12.545  -8.395  16.477  0.00  0.00    +0.040 A 
ATOM     25  C   UNL     1     -10.582  -7.036  16.842  0.00  0.00    +0.040 A 
ATOM     26  C   UNL     1     -11.878  -7.177  16.348  0.00  0.00    +0.124 A 
ENDBRANCH   1  21
ENDBRANCH   8   1
TORSDOF 3
ENDMDL
MODEL 10
REMARK VINA RESULT:      -6.1     30.037     32.591
REMARK  Name = 75537019
REMARK  3 active torsions:
REMARK  status: ('A' for Active; 'I' for Inactive)
REMARK    1  A    between atoms: S_1  and  N_8
REMARK    2  A    between atoms: S_1  and  C_21
REMARK    3  A    between atoms: N_6  and  C_10
REMARK                            x       y       z     vdW  Elec       q    Type
REMARK                         _______ _______ _______ _____ _____    ______ ____
ROOT
ATOM      3  O   UNL     1     -12.443  -7.627  12.562  0.00  0.00    -0.252 OA
ATOM      6  N   UNL     1     -12.003  -6.039  14.249  0.00  0.00    -0.281 N 
ATOM      7  N   UNL     1     -11.263  -8.141  14.528  0.00  0.00    -0.278 N 
ATOM      8  N   UNL     1     -10.520  -9.587  16.803  0.00  0.00    -0.173 NA
ATOM      9  C   UNL     1     -10.733  -7.415  15.667  0.00  0.00    +0.111 C 
ATOM     11  C   UNL     1     -11.412  -6.051  15.575  0.00  0.00    +0.133 C 
ATOM     12  C   UNL     1     -11.007  -8.177  16.959  0.00  0.00    +0.133 C 
ATOM     15  C   UNL     1     -11.961  -7.309  13.642  0.00  0.00    +0.305 C 
ATOM     16  C   UNL     1     -10.950  -9.548  14.366  0.00  0.00    +0.127 C 
ATOM     17  C   UNL     1     -11.207 -10.294  15.671  0.00  0.00    +0.128 C 
ENDROOT
BRANCH   6  10
ATOM     10  C   UNL     1     -12.662  -4.871  13.716  0.00  0.00    +0.078 C 
ATOM     13  C   UNL     1     -14.172  -5.103  13.622  0.00  0.00    +0.022 C 
ATOM     14  C   UNL     1     -12.072  -4.488  12.357  0.00  0.00    +0.022 C 
ATOM     18  C   UNL     1     -14.889  -3.901  13.013  0.00  0.00    +0.002 C 
ATOM     19  C   UNL     1     -12.791  -3.286  11.751  0.00  0.00    +0.002 C 
ATOM     20  C   UNL     1     -14.296  -3.518  11.659  0.00  0.00    +0.000 C 
ENDBRANCH   6  10
BRANCH   8   1
ATOM      1  S   UNL     1     -10.403 -10.483  18.260  0.00  0.00    +0.061 S 
ATOM      4  O   UNL     1     -10.937 -11.809  18.042  0.00  0.00    -0.153 OA
ATOM      5  O   UNL     1     -10.871  -9.659  19.354  0.00  0.00    -0.153 OA
BRANCH   1  21
ATOM      2  F   UNL     1      -4.544 -10.939  18.713  0.00  0.00    -0.205 F 
ATOM     21  C   UNL     1      -8.649 -10.621  18.396  0.00  0.00    +0.106 A 
ATOM     22  C   UNL     1      -8.085 -11.354  19.439  0.00  0.00    +0.031 A 
ATOM     23  C   UNL     1      -7.826  -9.994  17.460  0.00  0.00    +0.031 A 
ATOM     24  C   UNL     1      -6.699 -11.463  19.546  0.00  0.00    +0.040 A 
ATOM     25  C   UNL     1      -6.440 -10.103  17.567  0.00  0.00    +0.040 A 
ATOM     26  C   UNL     1      -5.876 -10.836  18.610  0.00  0.00    +0.124 A 
ENDBRANCH   1  21
ENDBRANCH   8   1
TORSDOF 3
ENDMDL
