MODEL 1
REMARK VINA RESULT:      -7.3      0.000      0.000
REMARK  Name = 25390244
REMARK  7 active torsions:
REMARK  status: ('A' for Active; 'I' for Inactive)
REMARK    1  A    between atoms: O_2  and  C_11
REMARK    2  A    between atoms: O_3  and  C_12
REMARK    3  A    between atoms: N_8  and  C_20
REMARK    4  A    between atoms: C_10  and  C_14
REMARK    5  A    between atoms: C_13  and  C_20
REMARK    6  A    between atoms: C_14  and  C_21
REMARK    7  A    between atoms: C_15  and  C_22
REMARK                            x       y       z     vdW  Elec       q    Type
REMARK                         _______ _______ _______ _____ _____    ______ ____
ROOT
ATOM      1  O   UNL     1      13.791   7.757  21.196  0.00  0.00    -0.366 OA
ATOM     10  C   UNL     1      12.509   8.406  21.158  0.00  0.00    +0.159 C 
ATOM     11  C   UNL     1      12.032   8.296  19.720  0.00  0.00    +0.175 C 
ATOM     12  C   UNL     1      12.570   6.935  19.327  0.00  0.00    +0.176 C 
ATOM     13  C   UNL     1      13.924   6.913  20.028  0.00  0.00    +0.167 C 
ENDROOT
BRANCH  11   2
ATOM      2  O   UNL     1      10.629   8.393  19.617  0.00  0.00    -0.387 OA
ATOM     28  H   UNL     1      10.267   7.494  19.697  0.00  0.00    +0.210 HD
ENDBRANCH  11   2
BRANCH  12   3
ATOM      3  O   UNL     1      11.762   5.903  19.891  0.00  0.00    -0.387 OA
ATOM     29  H   UNL     1      11.065   5.694  19.245  0.00  0.00    +0.210 HD
ENDBRANCH  12   3
BRANCH  10  14
ATOM     14  C   UNL     1      12.648   9.840  21.638  0.00  0.00    +0.130 C 
BRANCH  14  21
ATOM      4  O   UNL     1      10.513   9.513  22.611  0.00  0.00    -0.276 OA
ATOM      7  N   UNL     1      11.833  11.179  23.548  0.00  0.00    -0.301 N 
ATOM     15  C   UNL     1      11.764  13.872  24.623  0.00  0.00    -0.011 C 
ATOM     16  C   UNL     1      12.774  13.458  23.542  0.00  0.00    +0.022 C 
ATOM     17  C   UNL     1      10.500  13.004  24.530  0.00  0.00    +0.022 C 
ATOM     18  C   UNL     1      13.073  11.961  23.607  0.00  0.00    +0.108 C 
ATOM     19  C   UNL     1      10.847  11.518  24.575  0.00  0.00    +0.108 C 
ATOM     21  C   UNL     1      11.565  10.156  22.639  0.00  0.00    +0.218 C 
ATOM     22  C   UNL     1      11.416  15.354  24.501  0.00  0.00    +0.007 C 
ENDBRANCH  14  21
ENDBRANCH  10  14
BRANCH  13  20
ATOM     20  C   UNL     1      15.048   7.477  19.171  0.00  0.00    +0.140 C 
BRANCH  20   8
ATOM      5  O   UNL     1      20.939   7.694  21.709  0.00  0.00    -0.377 OA
ATOM      6  O   UNL     1      17.243   5.717  19.079  0.00  0.00    -0.253 OA
ATOM      8  N   UNL     1      16.270   7.611  19.934  0.00  0.00    -0.297 N 
ATOM      9  N   UNL     1      18.429   6.958  20.641  0.00  0.00    -0.281 N 
ATOM     23  C   UNL     1      17.310   6.695  19.831  0.00  0.00    +0.302 C 
ATOM     24  C   UNL     1      19.570   6.041  20.601  0.00  0.00    +0.137 C 
ATOM     25  C   UNL     1      18.529   8.005  21.668  0.00  0.00    +0.137 C 
ATOM     26  C   UNL     1      20.884   6.805  20.591  0.00  0.00    +0.179 C 
ATOM     27  C   UNL     1      19.900   8.670  21.631  0.00  0.00    +0.179 C 
ATOM     30  H   UNL     1      16.334   8.426  20.527  0.00  0.00    +0.150 HD
ENDBRANCH  20   8
ENDBRANCH  13  20
TORSDOF 6
ENDMDL
MODEL 2
REMARK VINA RESULT:      -7.1      2.908      7.627
REMARK  Name = 25390244
REMARK  7 active torsions:
REMARK  status: ('A' for Active; 'I' for Inactive)
REMARK    1  A    between atoms: O_2  and  C_11
REMARK    2  A    between atoms: O_3  and  C_12
REMARK    3  A    between atoms: N_8  and  C_20
REMARK    4  A    between atoms: C_10  and  C_14
REMARK    5  A    between atoms: C_13  and  C_20
REMARK    6  A    between atoms: C_14  and  C_21
REMARK    7  A    between atoms: C_15  and  C_22
REMARK                            x       y       z     vdW  Elec       q    Type
REMARK                         _______ _______ _______ _____ _____    ______ ____
ROOT
ATOM      1  O   UNL     1      10.463   9.377  20.766  0.00  0.00    -0.366 OA
ATOM     10  C   UNL     1      11.168   8.343  20.058  0.00  0.00    +0.159 C 
ATOM     11  C   UNL     1      11.841   7.498  21.126  0.00  0.00    +0.175 C 
ATOM     12  C   UNL     1      10.815   7.543  22.239  0.00  0.00    +0.176 C 
ATOM     13  C   UNL     1      10.309   8.979  22.149  0.00  0.00    +0.167 C 
ENDROOT
BRANCH  11   2
ATOM      2  O   UNL     1      12.117   6.191  20.672  0.00  0.00    -0.387 OA
ATOM     28  H   UNL     1      12.536   6.268  19.798  0.00  0.00    +0.210 HD
ENDBRANCH  11   2
BRANCH  12   3
ATOM      3  O   UNL     1       9.726   6.670  21.943  0.00  0.00    -0.387 OA
ATOM     29  H   UNL     1       9.030   6.840  22.601  0.00  0.00    +0.210 HD
ENDBRANCH  12   3
BRANCH  10  14
ATOM     14  C   UNL     1      12.145   8.969  19.080  0.00  0.00    +0.130 C 
BRANCH  14  21
ATOM      4  O   UNL     1      12.477   7.039  17.747  0.00  0.00    -0.276 OA
ATOM      7  N   UNL     1      14.372   7.957  18.728  0.00  0.00    -0.301 N 
ATOM     15  C   UNL     1      16.848   7.286  20.081  0.00  0.00    -0.011 C 
ATOM     16  C   UNL     1      15.857   8.304  20.666  0.00  0.00    +0.022 C 
ATOM     17  C   UNL     1      16.108   6.272  19.195  0.00  0.00    +0.022 C 
ATOM     18  C   UNL     1      15.030   8.967  19.565  0.00  0.00    +0.108 C 
ATOM     19  C   UNL     1      15.277   6.978  18.126  0.00  0.00    +0.108 C 
ATOM     21  C   UNL     1      13.005   7.900  18.455  0.00  0.00    +0.218 C 
ATOM     22  C   UNL     1      17.616   6.576  21.194  0.00  0.00    +0.007 C 
ENDBRANCH  14  21
ENDBRANCH  10  14
BRANCH  13  20
ATOM     20  C   UNL     1      11.111   9.948  23.005  0.00  0.00    +0.140 C 
BRANCH  20   8
ATOM      5  O   UNL     1      11.234  15.577  19.925  0.00  0.00    -0.377 OA
ATOM      6  O   UNL     1      13.109  11.297  21.552  0.00  0.00    -0.253 OA
ATOM      8  N   UNL     1      11.016  11.298  22.494  0.00  0.00    -0.297 N 
ATOM      9  N   UNL     1      11.813  13.212  21.358  0.00  0.00    -0.281 N 
ATOM     23  C   UNL     1      12.052  11.894  21.784  0.00  0.00    +0.302 C 
ATOM     24  C   UNL     1      12.853  13.920  20.608  0.00  0.00    +0.137 C 
ATOM     25  C   UNL     1      10.654  14.042  21.718  0.00  0.00    +0.137 C 
ATOM     26  C   UNL     1      12.254  14.698  19.448  0.00  0.00    +0.179 C 
ATOM     27  C   UNL     1      10.164  14.839  20.514  0.00  0.00    +0.179 C 
ATOM     30  H   UNL     1      10.141  11.774  22.660  0.00  0.00    +0.150 HD
ENDBRANCH  20   8
ENDBRANCH  13  20
TORSDOF 6
ENDMDL
MODEL 3
REMARK VINA RESULT:      -7.0      3.077      5.836
REMARK  Name = 25390244
REMARK  7 active torsions:
REMARK  status: ('A' for Active; 'I' for Inactive)
REMARK    1  A    between atoms: O_2  and  C_11
REMARK    2  A    between atoms: O_3  and  C_12
REMARK    3  A    between atoms: N_8  and  C_20
REMARK    4  A    between atoms: C_10  and  C_14
REMARK    5  A    between atoms: C_13  and  C_20
REMARK    6  A    between atoms: C_14  and  C_21
REMARK    7  A    between atoms: C_15  and  C_22
REMARK                            x       y       z     vdW  Elec       q    Type
REMARK                         _______ _______ _______ _____ _____    ______ ____
ROOT
ATOM      1  O   UNL     1      11.183   8.965  20.553  0.00  0.00    -0.366 OA
ATOM     10  C   UNL     1      11.577   7.615  20.250  0.00  0.00    +0.159 C 
ATOM     11  C   UNL     1      11.777   6.933  21.593  0.00  0.00    +0.175 C 
ATOM     12  C   UNL     1      10.693   7.584  22.427  0.00  0.00    +0.176 C 
ATOM     13  C   UNL     1      10.725   9.023  21.924  0.00  0.00    +0.167 C 
ENDROOT
BRANCH  11   2
ATOM      2  O   UNL     1      11.645   5.532  21.500  0.00  0.00    -0.387 OA
ATOM     28  H   UNL     1      11.195   5.336  20.661  0.00  0.00    +0.210 HD
ENDBRANCH  11   2
BRANCH  12   3
ATOM      3  O   UNL     1       9.419   7.029  22.103  0.00  0.00    -0.387 OA
ATOM     29  H   UNL     1       9.558   6.379  21.393  0.00  0.00    +0.210 HD
ENDBRANCH  12   3
BRANCH  10  14
ATOM     14  C   UNL     1      12.827   7.629  19.389  0.00  0.00    +0.130 C 
BRANCH  14  21
ATOM      4  O   UNL     1      11.882   7.141  17.273  0.00  0.00    -0.276 OA
ATOM      7  N   UNL     1      12.838   9.244  17.519  0.00  0.00    -0.301 N 
ATOM     15  C   UNL     1      14.485  11.223  16.181  0.00  0.00    -0.011 C 
ATOM     16  C   UNL     1      14.800  10.736  17.604  0.00  0.00    +0.022 C 
ATOM     17  C   UNL     1      13.731  10.133  15.402  0.00  0.00    +0.022 C 
ATOM     18  C   UNL     1      13.538  10.257  18.319  0.00  0.00    +0.108 C 
ATOM     19  C   UNL     1      12.492   9.668  16.162  0.00  0.00    +0.108 C 
ATOM     21  C   UNL     1      12.470   7.975  17.966  0.00  0.00    +0.218 C 
ATOM     22  C   UNL     1      15.763  11.628  15.451  0.00  0.00    +0.007 C 
ENDBRANCH  14  21
ENDBRANCH  10  14
BRANCH  13  20
ATOM     20  C   UNL     1      11.692   9.905  22.701  0.00  0.00    +0.140 C 
BRANCH  20   8
ATOM      5  O   UNL     1      17.939   9.941  21.232  0.00  0.00    -0.377 OA
ATOM      6  O   UNL     1      13.517  11.970  22.128  0.00  0.00    -0.253 OA
ATOM      8  N   UNL     1      13.050   9.726  22.237  0.00  0.00    -0.297 N 
ATOM      9  N   UNL     1      15.179  10.468  21.525  0.00  0.00    -0.281 N 
ATOM     23  C   UNL     1      13.890  10.802  21.976  0.00  0.00    +0.302 C 
ATOM     24  C   UNL     1      16.129  11.540  21.219  0.00  0.00    +0.137 C 
ATOM     25  C   UNL     1      15.652   9.121  21.174  0.00  0.00    +0.137 C 
ATOM     26  C   UNL     1      17.516  11.205  21.744  0.00  0.00    +0.179 C 
ATOM     27  C   UNL     1      17.073   8.897  21.679  0.00  0.00    +0.179 C 
ATOM     30  H   UNL     1      13.363   8.771  22.140  0.00  0.00    +0.150 HD
ENDBRANCH  20   8
ENDBRANCH  13  20
TORSDOF 6
ENDMDL
MODEL 4
REMARK VINA RESULT:      -6.9      4.163      7.057
REMARK  Name = 25390244
REMARK  7 active torsions:
REMARK  status: ('A' for Active; 'I' for Inactive)
REMARK    1  A    between atoms: O_2  and  C_11
REMARK    2  A    between atoms: O_3  and  C_12
REMARK    3  A    between atoms: N_8  and  C_20
REMARK    4  A    between atoms: C_10  and  C_14
REMARK    5  A    between atoms: C_13  and  C_20
REMARK    6  A    between atoms: C_14  and  C_21
REMARK    7  A    between atoms: C_15  and  C_22
REMARK                            x       y       z     vdW  Elec       q    Type
REMARK                         _______ _______ _______ _____ _____    ______ ____
ROOT
ATOM      1  O   UNL     1      11.211   9.005  20.457  0.00  0.00    -0.366 OA
ATOM     10  C   UNL     1      11.673   7.661  20.242  0.00  0.00    +0.159 C 
ATOM     11  C   UNL     1      11.855   7.060  21.625  0.00  0.00    +0.175 C 
ATOM     12  C   UNL     1      10.715   7.706  22.387  0.00  0.00    +0.176 C 
ATOM     13  C   UNL     1      10.704   9.116  21.807  0.00  0.00    +0.167 C 
ENDROOT
BRANCH  11   2
ATOM      2  O   UNL     1      11.787   5.652  21.605  0.00  0.00    -0.387 OA
ATOM     28  H   UNL     1      12.696   5.314  21.683  0.00  0.00    +0.210 HD
ENDBRANCH  11   2
BRANCH  12   3
ATOM      3  O   UNL     1       9.479   7.078  22.052  0.00  0.00    -0.387 OA
ATOM     29  H   UNL     1       9.669   6.398  21.383  0.00  0.00    +0.210 HD
ENDBRANCH  12   3
BRANCH  10  14
ATOM     14  C   UNL     1      12.951   7.685  19.423  0.00  0.00    +0.130 C 
BRANCH  14  21
ATOM      4  O   UNL     1      12.106   7.157  17.274  0.00  0.00    -0.276 OA
ATOM      7  N   UNL     1      12.976   9.293  17.547  0.00  0.00    -0.301 N 
ATOM     15  C   UNL     1      14.600  11.326  16.264  0.00  0.00    -0.011 C 
ATOM     16  C   UNL     1      14.878  10.856  17.701  0.00  0.00    +0.022 C 
ATOM     17  C   UNL     1      13.917  10.208  15.462  0.00  0.00    +0.022 C 
ATOM     18  C   UNL     1      13.607  10.333  18.369  0.00  0.00    +0.108 C 
ATOM     19  C   UNL     1      12.667   9.700  16.176  0.00  0.00    +0.108 C 
ATOM     21  C   UNL     1      12.636   8.014  17.986  0.00  0.00    +0.218 C 
ATOM     22  C   UNL     1      15.890  11.775  15.582  0.00  0.00    +0.007 C 
ENDBRANCH  14  21
ENDBRANCH  10  14
BRANCH  13  20
ATOM     20  C   UNL     1      11.604  10.080  22.566  0.00  0.00    +0.140 C 
BRANCH  20   8
ATOM      5  O   UNL     1      14.029  15.011  19.250  0.00  0.00    -0.377 OA
ATOM      6  O   UNL     1      13.639  11.946  23.114  0.00  0.00    -0.253 OA
ATOM      8  N   UNL     1      11.928  11.237  21.760  0.00  0.00    -0.297 N 
ATOM      9  N   UNL     1      13.141  13.193  21.222  0.00  0.00    -0.281 N 
ATOM     23  C   UNL     1      12.951  12.113  22.101  0.00  0.00    +0.302 C 
ATOM     24  C   UNL     1      14.194  14.170  21.508  0.00  0.00    +0.137 C 
ATOM     25  C   UNL     1      12.277  13.548  20.087  0.00  0.00    +0.137 C 
ATOM     26  C   UNL     1      14.946  14.547  20.242  0.00  0.00    +0.179 C 
ATOM     27  C   UNL     1      13.112  13.979  18.886  0.00  0.00    +0.179 C 
ATOM     30  H   UNL     1      11.384  11.356  20.918  0.00  0.00    +0.150 HD
ENDBRANCH  20   8
ENDBRANCH  13  20
TORSDOF 6
ENDMDL
MODEL 5
REMARK VINA RESULT:      -6.6      2.803      9.987
REMARK  Name = 25390244
REMARK  7 active torsions:
REMARK  status: ('A' for Active; 'I' for Inactive)
REMARK    1  A    between atoms: O_2  and  C_11
REMARK    2  A    between atoms: O_3  and  C_12
REMARK    3  A    between atoms: N_8  and  C_20
REMARK    4  A    between atoms: C_10  and  C_14
REMARK    5  A    between atoms: C_13  and  C_20
REMARK    6  A    between atoms: C_14  and  C_21
REMARK    7  A    between atoms: C_15  and  C_22
REMARK                            x       y       z     vdW  Elec       q    Type
REMARK                         _______ _______ _______ _____ _____    ______ ____
ROOT
ATOM      1  O   UNL     1      18.193   7.527  20.533  0.00  0.00    -0.366 OA
ATOM     10  C   UNL     1      19.433   6.848  20.269  0.00  0.00    +0.159 C 
ATOM     11  C   UNL     1      19.098   5.366  20.264  0.00  0.00    +0.175 C 
ATOM     12  C   UNL     1      17.714   5.370  19.651  0.00  0.00    +0.176 C 
ATOM     13  C   UNL     1      17.096   6.621  20.267  0.00  0.00    +0.167 C 
ENDROOT
BRANCH  11   2
ATOM      2  O   UNL     1      20.035   4.613  19.525  0.00  0.00    -0.387 OA
ATOM     28  H   UNL     1      19.565   3.848  19.151  0.00  0.00    +0.210 HD
ENDBRANCH  11   2
BRANCH  12   3
ATOM      3  O   UNL     1      17.798   5.566  18.240  0.00  0.00    -0.387 OA
ATOM     29  H   UNL     1      18.041   6.496  18.090  0.00  0.00    +0.210 HD
ENDBRANCH  12   3
BRANCH  10  14
ATOM     14  C   UNL     1      20.459   7.230  21.321  0.00  0.00    +0.130 C 
BRANCH  14  21
ATOM      4  O   UNL     1      22.270   7.764  19.890  0.00  0.00    -0.276 OA
ATOM      7  N   UNL     1      22.589   5.978  21.342  0.00  0.00    -0.301 N 
ATOM     15  C   UNL     1      23.699   3.305  21.533  0.00  0.00    -0.011 C 
ATOM     16  C   UNL     1      22.262   3.618  21.979  0.00  0.00    +0.022 C 
ATOM     17  C   UNL     1      24.144   4.292  20.443  0.00  0.00    +0.022 C 
ATOM     18  C   UNL     1      22.119   5.079  22.403  0.00  0.00    +0.108 C 
ATOM     19  C   UNL     1      23.963   5.737  20.899  0.00  0.00    +0.108 C 
ATOM     21  C   UNL     1      21.851   7.022  20.782  0.00  0.00    +0.218 C 
ATOM     22  C   UNL     1      23.812   1.864  21.040  0.00  0.00    +0.007 C 
ENDBRANCH  14  21
ENDBRANCH  10  14
BRANCH  13  20
ATOM     20  C   UNL     1      16.386   6.349  21.584  0.00  0.00    +0.140 C 
BRANCH  20   8
ATOM      5  O   UNL     1      10.606   9.085  21.048  0.00  0.00    -0.377 OA
ATOM      6  O   UNL     1      15.380   8.870  22.328  0.00  0.00    -0.253 OA
ATOM      8  N   UNL     1      15.000   6.755  21.524  0.00  0.00    -0.297 N 
ATOM      9  N   UNL     1      13.202   8.266  21.802  0.00  0.00    -0.281 N 
ATOM     23  C   UNL     1      14.583   8.023  21.912  0.00  0.00    +0.302 C 
ATOM     24  C   UNL     1      12.675   9.575  22.195  0.00  0.00    +0.137 C 
ATOM     25  C   UNL     1      12.172   7.274  21.463  0.00  0.00    +0.137 C 
ATOM     26  C   UNL     1      11.635  10.064  21.200  0.00  0.00    +0.179 C 
ATOM     27  C   UNL     1      11.136   7.871  20.517  0.00  0.00    +0.179 C 
ATOM     30  H   UNL     1      14.353   6.071  21.157  0.00  0.00    +0.150 HD
ENDBRANCH  20   8
ENDBRANCH  13  20
TORSDOF 6
ENDMDL
MODEL 6
REMARK VINA RESULT:      -6.5      2.532      3.034
REMARK  Name = 25390244
REMARK  7 active torsions:
REMARK  status: ('A' for Active; 'I' for Inactive)
REMARK    1  A    between atoms: O_2  and  C_11
REMARK    2  A    between atoms: O_3  and  C_12
REMARK    3  A    between atoms: N_8  and  C_20
REMARK    4  A    between atoms: C_10  and  C_14
REMARK    5  A    between atoms: C_13  and  C_20
REMARK    6  A    between atoms: C_14  and  C_21
REMARK    7  A    between atoms: C_15  and  C_22
REMARK                            x       y       z     vdW  Elec       q    Type
REMARK                         _______ _______ _______ _____ _____    ______ ____
ROOT
ATOM      1  O   UNL     1      12.702   8.770  18.688  0.00  0.00    -0.366 OA
ATOM     10  C   UNL     1      12.842  10.198  18.587  0.00  0.00    +0.159 C 
ATOM     11  C   UNL     1      13.666  10.445  17.335  0.00  0.00    +0.175 C 
ATOM     12  C   UNL     1      13.173   9.338  16.426  0.00  0.00    +0.176 C 
ATOM     13  C   UNL     1      12.999   8.179  17.402  0.00  0.00    +0.167 C 
ENDROOT
BRANCH  11   2
ATOM      2  O   UNL     1      13.455  11.736  16.808  0.00  0.00    -0.387 OA
ATOM     28  H   UNL     1      14.027  11.829  16.026  0.00  0.00    +0.210 HD
ENDBRANCH  11   2
BRANCH  12   3
ATOM      3  O   UNL     1      11.890   9.668  15.896  0.00  0.00    -0.387 OA
ATOM     29  H   UNL     1      11.263   8.994  16.212  0.00  0.00    +0.210 HD
ENDBRANCH  12   3
BRANCH  10  14
ATOM     14  C   UNL     1      13.489  10.738  19.850  0.00  0.00    +0.130 C 
BRANCH  14  21
ATOM      4  O   UNL     1      13.198  13.084  19.700  0.00  0.00    -0.276 OA
ATOM      7  N   UNL     1      11.852  11.971  21.231  0.00  0.00    -0.301 N 
ATOM     15  C   UNL     1      10.743  12.137  23.907  0.00  0.00    -0.011 C 
ATOM     16  C   UNL     1      11.496  10.890  23.419  0.00  0.00    +0.022 C 
ATOM     17  C   UNL     1      11.235  13.383  23.154  0.00  0.00    +0.022 C 
ATOM     18  C   UNL     1      11.403  10.744  21.901  0.00  0.00    +0.108 C 
ATOM     19  C   UNL     1      11.147  13.185  21.643  0.00  0.00    +0.108 C 
ATOM     21  C   UNL     1      12.838  12.039  20.247  0.00  0.00    +0.218 C 
ATOM     22  C   UNL     1      10.905  12.314  25.415  0.00  0.00    +0.007 C 
ENDBRANCH  14  21
ENDBRANCH  10  14
BRANCH  13  20
ATOM     20  C   UNL     1      14.256   7.335  17.556  0.00  0.00    +0.140 C 
BRANCH  20   8
ATOM      5  O   UNL     1      18.448   8.664  22.230  0.00  0.00    -0.377 OA
ATOM      6  O   UNL     1      16.286   5.832  18.798  0.00  0.00    -0.253 OA
ATOM      8  N   UNL     1      15.022   7.744  18.713  0.00  0.00    -0.297 N 
ATOM      9  N   UNL     1      16.661   7.474  20.394  0.00  0.00    -0.281 N 
ATOM     23  C   UNL     1      16.010   6.941  19.268  0.00  0.00    +0.302 C 
ATOM     24  C   UNL     1      17.713   6.691  21.047  0.00  0.00    +0.137 C 
ATOM     25  C   UNL     1      16.295   8.708  21.103  0.00  0.00    +0.137 C 
ATOM     26  C   UNL     1      18.893   7.571  21.424  0.00  0.00    +0.179 C 
ATOM     27  C   UNL     1      17.540   9.492  21.503  0.00  0.00    +0.179 C 
ATOM     30  H   UNL     1      14.814   8.663  19.078  0.00  0.00    +0.150 HD
ENDBRANCH  20   8
ENDBRANCH  13  20
TORSDOF 6
ENDMDL
MODEL 7
REMARK VINA RESULT:      -6.5     27.681     29.972
REMARK  Name = 25390244
REMARK  7 active torsions:
REMARK  status: ('A' for Active; 'I' for Inactive)
REMARK    1  A    between atoms: O_2  and  C_11
REMARK    2  A    between atoms: O_3  and  C_12
REMARK    3  A    between atoms: N_8  and  C_20
REMARK    4  A    between atoms: C_10  and  C_14
REMARK    5  A    between atoms: C_13  and  C_20
REMARK    6  A    between atoms: C_14  and  C_21
REMARK    7  A    between atoms: C_15  and  C_22
REMARK                            x       y       z     vdW  Elec       q    Type
REMARK                         _______ _______ _______ _____ _____    ______ ____
ROOT
ATOM      1  O   UNL     1      -5.976 -11.593  17.045  0.00  0.00    -0.366 OA
ATOM     10  C   UNL     1      -4.609 -11.451  16.620  0.00  0.00    +0.159 C 
ATOM     11  C   UNL     1      -3.814 -11.156  17.880  0.00  0.00    +0.175 C 
ATOM     12  C   UNL     1      -4.549 -11.995  18.905  0.00  0.00    +0.176 C 
ATOM     13  C   UNL     1      -6.002 -11.827  18.472  0.00  0.00    +0.167 C 
ENDROOT
BRANCH  11   2
ATOM      2  O   UNL     1      -2.454 -11.505  17.744  0.00  0.00    -0.387 OA
ATOM     28  H   UNL     1      -2.293 -12.279  18.310  0.00  0.00    +0.210 HD
ENDBRANCH  11   2
BRANCH  12   3
ATOM      3  O   UNL     1      -4.200 -13.371  18.760  0.00  0.00    -0.387 OA
ATOM     29  H   UNL     1      -3.773 -13.651  19.588  0.00  0.00    +0.210 HD
ENDBRANCH  12   3
BRANCH  10  14
ATOM     14  C   UNL     1      -4.510 -10.355  15.574  0.00  0.00    +0.130 C 
BRANCH  14  21
ATOM      4  O   UNL     1      -2.255 -10.815  15.016  0.00  0.00    -0.276 OA
ATOM      7  N   UNL     1      -3.770 -10.784  13.256  0.00  0.00    -0.301 N 
ATOM     15  C   UNL     1      -4.133  -9.912  10.513  0.00  0.00    -0.011 C 
ATOM     16  C   UNL     1      -5.156  -9.578  11.611  0.00  0.00    +0.022 C 
ATOM     17  C   UNL     1      -2.737 -10.098  11.127  0.00  0.00    +0.022 C 
ATOM     18  C   UNL     1      -5.130 -10.620  12.728  0.00  0.00    +0.108 C 
ATOM     19  C   UNL     1      -2.762 -11.128  12.253  0.00  0.00    +0.108 C 
ATOM     21  C   UNL     1      -3.407 -10.672  14.598  0.00  0.00    +0.218 C 
ATOM     22  C   UNL     1      -4.116  -8.825   9.440  0.00  0.00    +0.007 C 
ENDBRANCH  14  21
ENDBRANCH  10  14
BRANCH  13  20
ATOM     20  C   UNL     1      -6.685 -10.635  19.128  0.00  0.00    +0.140 C 
BRANCH  20   8
ATOM      5  O   UNL     1     -11.394  -7.770  15.841  0.00  0.00    -0.377 OA
ATOM      6  O   UNL     1      -9.460 -11.077  18.972  0.00  0.00    -0.253 OA
ATOM      8  N   UNL     1      -7.593  -9.984  18.210  0.00  0.00    -0.297 N 
ATOM      9  N   UNL     1      -9.706  -9.550  17.242  0.00  0.00    -0.281 N 
ATOM     23  C   UNL     1      -8.955 -10.259  18.196  0.00  0.00    +0.302 C 
ATOM     24  C   UNL     1     -11.149  -9.783  17.154  0.00  0.00    +0.137 C 
ATOM     25  C   UNL     1      -9.167  -8.679  16.188  0.00  0.00    +0.137 C 
ATOM     26  C   UNL     1     -11.902  -8.475  16.975  0.00  0.00    +0.179 C 
ATOM     27  C   UNL     1     -10.021  -7.426  16.032  0.00  0.00    +0.179 C 
ATOM     30  H   UNL     1      -7.183  -9.295  17.595  0.00  0.00    +0.150 HD
ENDBRANCH  20   8
ENDBRANCH  13  20
TORSDOF 6
ENDMDL
MODEL 8
REMARK VINA RESULT:      -6.3      3.725      7.737
REMARK  Name = 25390244
REMARK  7 active torsions:
REMARK  status: ('A' for Active; 'I' for Inactive)
REMARK    1  A    between atoms: O_2  and  C_11
REMARK    2  A    between atoms: O_3  and  C_12
REMARK    3  A    between atoms: N_8  and  C_20
REMARK    4  A    between atoms: C_10  and  C_14
REMARK    5  A    between atoms: C_13  and  C_20
REMARK    6  A    between atoms: C_14  and  C_21
REMARK    7  A    between atoms: C_15  and  C_22
REMARK                            x       y       z     vdW  Elec       q    Type
REMARK                         _______ _______ _______ _____ _____    ______ ____
ROOT
ATOM      1  O   UNL     1      12.478   9.546  20.120  0.00  0.00    -0.366 OA
ATOM     10  C   UNL     1      12.662   8.307  19.414  0.00  0.00    +0.159 C 
ATOM     11  C   UNL     1      12.569   7.215  20.466  0.00  0.00    +0.175 C 
ATOM     12  C   UNL     1      11.522   7.785  21.401  0.00  0.00    +0.176 C 
ATOM     13  C   UNL     1      11.871   9.269  21.403  0.00  0.00    +0.167 C 
ENDROOT
BRANCH  11   2
ATOM      2  O   UNL     1      12.203   5.971  19.909  0.00  0.00    -0.387 OA
ATOM     28  H   UNL     1      13.007   5.425  19.864  0.00  0.00    +0.210 HD
ENDBRANCH  11   2
BRANCH  12   3
ATOM      3  O   UNL     1      10.220   7.636  20.835  0.00  0.00    -0.387 OA
ATOM     29  H   UNL     1      10.153   8.261  20.093  0.00  0.00    +0.210 HD
ENDBRANCH  12   3
BRANCH  10  14
ATOM     14  C   UNL     1      13.992   8.327  18.683  0.00  0.00    +0.130 C 
BRANCH  14  21
ATOM      4  O   UNL     1      13.470   7.808  16.432  0.00  0.00    -0.276 OA
ATOM      7  N   UNL     1      13.956  10.032  16.895  0.00  0.00    -0.301 N 
ATOM     15  C   UNL     1      15.361  12.364  15.893  0.00  0.00    -0.011 C 
ATOM     16  C   UNL     1      15.559  11.855  17.330  0.00  0.00    +0.022 C 
ATOM     17  C   UNL     1      14.951  11.206  14.971  0.00  0.00    +0.022 C 
ATOM     18  C   UNL     1      14.325  11.104  17.827  0.00  0.00    +0.108 C 
ATOM     19  C   UNL     1      13.730  10.470  15.517  0.00  0.00    +0.108 C 
ATOM     21  C   UNL     1      13.781   8.691  17.236  0.00  0.00    +0.218 C 
ATOM     22  C   UNL     1      16.627  13.046  15.380  0.00  0.00    +0.007 C 
ENDBRANCH  14  21
ENDBRANCH  10  14
BRANCH  13  20
ATOM     20  C   UNL     1      12.874   9.644  22.484  0.00  0.00    +0.140 C 
BRANCH  20   8
ATOM      5  O   UNL     1      11.187  14.482  26.348  0.00  0.00    -0.377 OA
ATOM      6  O   UNL     1      14.339  11.340  24.188  0.00  0.00    -0.253 OA
ATOM      8  N   UNL     1      12.310  10.600  23.411  0.00  0.00    -0.297 N 
ATOM      9  N   UNL     1      12.410  12.277  25.074  0.00  0.00    -0.281 N 
ATOM     23  C   UNL     1      13.105  11.403  24.221  0.00  0.00    +0.302 C 
ATOM     24  C   UNL     1      13.169  13.156  25.967  0.00  0.00    +0.137 C 
ATOM     25  C   UNL     1      10.956  12.309  25.285  0.00  0.00    +0.137 C 
ATOM     26  C   UNL     1      12.569  14.552  25.997  0.00  0.00    +0.179 C 
ATOM     27  C   UNL     1      10.452  13.745  25.370  0.00  0.00    +0.179 C 
ATOM     30  H   UNL     1      11.303  10.670  23.417  0.00  0.00    +0.150 HD
ENDBRANCH  20   8
ENDBRANCH  13  20
TORSDOF 6
ENDMDL
MODEL 9
REMARK VINA RESULT:      -6.0     27.856     30.752
REMARK  Name = 25390244
REMARK  7 active torsions:
REMARK  status: ('A' for Active; 'I' for Inactive)
REMARK    1  A    between atoms: O_2  and  C_11
REMARK    2  A    between atoms: O_3  and  C_12
REMARK    3  A    between atoms: N_8  and  C_20
REMARK    4  A    between atoms: C_10  and  C_14
REMARK    5  A    between atoms: C_13  and  C_20
REMARK    6  A    between atoms: C_14  and  C_21
REMARK    7  A    between atoms: C_15  and  C_22
REMARK                            x       y       z     vdW  Elec       q    Type
REMARK                         _______ _______ _______ _____ _____    ______ ____
ROOT
ATOM      1  O   UNL     1      -6.557 -11.156  16.727  0.00  0.00    -0.366 OA
ATOM     10  C   UNL     1      -5.139 -11.304  16.539  0.00  0.00    +0.159 C 
ATOM     11  C   UNL     1      -4.534 -11.282  17.932  0.00  0.00    +0.175 C 
ATOM     12  C   UNL     1      -5.600 -11.996  18.737  0.00  0.00    +0.176 C 
ATOM     13  C   UNL     1      -6.883 -11.471  18.101  0.00  0.00    +0.167 C 
ENDROOT
BRANCH  11   2
ATOM      2  O   UNL     1      -3.278 -11.924  17.974  0.00  0.00    -0.387 OA
ATOM     28  H   UNL     1      -2.658 -11.388  17.451  0.00  0.00    +0.210 HD
ENDBRANCH  11   2
BRANCH  12   3
ATOM      3  O   UNL     1      -5.535 -13.403  18.506  0.00  0.00    -0.387 OA
ATOM     29  H   UNL     1      -5.027 -13.794  19.238  0.00  0.00    +0.210 HD
ENDBRANCH  12   3
BRANCH  10  14
ATOM     14  C   UNL     1      -4.624 -10.194  15.641  0.00  0.00    +0.130 C 
BRANCH  14  21
ATOM      4  O   UNL     1      -2.459 -11.039  15.184  0.00  0.00    -0.276 OA
ATOM      7  N   UNL     1      -3.895 -10.837  13.369  0.00  0.00    -0.301 N 
ATOM     15  C   UNL     1      -4.027 -10.037  10.584  0.00  0.00    -0.011 C 
ATOM     16  C   UNL     1      -5.013  -9.494  11.629  0.00  0.00    +0.022 C 
ATOM     17  C   UNL     1      -2.699 -10.422  11.256  0.00  0.00    +0.022 C 
ATOM     18  C   UNL     1      -5.193 -10.476  12.786  0.00  0.00    +0.108 C 
ATOM     19  C   UNL     1      -2.928 -11.385  12.418  0.00  0.00    +0.108 C 
ATOM     21  C   UNL     1      -3.559 -10.729  14.718  0.00  0.00    +0.218 C 
ATOM     22  C   UNL     1      -3.798  -9.016   9.472  0.00  0.00    +0.007 C 
ENDBRANCH  14  21
ENDBRANCH  10  14
BRANCH  13  20
ATOM     20  C   UNL     1      -7.399 -10.200  18.761  0.00  0.00    +0.140 C 
BRANCH  20   8
ATOM      5  O   UNL     1     -13.765 -10.847  19.248  0.00  0.00    -0.377 OA
ATOM      6  O   UNL     1      -9.549  -9.226  17.229  0.00  0.00    -0.253 OA
ATOM      8  N   UNL     1      -8.799 -10.320  19.101  0.00  0.00    -0.297 N 
ATOM      9  N   UNL     1     -11.116  -9.998  18.757  0.00  0.00    -0.281 N 
ATOM     23  C   UNL     1      -9.804  -9.809  18.288  0.00  0.00    +0.302 C 
ATOM     24  C   UNL     1     -12.237  -9.486  17.965  0.00  0.00    +0.137 C 
ATOM     25  C   UNL     1     -11.498 -10.541  20.068  0.00  0.00    +0.137 C 
ATOM     26  C   UNL     1     -13.376 -10.491  17.920  0.00  0.00    +0.179 C 
ATOM     27  C   UNL     1     -12.689 -11.484  19.937  0.00  0.00    +0.179 C 
ATOM     30  H   UNL     1      -9.007 -10.821  19.953  0.00  0.00    +0.150 HD
ENDBRANCH  20   8
ENDBRANCH  13  20
TORSDOF 6
ENDMDL
MODEL 10
REMARK VINA RESULT:      -6.0     27.478     29.443
REMARK  Name = 25390244
REMARK  7 active torsions:
REMARK  status: ('A' for Active; 'I' for Inactive)
REMARK    1  A    between atoms: O_2  and  C_11
REMARK    2  A    between atoms: O_3  and  C_12
REMARK    3  A    between atoms: N_8  and  C_20
REMARK    4  A    between atoms: C_10  and  C_14
REMARK    5  A    between atoms: C_13  and  C_20
REMARK    6  A    between atoms: C_14  and  C_21
REMARK    7  A    between atoms: C_15  and  C_22
REMARK                            x       y       z     vdW  Elec       q    Type
REMARK                         _______ _______ _______ _____ _____    ______ ____
ROOT
ATOM      1  O   UNL     1      -3.552 -10.337  14.282  0.00  0.00    -0.366 OA
ATOM     10  C   UNL     1      -3.989 -11.513  14.985  0.00  0.00    +0.159 C 
ATOM     11  C   UNL     1      -3.225 -12.671  14.366  0.00  0.00    +0.175 C 
ATOM     12  C   UNL     1      -1.889 -12.024  14.061  0.00  0.00    +0.176 C 
ATOM     13  C   UNL     1      -2.308 -10.630  13.605  0.00  0.00    +0.167 C 
ENDROOT
BRANCH  11   2
ATOM      2  O   UNL     1      -3.125 -13.771  15.243  0.00  0.00    -0.387 OA
ATOM     28  H   UNL     1      -3.723 -14.463  14.912  0.00  0.00    +0.210 HD
ENDBRANCH  11   2
BRANCH  12   3
ATOM      3  O   UNL     1      -1.122 -11.887  15.256  0.00  0.00    -0.387 OA
ATOM     29  H   UNL     1      -0.448 -11.205  15.093  0.00  0.00    +0.210 HD
ENDBRANCH  12   3
BRANCH  10  14
ATOM     14  C   UNL     1      -5.495 -11.652  14.863  0.00  0.00    +0.130 C 
BRANCH  14  21
ATOM      4  O   UNL     1      -5.964 -13.194  16.598  0.00  0.00    -0.276 OA
ATOM      7  N   UNL     1      -6.753 -11.029  16.896  0.00  0.00    -0.301 N 
ATOM     15  C   UNL     1      -9.028  -9.489  17.829  0.00  0.00    -0.011 C 
ATOM     16  C   UNL     1      -8.390  -9.239  16.453  0.00  0.00    +0.022 C 
ATOM     17  C   UNL     1      -8.802 -10.946  18.261  0.00  0.00    +0.022 C 
ATOM     18  C   UNL     1      -6.917  -9.643  16.443  0.00  0.00    +0.108 C 
ATOM     19  C   UNL     1      -7.321 -11.313  18.215  0.00  0.00    +0.108 C 
ATOM     21  C   UNL     1      -6.088 -12.034  16.195  0.00  0.00    +0.218 C 
ATOM     22  C   UNL     1     -10.517  -9.153  17.806  0.00  0.00    +0.007 C 
ENDBRANCH  14  21
ENDBRANCH  10  14
BRANCH  13  20
ATOM     20  C   UNL     1      -2.561 -10.544  12.107  0.00  0.00    +0.140 C 
BRANCH  20   8
ATOM      5  O   UNL     1      -8.241  -8.549   9.883  0.00  0.00    -0.377 OA
ATOM      6  O   UNL     1      -3.324  -9.102   9.814  0.00  0.00    -0.253 OA
ATOM      8  N   UNL     1      -3.888 -10.042  11.829  0.00  0.00    -0.297 N 
ATOM      9  N   UNL     1      -5.518  -8.908  10.546  0.00  0.00    -0.281 N 
ATOM     23  C   UNL     1      -4.184  -9.336  10.670  0.00  0.00    +0.302 C 
ATOM     24  C   UNL     1      -5.917  -8.151   9.357  0.00  0.00    +0.137 C 
ATOM     25  C   UNL     1      -6.560  -9.011  11.577  0.00  0.00    +0.137 C 
ATOM     26  C   UNL     1      -7.267  -8.621   8.840  0.00  0.00    +0.179 C 
ATOM     27  C   UNL     1      -7.893  -9.420  10.960  0.00  0.00    +0.179 C 
ATOM     30  H   UNL     1      -4.596 -10.258  12.516  0.00  0.00    +0.150 HD
ENDBRANCH  20   8
ENDBRANCH  13  20
TORSDOF 6
ENDMDL
