REMARK  Name = 56775279
REMARK  3 active torsions:
REMARK  status: ('A' for Active; 'I' for Inactive)
REMARK    1  A    between atoms: N_7  and  C_15
REMARK    2  A    between atoms: C_15  and  C_17
REMARK    3  A    between atoms: C_16  and  C_18
REMARK                            x       y       z     vdW  Elec       q    Type
REMARK                         _______ _______ _______ _____ _____    ______ ____
ROOT
ATOM      2  O   UNL     1       0.612  -2.918   0.230  0.00  0.00    -0.364 OA
ATOM      3  O   UNL     1      -1.927  -2.219  -2.163  0.00  0.00    -0.273 OA
ATOM      4  O   UNL     1       4.460  -0.576   1.895  0.00  0.00    -0.267 OA
ATOM      6  N   UNL     1       2.366  -0.576   0.888  0.00  0.00    -0.291 N 
ATOM      7  N   UNL     1      -0.945  -0.778  -0.622  0.00  0.00    -0.288 N 
ATOM      9  C   UNL     1       0.048  -0.587   0.428  0.00  0.00    +0.124 C 
ATOM     10  C   UNL     1       0.413  -1.869   1.173  0.00  0.00    +0.158 C 
ATOM     11  C   UNL     1       1.402  -0.114  -0.108  0.00  0.00    +0.133 C 
ATOM     12  C   UNL     1       1.755  -1.528   1.809  0.00  0.00    +0.141 C 
ATOM     13  C   UNL     1      -1.201  -2.025  -1.186  0.00  0.00    +0.242 C 
ATOM     14  C   UNL     1      -0.585  -3.206  -0.457  0.00  0.00    +0.256 C 
ATOM     16  C   UNL     1       3.680  -0.160   1.040  0.00  0.00    +0.285 C 
ENDROOT
BRANCH  16  18
ATOM      5  O   UNL     1       3.652   0.918  -1.136  0.00  0.00    -0.350 OA
ATOM      8  N   UNL     1       4.253   1.951  -1.847  0.00  0.00    -0.086 NA
ATOM     18  C   UNL     1       4.179   0.870   0.114  0.00  0.00    +0.222 A 
ATOM     21  C   UNL     1       5.123   1.852   0.256  0.00  0.00    +0.077 A 
ATOM     25  C   UNL     1       5.127   2.494  -0.995  0.00  0.00    +0.157 A 
ENDBRANCH  16  18
BRANCH   7  15
ATOM     15  C   UNL     1      -1.550   0.421  -1.183  0.00  0.00    +0.143 C 
BRANCH  15  17
ATOM      1  F   UNL     1      -6.447   1.669   1.300  0.00  0.00    -0.205 F 
ATOM     17  C   UNL     1      -2.856   0.754  -0.521  0.00  0.00    -0.030 A 
ATOM     19  C   UNL     1      -4.047   0.233  -1.027  0.00  0.00    +0.008 A 
ATOM     20  C   UNL     1      -2.878   1.584   0.600  0.00  0.00    +0.008 A 
ATOM     22  C   UNL     1      -5.260   0.542  -0.412  0.00  0.00    +0.038 A 
ATOM     23  C   UNL     1      -4.091   1.894   1.215  0.00  0.00    +0.038 A 
ATOM     24  C   UNL     1      -5.282   1.373   0.709  0.00  0.00    +0.123 A 
ENDBRANCH  15  17
ENDBRANCH   7  15
TORSDOF 3
