MODEL 1
REMARK VINA RESULT:      -6.9      0.000      0.000
REMARK  Name = 7135440
REMARK  14 active torsions:
REMARK  status: ('A' for Active; 'I' for Inactive)
REMARK    1  A    between atoms: O_1  and  C_17
REMARK    2  A    between atoms: O_1  and  C_22
REMARK    3  A    between atoms: O_3  and  C_24
REMARK    4  A    between atoms: O_3  and  C_30
REMARK    5  A    between atoms: O_4  and  C_29
REMARK    6  A    between atoms: O_4  and  C_31
REMARK    7  A    between atoms: N_5  and  C_21
REMARK    8  A    between atoms: C_6  and  C_9
REMARK    9  A    between atoms: C_9  and  C_15
REMARK   10  A    between atoms: C_9  and  C_16
REMARK   11  A    between atoms: C_13  and  C_19
REMARK   12  A    between atoms: C_14  and  C_20
REMARK   13  A    between atoms: C_21  and  C_23
REMARK   14  A    between atoms: C_22  and  C_24
REMARK                            x       y       z     vdW  Elec       q    Type
REMARK                         _______ _______ _______ _____ _____    ______ ____
ROOT
ATOM      6  C   UNL     1      14.814   7.515  19.529  0.00  0.00    +0.005 C 
ATOM      7  C   UNL     1      15.087   9.021  19.498  0.00  0.00    +0.009 C 
ATOM      8  C   UNL     1      16.123   6.746  19.297  0.00  0.00    +0.040 C 
ATOM     10  C   UNL     1      16.037   9.418  20.626  0.00  0.00    +0.036 C 
ATOM     11  C   UNL     1      17.272   7.249  20.137  0.00  0.00    -0.037 A 
ATOM     12  C   UNL     1      17.247   8.524  20.730  0.00  0.00    -0.041 A 
ATOM     13  C   UNL     1      18.413   6.445  20.280  0.00  0.00    -0.005 A 
ATOM     14  C   UNL     1      18.350   8.954  21.484  0.00  0.00    -0.044 A 
ATOM     17  C   UNL     1      19.506   6.889  21.024  0.00  0.00    +0.124 A 
ATOM     18  C   UNL     1      19.473   8.142  21.627  0.00  0.00    +0.049 A 
ATOM     19  C   UNL     1      18.489   5.097  19.630  0.00  0.00    +0.048 C 
ATOM     20  C   UNL     1      18.358  10.286  22.166  0.00  0.00    +0.044 C 
ENDROOT
BRANCH   6   9
ATOM      9  C   UNL     1      13.770   7.127  18.485  0.00  0.00    +0.075 C 
ATOM     15  C   UNL     1      14.164   7.663  17.111  0.00  0.00    +0.017 C 
BRANCH   9  16
ATOM      2  O   UNL     1      11.546   7.987  18.045  0.00  0.00    -0.276 OA
ATOM      5  N   UNL     1      12.197   7.671  20.249  0.00  0.00    -0.311 N 
ATOM     16  C   UNL     1      12.385   7.643  18.874  0.00  0.00    +0.216 C 
ATOM     32  H   UNL     1      12.941   7.372  20.870  0.00  0.00    +0.149 HD
BRANCH   5  21
ATOM     21  C   UNL     1      10.966   8.117  20.858  0.00  0.00    +0.139 C 
BRANCH  21  23
ATOM     23  C   UNL     1      11.144   9.407  21.605  0.00  0.00    -0.030 A 
ATOM     25  C   UNL     1      10.671   9.529  22.912  0.00  0.00    +0.009 A 
ATOM     26  C   UNL     1      11.782  10.485  20.991  0.00  0.00    +0.009 A 
ATOM     27  C   UNL     1      10.837  10.728  23.604  0.00  0.00    +0.046 A 
ATOM     28  C   UNL     1      11.949  11.684  21.684  0.00  0.00    +0.046 A 
ATOM     29  C   UNL     1      11.475  11.806  22.990  0.00  0.00    +0.120 A 
BRANCH  29   4
ATOM      4  O   UNL     1      11.638  12.975  23.666  0.00  0.00    -0.495 OA
ATOM     31  C   UNL     1      10.969  13.099  24.921  0.00  0.00    +0.277 C 
ENDBRANCH  29   4
ENDBRANCH  21  23
ENDBRANCH   5  21
ENDBRANCH   9  16
ENDBRANCH   6   9
BRANCH  17   1
ATOM      1  O   UNL     1      20.616   6.111  21.170  0.00  0.00    -0.489 OA
BRANCH   1  22
ATOM     22  C   UNL     1      21.695   6.659  21.926  0.00  0.00    +0.257 C 
BRANCH  22  24
ATOM     24  C   UNL     1      21.971   5.761  23.116  0.00  0.00    +0.200 C 
BRANCH  24   3
ATOM      3  O   UNL     1      21.549   4.438  22.807  0.00  0.00    -0.380 OA
ATOM     30  C   UNL     1      22.617   3.509  22.929  0.00  0.00    +0.194 C 
ENDBRANCH  24   3
ENDBRANCH  22  24
ENDBRANCH   1  22
ENDBRANCH  17   1
TORSDOF 9
ENDMDL
MODEL 2
REMARK VINA RESULT:      -6.6     27.910     29.964
REMARK  Name = 7135440
REMARK  14 active torsions:
REMARK  status: ('A' for Active; 'I' for Inactive)
REMARK    1  A    between atoms: O_1  and  C_17
REMARK    2  A    between atoms: O_1  and  C_22
REMARK    3  A    between atoms: O_3  and  C_24
REMARK    4  A    between atoms: O_3  and  C_30
REMARK    5  A    between atoms: O_4  and  C_29
REMARK    6  A    between atoms: O_4  and  C_31
REMARK    7  A    between atoms: N_5  and  C_21
REMARK    8  A    between atoms: C_6  and  C_9
REMARK    9  A    between atoms: C_9  and  C_15
REMARK   10  A    between atoms: C_9  and  C_16
REMARK   11  A    between atoms: C_13  and  C_19
REMARK   12  A    between atoms: C_14  and  C_20
REMARK   13  A    between atoms: C_21  and  C_23
REMARK   14  A    between atoms: C_22  and  C_24
REMARK                            x       y       z     vdW  Elec       q    Type
REMARK                         _______ _______ _______ _____ _____    ______ ____
ROOT
ATOM      6  C   UNL     1      -4.423 -11.342  16.766  0.00  0.00    +0.005 C 
ATOM      7  C   UNL     1      -3.007 -10.804  16.550  0.00  0.00    +0.009 C 
ATOM      8  C   UNL     1      -5.409 -10.588  15.862  0.00  0.00    +0.040 C 
ATOM     10  C   UNL     1      -2.556 -11.043  15.110  0.00  0.00    +0.036 C 
ATOM     11  C   UNL     1      -4.937 -10.461  14.434  0.00  0.00    -0.037 A 
ATOM     12  C   UNL     1      -3.586 -10.637  14.087  0.00  0.00    -0.041 A 
ATOM     13  C   UNL     1      -5.863 -10.106  13.441  0.00  0.00    -0.005 A 
ATOM     14  C   UNL     1      -3.194 -10.488  12.747  0.00  0.00    -0.044 A 
ATOM     17  C   UNL     1      -5.459  -9.951  12.116  0.00  0.00    +0.124 A 
ATOM     18  C   UNL     1      -4.125 -10.145  11.769  0.00  0.00    +0.049 A 
ATOM     19  C   UNL     1      -7.303  -9.873  13.782  0.00  0.00    +0.048 C 
ATOM     20  C   UNL     1      -1.777 -10.701  12.320  0.00  0.00    +0.044 C 
ENDROOT
BRANCH   6   9
ATOM      9  C   UNL     1      -4.837 -11.222  18.231  0.00  0.00    +0.075 C 
ATOM     15  C   UNL     1      -3.885 -12.018  19.121  0.00  0.00    +0.017 C 
BRANCH   9  16
ATOM      2  O   UNL     1      -6.609 -12.874  18.320  0.00  0.00    -0.276 OA
ATOM      5  N   UNL     1      -7.132 -10.660  18.775  0.00  0.00    -0.311 N 
ATOM     16  C   UNL     1      -6.273 -11.698  18.439  0.00  0.00    +0.216 C 
ATOM     32  H   UNL     1      -6.779  -9.713  18.852  0.00  0.00    +0.149 HD
BRANCH   5  21
ATOM     21  C   UNL     1      -8.539 -10.863  19.025  0.00  0.00    +0.139 C 
BRANCH  21  23
ATOM     23  C   UNL     1      -9.391  -9.879  18.276  0.00  0.00    -0.030 A 
ATOM     25  C   UNL     1      -8.809  -9.015  17.348  0.00  0.00    +0.009 A 
ATOM     26  C   UNL     1     -10.765  -9.827  18.510  0.00  0.00    +0.009 A 
ATOM     27  C   UNL     1      -9.600  -8.102  16.652  0.00  0.00    +0.046 A 
ATOM     28  C   UNL     1     -11.558  -8.914  17.814  0.00  0.00    +0.046 A 
ATOM     29  C   UNL     1     -10.975  -8.051  16.886  0.00  0.00    +0.120 A 
BRANCH  29   4
ATOM      4  O   UNL     1     -11.747  -7.160  16.207  0.00  0.00    -0.495 OA
ATOM     31  C   UNL     1     -11.089  -6.024  15.646  0.00  0.00    +0.277 C 
ENDBRANCH  29   4
ENDBRANCH  21  23
ENDBRANCH   5  21
ENDBRANCH   9  16
ENDBRANCH   6   9
BRANCH  17   1
ATOM      1  O   UNL     1      -6.354  -9.609  11.146  0.00  0.00    -0.489 OA
BRANCH   1  22
ATOM     22  C   UNL     1      -5.919  -8.665  10.168  0.00  0.00    +0.257 C 
BRANCH  22  24
ATOM     24  C   UNL     1      -6.838  -8.743   8.964  0.00  0.00    +0.200 C 
BRANCH  24   3
ATOM      3  O   UNL     1      -7.944  -7.873   9.166  0.00  0.00    -0.380 OA
ATOM     30  C   UNL     1      -8.009  -6.870   8.162  0.00  0.00    +0.194 C 
ENDBRANCH  24   3
ENDBRANCH  22  24
ENDBRANCH   1  22
ENDBRANCH  17   1
TORSDOF 9
ENDMDL
MODEL 3
REMARK VINA RESULT:      -6.6     28.023     30.042
REMARK  Name = 7135440
REMARK  14 active torsions:
REMARK  status: ('A' for Active; 'I' for Inactive)
REMARK    1  A    between atoms: O_1  and  C_17
REMARK    2  A    between atoms: O_1  and  C_22
REMARK    3  A    between atoms: O_3  and  C_24
REMARK    4  A    between atoms: O_3  and  C_30
REMARK    5  A    between atoms: O_4  and  C_29
REMARK    6  A    between atoms: O_4  and  C_31
REMARK    7  A    between atoms: N_5  and  C_21
REMARK    8  A    between atoms: C_6  and  C_9
REMARK    9  A    between atoms: C_9  and  C_15
REMARK   10  A    between atoms: C_9  and  C_16
REMARK   11  A    between atoms: C_13  and  C_19
REMARK   12  A    between atoms: C_14  and  C_20
REMARK   13  A    between atoms: C_21  and  C_23
REMARK   14  A    between atoms: C_22  and  C_24
REMARK                            x       y       z     vdW  Elec       q    Type
REMARK                         _______ _______ _______ _____ _____    ______ ____
ROOT
ATOM      6  C   UNL     1      -6.017 -10.628  17.143  0.00  0.00    +0.005 C 
ATOM      7  C   UNL     1      -4.532 -10.378  17.420  0.00  0.00    +0.009 C 
ATOM      8  C   UNL     1      -6.422  -9.942  15.829  0.00  0.00    +0.040 C 
ATOM     10  C   UNL     1      -3.670 -10.991  16.317  0.00  0.00    +0.036 C 
ATOM     11  C   UNL     1      -5.462 -10.203  14.695  0.00  0.00    -0.037 A 
ATOM     12  C   UNL     1      -4.153 -10.660  14.928  0.00  0.00    -0.041 A 
ATOM     13  C   UNL     1      -5.872  -9.930  13.380  0.00  0.00    -0.005 A 
ATOM     14  C   UNL     1      -3.292 -10.868  13.840  0.00  0.00    -0.044 A 
ATOM     17  C   UNL     1      -5.003 -10.131  12.309  0.00  0.00    +0.124 A 
ATOM     18  C   UNL     1      -3.714 -10.602  12.539  0.00  0.00    +0.049 A 
ATOM     19  C   UNL     1      -7.247  -9.405  13.098  0.00  0.00    +0.048 C 
ATOM     20  C   UNL     1      -1.902 -11.388  14.031  0.00  0.00    +0.044 C 
ENDROOT
BRANCH   6   9
ATOM      9  C   UNL     1      -6.880 -10.129  18.299  0.00  0.00    +0.075 C 
ATOM     15  C   UNL     1      -6.375 -10.695  19.624  0.00  0.00    +0.017 C 
BRANCH   9  16
ATOM      2  O   UNL     1      -8.708 -11.640  17.792  0.00  0.00    -0.276 OA
ATOM      5  N   UNL     1      -9.201  -9.428  18.284  0.00  0.00    -0.311 N 
ATOM     16  C   UNL     1      -8.347 -10.505  18.092  0.00  0.00    +0.216 C 
ATOM     32  H   UNL     1      -8.825  -8.518  18.529  0.00  0.00    +0.149 HD
BRANCH   5  21
ATOM     21  C   UNL     1     -10.635  -9.535  18.149  0.00  0.00    +0.139 C 
BRANCH  21  23
ATOM     23  C   UNL     1     -11.199  -8.459  17.267  0.00  0.00    -0.030 A 
ATOM     25  C   UNL     1     -10.427  -7.342  16.948  0.00  0.00    +0.009 A 
ATOM     26  C   UNL     1     -12.495  -8.577  16.767  0.00  0.00    +0.009 A 
ATOM     27  C   UNL     1     -10.952  -6.343  16.128  0.00  0.00    +0.046 A 
ATOM     28  C   UNL     1     -13.020  -7.579  15.946  0.00  0.00    +0.046 A 
ATOM     29  C   UNL     1     -12.249  -6.461  15.628  0.00  0.00    +0.120 A 
BRANCH  29   4
ATOM      4  O   UNL     1     -12.760  -5.487  14.828  0.00  0.00    -0.495 OA
ATOM     31  C   UNL     1     -12.441  -5.552  13.438  0.00  0.00    +0.277 C 
ENDBRANCH  29   4
ENDBRANCH  21  23
ENDBRANCH   5  21
ENDBRANCH   9  16
ENDBRANCH   6   9
BRANCH  17   1
ATOM      1  O   UNL     1      -5.396  -9.871  11.030  0.00  0.00    -0.489 OA
BRANCH   1  22
ATOM     22  C   UNL     1      -4.974  -8.632  10.462  0.00  0.00    +0.257 C 
BRANCH  22  24
ATOM     24  C   UNL     1      -4.076  -8.915   9.273  0.00  0.00    +0.200 C 
BRANCH  24   3
ATOM      3  O   UNL     1      -4.497 -10.122   8.650  0.00  0.00    -0.380 OA
ATOM     30  C   UNL     1      -5.383  -9.869   7.568  0.00  0.00    +0.194 C 
ENDBRANCH  24   3
ENDBRANCH  22  24
ENDBRANCH   1  22
ENDBRANCH  17   1
TORSDOF 9
ENDMDL
MODEL 4
REMARK VINA RESULT:      -6.5      2.246      7.980
REMARK  Name = 7135440
REMARK  14 active torsions:
REMARK  status: ('A' for Active; 'I' for Inactive)
REMARK    1  A    between atoms: O_1  and  C_17
REMARK    2  A    between atoms: O_1  and  C_22
REMARK    3  A    between atoms: O_3  and  C_24
REMARK    4  A    between atoms: O_3  and  C_30
REMARK    5  A    between atoms: O_4  and  C_29
REMARK    6  A    between atoms: O_4  and  C_31
REMARK    7  A    between atoms: N_5  and  C_21
REMARK    8  A    between atoms: C_6  and  C_9
REMARK    9  A    between atoms: C_9  and  C_15
REMARK   10  A    between atoms: C_9  and  C_16
REMARK   11  A    between atoms: C_13  and  C_19
REMARK   12  A    between atoms: C_14  and  C_20
REMARK   13  A    between atoms: C_21  and  C_23
REMARK   14  A    between atoms: C_22  and  C_24
REMARK                            x       y       z     vdW  Elec       q    Type
REMARK                         _______ _______ _______ _____ _____    ______ ____
ROOT
ATOM      6  C   UNL     1      11.739   8.697  21.365  0.00  0.00    +0.005 C 
ATOM      7  C   UNL     1      10.563   9.055  22.279  0.00  0.00    +0.009 C 
ATOM      8  C   UNL     1      12.026   9.863  20.407  0.00  0.00    +0.040 C 
ATOM     10  C   UNL     1      10.907  10.265  23.146  0.00  0.00    +0.036 C 
ATOM     11  C   UNL     1      12.079  11.205  21.095  0.00  0.00    -0.037 A 
ATOM     12  C   UNL     1      11.517  11.403  22.369  0.00  0.00    -0.041 A 
ATOM     13  C   UNL     1      12.656  12.292  20.420  0.00  0.00    -0.005 A 
ATOM     14  C   UNL     1      11.575  12.676  22.957  0.00  0.00    -0.044 A 
ATOM     17  C   UNL     1      12.698  13.554  21.011  0.00  0.00    +0.124 A 
ATOM     18  C   UNL     1      12.160  13.745  22.280  0.00  0.00    +0.049 A 
ATOM     19  C   UNL     1      13.230  12.126  19.046  0.00  0.00    +0.048 C 
ATOM     20  C   UNL     1      11.025  12.931  24.325  0.00  0.00    +0.044 C 
ENDROOT
BRANCH   6   9
ATOM      9  C   UNL     1      11.454   7.416  20.584  0.00  0.00    +0.075 C 
ATOM     15  C   UNL     1      11.542   6.200  21.504  0.00  0.00    +0.017 C 
BRANCH   9  16
ATOM      2  O   UNL     1      12.057   7.306  18.239  0.00  0.00    -0.276 OA
ATOM      5  N   UNL     1      13.731   7.070  19.827  0.00  0.00    -0.311 N 
ATOM     16  C   UNL     1      12.420   7.260  19.412  0.00  0.00    +0.216 C 
ATOM     32  H   UNL     1      13.952   7.042  20.817  0.00  0.00    +0.149 HD
BRANCH   5  21
ATOM     21  C   UNL     1      14.826   6.901  18.902  0.00  0.00    +0.139 C 
BRANCH  21  23
ATOM     23  C   UNL     1      16.156   6.900  19.598  0.00  0.00    -0.030 A 
ATOM     25  C   UNL     1      17.136   5.978  19.232  0.00  0.00    +0.009 A 
ATOM     26  C   UNL     1      16.411   7.822  20.614  0.00  0.00    +0.009 A 
ATOM     27  C   UNL     1      18.371   5.978  19.879  0.00  0.00    +0.046 A 
ATOM     28  C   UNL     1      17.647   7.823  21.261  0.00  0.00    +0.046 A 
ATOM     29  C   UNL     1      18.627   6.900  20.894  0.00  0.00    +0.120 A 
BRANCH  29   4
ATOM      4  O   UNL     1      19.832   6.901  21.526  0.00  0.00    -0.495 OA
ATOM     31  C   UNL     1      20.963   6.474  20.767  0.00  0.00    +0.277 C 
ENDBRANCH  29   4
ENDBRANCH  21  23
ENDBRANCH   5  21
ENDBRANCH   9  16
ENDBRANCH   6   9
BRANCH  17   1
ATOM      1  O   UNL     1      13.260  14.613  20.363  0.00  0.00    -0.489 OA
BRANCH   1  22
ATOM     22  C   UNL     1      14.503  15.097  20.870  0.00  0.00    +0.257 C 
BRANCH  22  24
ATOM     24  C   UNL     1      15.559  14.974  19.788  0.00  0.00    +0.200 C 
BRANCH  24   3
ATOM      3  O   UNL     1      16.291  13.771  19.988  0.00  0.00    -0.380 OA
ATOM     30  C   UNL     1      16.422  13.463  21.369  0.00  0.00    +0.194 C 
ENDBRANCH  24   3
ENDBRANCH  22  24
ENDBRANCH   1  22
ENDBRANCH  17   1
TORSDOF 9
ENDMDL
MODEL 5
REMARK VINA RESULT:      -6.4     28.640     32.358
REMARK  Name = 7135440
REMARK  14 active torsions:
REMARK  status: ('A' for Active; 'I' for Inactive)
REMARK    1  A    between atoms: O_1  and  C_17
REMARK    2  A    between atoms: O_1  and  C_22
REMARK    3  A    between atoms: O_3  and  C_24
REMARK    4  A    between atoms: O_3  and  C_30
REMARK    5  A    between atoms: O_4  and  C_29
REMARK    6  A    between atoms: O_4  and  C_31
REMARK    7  A    between atoms: N_5  and  C_21
REMARK    8  A    between atoms: C_6  and  C_9
REMARK    9  A    between atoms: C_9  and  C_15
REMARK   10  A    between atoms: C_9  and  C_16
REMARK   11  A    between atoms: C_13  and  C_19
REMARK   12  A    between atoms: C_14  and  C_20
REMARK   13  A    between atoms: C_21  and  C_23
REMARK   14  A    between atoms: C_22  and  C_24
REMARK                            x       y       z     vdW  Elec       q    Type
REMARK                         _______ _______ _______ _____ _____    ______ ____
ROOT
ATOM      6  C   UNL     1     -16.039   3.177  27.406  0.00  0.00    +0.005 C 
ATOM      7  C   UNL     1     -16.464   1.715  27.567  0.00  0.00    +0.009 C 
ATOM      8  C   UNL     1     -16.387   3.963  28.680  0.00  0.00    +0.040 C 
ATOM     10  C   UNL     1     -15.698   1.058  28.714  0.00  0.00    +0.036 C 
ATOM     11  C   UNL     1     -15.963   3.265  29.949  0.00  0.00    -0.037 A 
ATOM     12  C   UNL     1     -15.677   1.888  29.972  0.00  0.00    -0.041 A 
ATOM     13  C   UNL     1     -15.908   3.999  31.143  0.00  0.00    -0.005 A 
ATOM     14  C   UNL     1     -15.308   1.282  31.183  0.00  0.00    -0.044 A 
ATOM     17  C   UNL     1     -15.550   3.383  32.341  0.00  0.00    +0.124 A 
ATOM     18  C   UNL     1     -15.247   2.024  32.360  0.00  0.00    +0.049 A 
ATOM     19  C   UNL     1     -16.244   5.460  31.163  0.00  0.00    +0.048 C 
ATOM     20  C   UNL     1     -14.958  -0.171  31.254  0.00  0.00    +0.044 C 
ENDROOT
BRANCH   6   9
ATOM      9  C   UNL     1     -16.706   3.809  26.186  0.00  0.00    +0.075 C 
ATOM     15  C   UNL     1     -18.158   3.351  26.075  0.00  0.00    +0.017 C 
BRANCH   9  16
ATOM      2  O   UNL     1     -16.182   2.459  24.241  0.00  0.00    -0.276 OA
ATOM      5  N   UNL     1     -14.984   4.414  24.589  0.00  0.00    -0.311 N 
ATOM     16  C   UNL     1     -15.947   3.466  24.905  0.00  0.00    +0.216 C 
ATOM     32  H   UNL     1     -14.848   5.220  25.190  0.00  0.00    +0.149 HD
BRANCH   5  21
ATOM     21  C   UNL     1     -14.141   4.311  23.422  0.00  0.00    +0.139 C 
BRANCH  21  23
ATOM     23  C   UNL     1     -14.002   5.626  22.711  0.00  0.00    -0.030 A 
ATOM     25  C   UNL     1     -12.954   5.828  21.813  0.00  0.00    +0.009 A 
ATOM     26  C   UNL     1     -14.922   6.647  22.949  0.00  0.00    +0.009 A 
ATOM     27  C   UNL     1     -12.826   7.050  21.153  0.00  0.00    +0.046 A 
ATOM     28  C   UNL     1     -14.795   7.870  22.288  0.00  0.00    +0.046 A 
ATOM     29  C   UNL     1     -13.746   8.071  21.391  0.00  0.00    +0.120 A 
BRANCH  29   4
ATOM      4  O   UNL     1     -13.622   9.263  20.747  0.00  0.00    -0.495 OA
ATOM     31  C   UNL     1     -12.335   9.586  20.221  0.00  0.00    +0.277 C 
ENDBRANCH  29   4
ENDBRANCH  21  23
ENDBRANCH   5  21
ENDBRANCH   9  16
ENDBRANCH   6   9
BRANCH  17   1
ATOM      1  O   UNL     1     -15.491   4.092  33.504  0.00  0.00    -0.489 OA
BRANCH   1  22
ATOM     22  C   UNL     1     -14.208   4.232  34.112  0.00  0.00    +0.257 C 
BRANCH  22  24
ATOM     24  C   UNL     1     -14.201   5.484  34.967  0.00  0.00    +0.200 C 
BRANCH  24   3
ATOM      3  O   UNL     1     -14.376   6.620  34.128  0.00  0.00    -0.380 OA
ATOM     30  C   UNL     1     -13.388   7.610  34.379  0.00  0.00    +0.194 C 
ENDBRANCH  24   3
ENDBRANCH  22  24
ENDBRANCH   1  22
ENDBRANCH  17   1
TORSDOF 9
ENDMDL
MODEL 6
REMARK VINA RESULT:      -6.3     17.360     21.883
REMARK  Name = 7135440
REMARK  14 active torsions:
REMARK  status: ('A' for Active; 'I' for Inactive)
REMARK    1  A    between atoms: O_1  and  C_17
REMARK    2  A    between atoms: O_1  and  C_22
REMARK    3  A    between atoms: O_3  and  C_24
REMARK    4  A    between atoms: O_3  and  C_30
REMARK    5  A    between atoms: O_4  and  C_29
REMARK    6  A    between atoms: O_4  and  C_31
REMARK    7  A    between atoms: N_5  and  C_21
REMARK    8  A    between atoms: C_6  and  C_9
REMARK    9  A    between atoms: C_9  and  C_15
REMARK   10  A    between atoms: C_9  and  C_16
REMARK   11  A    between atoms: C_13  and  C_19
REMARK   12  A    between atoms: C_14  and  C_20
REMARK   13  A    between atoms: C_21  and  C_23
REMARK   14  A    between atoms: C_22  and  C_24
REMARK                            x       y       z     vdW  Elec       q    Type
REMARK                         _______ _______ _______ _____ _____    ______ ____
ROOT
ATOM      6  C   UNL     1      11.091   4.467   1.213  0.00  0.00    +0.005 C 
ATOM      7  C   UNL     1      11.334   5.921   0.800  0.00  0.00    +0.009 C 
ATOM      8  C   UNL     1      11.013   4.369   2.744  0.00  0.00    +0.040 C 
ATOM     10  C   UNL     1      10.169   6.806   1.240  0.00  0.00    +0.036 C 
ATOM     11  C   UNL     1      10.121   5.414   3.368  0.00  0.00    -0.037 A 
ATOM     12  C   UNL     1       9.756   6.581   2.673  0.00  0.00    -0.041 A 
ATOM     13  C   UNL     1       9.693   5.240   4.693  0.00  0.00    -0.005 A 
ATOM     14  C   UNL     1       8.941   7.533   3.305  0.00  0.00    -0.044 A 
ATOM     17  C   UNL     1       8.892   6.198   5.313  0.00  0.00    +0.124 A 
ATOM     18  C   UNL     1       8.514   7.343   4.617  0.00  0.00    +0.049 A 
ATOM     19  C   UNL     1      10.094   4.027   5.476  0.00  0.00    +0.048 C 
ATOM     20  C   UNL     1       8.495   8.773   2.597  0.00  0.00    +0.044 C 
ENDROOT
BRANCH   6   9
ATOM      9  C   UNL     1      12.188   3.554   0.671  0.00  0.00    +0.075 C 
ATOM     15  C   UNL     1      13.551   3.976   1.215  0.00  0.00    +0.017 C 
BRANCH   9  16
ATOM      2  O   UNL     1      13.222   3.789  -1.510  0.00  0.00    -0.276 OA
ATOM      5  N   UNL     1      10.960   3.287  -1.403  0.00  0.00    -0.311 N 
ATOM     16  C   UNL     1      12.206   3.563  -0.857  0.00  0.00    +0.216 C 
ATOM     32  H   UNL     1      10.166   3.113  -0.796  0.00  0.00    +0.149 HD
BRANCH   5  21
ATOM     21  C   UNL     1      10.726   3.235  -2.827  0.00  0.00    +0.139 C 
BRANCH  21  23
ATOM     23  C   UNL     1       9.674   4.214  -3.260  0.00  0.00    -0.030 A 
ATOM     25  C   UNL     1       9.126   4.131  -4.540  0.00  0.00    +0.009 A 
ATOM     26  C   UNL     1       9.243   5.208  -2.381  0.00  0.00    +0.009 A 
ATOM     27  C   UNL     1       8.148   5.041  -4.941  0.00  0.00    +0.046 A 
ATOM     28  C   UNL     1       8.264   6.118  -2.782  0.00  0.00    +0.046 A 
ATOM     29  C   UNL     1       7.718   6.035  -4.062  0.00  0.00    +0.120 A 
BRANCH  29   4
ATOM      4  O   UNL     1       6.763   6.922  -4.454  0.00  0.00    -0.495 OA
ATOM     31  C   UNL     1       6.792   7.350  -5.815  0.00  0.00    +0.277 C 
ENDBRANCH  29   4
ENDBRANCH  21  23
ENDBRANCH   5  21
ENDBRANCH   9  16
ENDBRANCH   6   9
BRANCH  17   1
ATOM      1  O   UNL     1       8.470   6.033   6.598  0.00  0.00    -0.489 OA
BRANCH   1  22
ATOM     22  C   UNL     1       9.036   6.898   7.581  0.00  0.00    +0.257 C 
BRANCH  22  24
ATOM     24  C   UNL     1       9.976   6.097   8.462  0.00  0.00    +0.200 C 
BRANCH  24   3
ATOM      3  O   UNL     1       9.382   4.838   8.750  0.00  0.00    -0.380 OA
ATOM     30  C   UNL     1       8.951   4.761  10.101  0.00  0.00    +0.194 C 
ENDBRANCH  24   3
ENDBRANCH  22  24
ENDBRANCH   1  22
ENDBRANCH  17   1
TORSDOF 9
ENDMDL
MODEL 7
REMARK VINA RESULT:      -6.3     26.678     30.528
REMARK  Name = 7135440
REMARK  14 active torsions:
REMARK  status: ('A' for Active; 'I' for Inactive)
REMARK    1  A    between atoms: O_1  and  C_17
REMARK    2  A    between atoms: O_1  and  C_22
REMARK    3  A    between atoms: O_3  and  C_24
REMARK    4  A    between atoms: O_3  and  C_30
REMARK    5  A    between atoms: O_4  and  C_29
REMARK    6  A    between atoms: O_4  and  C_31
REMARK    7  A    between atoms: N_5  and  C_21
REMARK    8  A    between atoms: C_6  and  C_9
REMARK    9  A    between atoms: C_9  and  C_15
REMARK   10  A    between atoms: C_9  and  C_16
REMARK   11  A    between atoms: C_13  and  C_19
REMARK   12  A    between atoms: C_14  and  C_20
REMARK   13  A    between atoms: C_21  and  C_23
REMARK   14  A    between atoms: C_22  and  C_24
REMARK                            x       y       z     vdW  Elec       q    Type
REMARK                         _______ _______ _______ _____ _____    ______ ____
ROOT
ATOM      6  C   UNL     1     -14.576   6.544  22.805  0.00  0.00    +0.005 C 
ATOM      7  C   UNL     1     -15.459   7.778  23.012  0.00  0.00    +0.009 C 
ATOM      8  C   UNL     1     -13.754   6.703  21.517  0.00  0.00    +0.040 C 
ATOM     10  C   UNL     1     -14.599   9.028  23.188  0.00  0.00    +0.036 C 
ATOM     11  C   UNL     1     -13.084   8.050  21.396  0.00  0.00    -0.037 A 
ATOM     12  C   UNL     1     -13.509   9.155  22.155  0.00  0.00    -0.041 A 
ATOM     13  C   UNL     1     -12.050   8.213  20.462  0.00  0.00    -0.005 A 
ATOM     14  C   UNL     1     -12.867  10.391  21.989  0.00  0.00    -0.044 A 
ATOM     17  C   UNL     1     -11.427   9.449  20.300  0.00  0.00    +0.124 A 
ATOM     18  C   UNL     1     -11.833  10.538  21.066  0.00  0.00    +0.049 A 
ATOM     19  C   UNL     1     -11.598   7.066  19.609  0.00  0.00    +0.048 C 
ATOM     20  C   UNL     1     -13.255  11.588  22.798  0.00  0.00    +0.044 C 
ENDROOT
BRANCH   6   9
ATOM      9  C   UNL     1     -15.419   5.272  22.752  0.00  0.00    +0.075 C 
ATOM     15  C   UNL     1     -16.047   5.105  21.370  0.00  0.00    +0.017 C 
BRANCH   9  16
ATOM      2  O   UNL     1     -17.644   5.699  23.615  0.00  0.00    -0.276 OA
ATOM      5  N   UNL     1     -16.059   4.784  25.039  0.00  0.00    -0.311 N 
ATOM     16  C   UNL     1     -16.506   5.287  23.825  0.00  0.00    +0.216 C 
ATOM     32  H   UNL     1     -15.101   4.463  25.136  0.00  0.00    +0.149 HD
BRANCH   5  21
ATOM     21  C   UNL     1     -16.906   4.692  26.205  0.00  0.00    +0.139 C 
BRANCH  21  23
ATOM     23  C   UNL     1     -16.567   3.501  27.054  0.00  0.00    -0.030 A 
ATOM     25  C   UNL     1     -16.060   3.682  28.341  0.00  0.00    +0.009 A 
ATOM     26  C   UNL     1     -16.758   2.212  26.555  0.00  0.00    +0.009 A 
ATOM     27  C   UNL     1     -15.746   2.575  29.129  0.00  0.00    +0.046 A 
ATOM     28  C   UNL     1     -16.443   1.105  27.343  0.00  0.00    +0.046 A 
ATOM     29  C   UNL     1     -15.937   1.287  28.630  0.00  0.00    +0.120 A 
BRANCH  29   4
ATOM      4  O   UNL     1     -15.630   0.207  29.399  0.00  0.00    -0.495 OA
ATOM     31  C   UNL     1     -14.251  -0.148  29.501  0.00  0.00    +0.277 C 
ENDBRANCH  29   4
ENDBRANCH  21  23
ENDBRANCH   5  21
ENDBRANCH   9  16
ENDBRANCH   6   9
BRANCH  17   1
ATOM      1  O   UNL     1     -10.418   9.613  19.397  0.00  0.00    -0.489 OA
BRANCH   1  22
ATOM     22  C   UNL     1     -10.486  10.761  18.553  0.00  0.00    +0.257 C 
BRANCH  22  24
ATOM     24  C   UNL     1     -10.066  10.367  17.150  0.00  0.00    +0.200 C 
BRANCH  24   3
ATOM      3  O   UNL     1     -11.092   9.578  16.561  0.00  0.00    -0.380 OA
ATOM     30  C   UNL     1     -10.593   8.326  16.110  0.00  0.00    +0.194 C 
ENDBRANCH  24   3
ENDBRANCH  22  24
ENDBRANCH   1  22
ENDBRANCH  17   1
TORSDOF 9
ENDMDL
MODEL 8
REMARK VINA RESULT:      -6.3      3.140     10.598
REMARK  Name = 7135440
REMARK  14 active torsions:
REMARK  status: ('A' for Active; 'I' for Inactive)
REMARK    1  A    between atoms: O_1  and  C_17
REMARK    2  A    between atoms: O_1  and  C_22
REMARK    3  A    between atoms: O_3  and  C_24
REMARK    4  A    between atoms: O_3  and  C_30
REMARK    5  A    between atoms: O_4  and  C_29
REMARK    6  A    between atoms: O_4  and  C_31
REMARK    7  A    between atoms: N_5  and  C_21
REMARK    8  A    between atoms: C_6  and  C_9
REMARK    9  A    between atoms: C_9  and  C_15
REMARK   10  A    between atoms: C_9  and  C_16
REMARK   11  A    between atoms: C_13  and  C_19
REMARK   12  A    between atoms: C_14  and  C_20
REMARK   13  A    between atoms: C_21  and  C_23
REMARK   14  A    between atoms: C_22  and  C_24
REMARK                            x       y       z     vdW  Elec       q    Type
REMARK                         _______ _______ _______ _____ _____    ______ ____
ROOT
ATOM      6  C   UNL     1      19.242   7.310  21.414  0.00  0.00    +0.005 C 
ATOM      7  C   UNL     1      19.374   8.626  22.185  0.00  0.00    +0.009 C 
ATOM      8  C   UNL     1      17.758   6.958  21.236  0.00  0.00    +0.040 C 
ATOM     10  C   UNL     1      18.740   9.773  21.400  0.00  0.00    +0.036 C 
ATOM     11  C   UNL     1      16.920   8.118  20.755  0.00  0.00    -0.037 A 
ATOM     12  C   UNL     1      17.367   9.446  20.869  0.00  0.00    -0.041 A 
ATOM     13  C   UNL     1      15.642   7.864  20.233  0.00  0.00    -0.005 A 
ATOM     14  C   UNL     1      16.541  10.491  20.426  0.00  0.00    -0.044 A 
ATOM     17  C   UNL     1      14.828   8.911  19.806  0.00  0.00    +0.124 A 
ATOM     18  C   UNL     1      15.278  10.224  19.900  0.00  0.00    +0.049 A 
ATOM     19  C   UNL     1      15.119   6.463  20.133  0.00  0.00    +0.048 C 
ATOM     20  C   UNL     1      16.984  11.918  20.491  0.00  0.00    +0.044 C 
ENDROOT
BRANCH   6   9
ATOM      9  C   UNL     1      19.981   6.181  22.129  0.00  0.00    +0.075 C 
ATOM     15  C   UNL     1      21.019   6.750  23.094  0.00  0.00    +0.017 C 
BRANCH   9  16
ATOM      2  O   UNL     1      20.081   4.817  20.127  0.00  0.00    -0.276 OA
ATOM      5  N   UNL     1      21.959   4.938  21.483  0.00  0.00    -0.311 N 
ATOM     16  C   UNL     1      20.652   5.242  21.129  0.00  0.00    +0.216 C 
ATOM     32  H   UNL     1      22.361   5.327  22.329  0.00  0.00    +0.149 HD
BRANCH   5  21
ATOM     21  C   UNL     1      22.801   4.072  20.691  0.00  0.00    +0.139 C 
BRANCH  21  23
ATOM     23  C   UNL     1      23.414   2.976  21.514  0.00  0.00    -0.030 A 
ATOM     25  C   UNL     1      24.286   2.063  20.923  0.00  0.00    +0.009 A 
ATOM     26  C   UNL     1      23.109   2.872  22.872  0.00  0.00    +0.009 A 
ATOM     27  C   UNL     1      24.855   1.045  21.689  0.00  0.00    +0.046 A 
ATOM     28  C   UNL     1      23.679   1.855  23.639  0.00  0.00    +0.046 A 
ATOM     29  C   UNL     1      24.551   0.941  23.047  0.00  0.00    +0.120 A 
BRANCH  29   4
ATOM      4  O   UNL     1      25.106  -0.051  23.794  0.00  0.00    -0.495 OA
ATOM     31  C   UNL     1      26.168  -0.796  23.199  0.00  0.00    +0.277 C 
ENDBRANCH  29   4
ENDBRANCH  21  23
ENDBRANCH   5  21
ENDBRANCH   9  16
ENDBRANCH   6   9
BRANCH  17   1
ATOM      1  O   UNL     1      13.587   8.671  19.295  0.00  0.00    -0.489 OA
BRANCH   1  22
ATOM     22  C   UNL     1      12.499   9.393  19.870  0.00  0.00    +0.257 C 
BRANCH  22  24
ATOM     24  C   UNL     1      11.266   8.510  19.870  0.00  0.00    +0.200 C 
BRANCH  24   3
ATOM      3  O   UNL     1      11.668   7.150  19.969  0.00  0.00    -0.380 OA
ATOM     30  C   UNL     1      11.508   6.653  21.290  0.00  0.00    +0.194 C 
ENDBRANCH  24   3
ENDBRANCH  22  24
ENDBRANCH   1  22
ENDBRANCH  17   1
TORSDOF 9
ENDMDL
MODEL 9
REMARK VINA RESULT:      -6.2     14.908     19.475
REMARK  Name = 7135440
REMARK  14 active torsions:
REMARK  status: ('A' for Active; 'I' for Inactive)
REMARK    1  A    between atoms: O_1  and  C_17
REMARK    2  A    between atoms: O_1  and  C_22
REMARK    3  A    between atoms: O_3  and  C_24
REMARK    4  A    between atoms: O_3  and  C_30
REMARK    5  A    between atoms: O_4  and  C_29
REMARK    6  A    between atoms: O_4  and  C_31
REMARK    7  A    between atoms: N_5  and  C_21
REMARK    8  A    between atoms: C_6  and  C_9
REMARK    9  A    between atoms: C_9  and  C_15
REMARK   10  A    between atoms: C_9  and  C_16
REMARK   11  A    between atoms: C_13  and  C_19
REMARK   12  A    between atoms: C_14  and  C_20
REMARK   13  A    between atoms: C_21  and  C_23
REMARK   14  A    between atoms: C_22  and  C_24
REMARK                            x       y       z     vdW  Elec       q    Type
REMARK                         _______ _______ _______ _____ _____    ______ ____
ROOT
ATOM      6  C   UNL     1       9.958   6.338   4.998  0.00  0.00    +0.005 C 
ATOM      7  C   UNL     1       8.780   7.107   4.395  0.00  0.00    +0.009 C 
ATOM      8  C   UNL     1      10.288   5.121   4.120  0.00  0.00    +0.040 C 
ATOM     10  C   UNL     1       9.144   7.647   3.012  0.00  0.00    +0.036 C 
ATOM     11  C   UNL     1      10.367   5.448   2.648  0.00  0.00    -0.037 A 
ATOM     12  C   UNL     1       9.793   6.619   2.122  0.00  0.00    -0.041 A 
ATOM     13  C   UNL     1      10.980   4.531   1.780  0.00  0.00    -0.005 A 
ATOM     14  C   UNL     1       9.875   6.866   0.743  0.00  0.00    -0.044 A 
ATOM     17  C   UNL     1      11.046   4.784   0.411  0.00  0.00    +0.124 A 
ATOM     18  C   UNL     1      10.496   5.953  -0.107  0.00  0.00    +0.049 A 
ATOM     19  C   UNL     1      11.568   3.255   2.302  0.00  0.00    +0.048 C 
ATOM     20  C   UNL     1       9.314   8.114   0.138  0.00  0.00    +0.044 C 
ENDROOT
BRANCH   6   9
ATOM      9  C   UNL     1       9.652   5.901   6.428  0.00  0.00    +0.075 C 
ATOM     15  C   UNL     1       8.578   6.798   7.041  0.00  0.00    +0.017 C 
BRANCH   9  16
ATOM      2  O   UNL     1      10.939   5.487   8.441  0.00  0.00    -0.276 OA
ATOM      5  N   UNL     1      11.997   6.482   6.632  0.00  0.00    -0.311 N 
ATOM     16  C   UNL     1      10.911   5.923   7.293  0.00  0.00    +0.216 C 
ATOM     32  H   UNL     1      11.894   6.822   5.682  0.00  0.00    +0.149 HD
BRANCH   5  21
ATOM     21  C   UNL     1      13.299   6.609   7.242  0.00  0.00    +0.139 C 
BRANCH  21  23
ATOM     23  C   UNL     1      14.026   7.834   6.767  0.00  0.00    -0.030 A 
ATOM     25  C   UNL     1      15.312   7.723   6.240  0.00  0.00    +0.009 A 
ATOM     26  C   UNL     1      13.413   9.084   6.853  0.00  0.00    +0.009 A 
ATOM     27  C   UNL     1      15.986   8.861   5.798  0.00  0.00    +0.046 A 
ATOM     28  C   UNL     1      14.086  10.223   6.410  0.00  0.00    +0.046 A 
ATOM     29  C   UNL     1      15.373  10.112   5.883  0.00  0.00    +0.120 A 
BRANCH  29   4
ATOM      4  O   UNL     1      16.030  11.222   5.452  0.00  0.00    -0.495 OA
ATOM     31  C   UNL     1      15.496  12.487   5.844  0.00  0.00    +0.277 C 
ENDBRANCH  29   4
ENDBRANCH  21  23
ENDBRANCH   5  21
ENDBRANCH   9  16
ENDBRANCH   6   9
BRANCH  17   1
ATOM      1  O   UNL     1      11.644   3.900  -0.437  0.00  0.00    -0.489 OA
BRANCH   1  22
ATOM     22  C   UNL     1      11.123   3.821  -1.762  0.00  0.00    +0.257 C 
BRANCH  22  24
ATOM     24  C   UNL     1      11.374   2.429  -2.310  0.00  0.00    +0.200 C 
BRANCH  24   3
ATOM      3  O   UNL     1      10.147   1.887  -2.781  0.00  0.00    -0.380 OA
ATOM     30  C   UNL     1       9.587   2.685  -3.815  0.00  0.00    +0.194 C 
ENDBRANCH  24   3
ENDBRANCH  22  24
ENDBRANCH   1  22
ENDBRANCH  17   1
TORSDOF 9
ENDMDL
MODEL 10
REMARK VINA RESULT:      -6.2     26.755     30.317
REMARK  Name = 7135440
REMARK  14 active torsions:
REMARK  status: ('A' for Active; 'I' for Inactive)
REMARK    1  A    between atoms: O_1  and  C_17
REMARK    2  A    between atoms: O_1  and  C_22
REMARK    3  A    between atoms: O_3  and  C_24
REMARK    4  A    between atoms: O_3  and  C_30
REMARK    5  A    between atoms: O_4  and  C_29
REMARK    6  A    between atoms: O_4  and  C_31
REMARK    7  A    between atoms: N_5  and  C_21
REMARK    8  A    between atoms: C_6  and  C_9
REMARK    9  A    between atoms: C_9  and  C_15
REMARK   10  A    between atoms: C_9  and  C_16
REMARK   11  A    between atoms: C_13  and  C_19
REMARK   12  A    between atoms: C_14  and  C_20
REMARK   13  A    between atoms: C_21  and  C_23
REMARK   14  A    between atoms: C_22  and  C_24
REMARK                            x       y       z     vdW  Elec       q    Type
REMARK                         _______ _______ _______ _____ _____    ______ ____
ROOT
ATOM      6  C   UNL     1      -3.990 -11.460  15.559  0.00  0.00    +0.005 C 
ATOM      7  C   UNL     1      -4.540 -10.329  14.685  0.00  0.00    +0.009 C 
ATOM      8  C   UNL     1      -4.404 -11.234  17.021  0.00  0.00    +0.040 C 
ATOM     10  C   UNL     1      -6.067 -10.322  14.715  0.00  0.00    +0.036 C 
ATOM     11  C   UNL     1      -5.864 -10.893  17.185  0.00  0.00    -0.037 A 
ATOM     12  C   UNL     1      -6.637 -10.426  16.107  0.00  0.00    -0.041 A 
ATOM     13  C   UNL     1      -6.447 -10.993  18.458  0.00  0.00    -0.005 A 
ATOM     14  C   UNL     1      -7.987 -10.102  16.317  0.00  0.00    -0.044 A 
ATOM     17  C   UNL     1      -7.786 -10.658  18.655  0.00  0.00    +0.124 A 
ATOM     18  C   UNL     1      -8.556 -10.215  17.583  0.00  0.00    +0.049 A 
ATOM     19  C   UNL     1      -5.643 -11.451  19.637  0.00  0.00    +0.048 C 
ATOM     20  C   UNL     1      -8.862  -9.636  15.196  0.00  0.00    +0.044 C 
ENDROOT
BRANCH   6   9
ATOM      9  C   UNL     1      -2.471 -11.555  15.438  0.00  0.00    +0.075 C 
ATOM     15  C   UNL     1      -1.811 -10.295  15.994  0.00  0.00    +0.017 C 
BRANCH   9  16
ATOM      2  O   UNL     1      -1.785 -12.883  13.528  0.00  0.00    -0.276 OA
ATOM      5  N   UNL     1      -2.000 -10.588  13.265  0.00  0.00    -0.311 N 
ATOM     16  C   UNL     1      -2.047 -11.773  13.986  0.00  0.00    +0.216 C 
ATOM     32  H   UNL     1      -2.229  -9.708  13.716  0.00  0.00    +0.149 HD
BRANCH   5  21
ATOM     21  C   UNL     1      -1.629 -10.538  11.870  0.00  0.00    +0.139 C 
BRANCH  21  23
ATOM     23  C   UNL     1      -2.824 -10.362  10.977  0.00  0.00    -0.030 A 
ATOM     25  C   UNL     1      -3.036  -9.146  10.327  0.00  0.00    +0.009 A 
ATOM     26  C   UNL     1      -3.721 -11.415  10.799  0.00  0.00    +0.009 A 
ATOM     27  C   UNL     1      -4.145  -8.984   9.497  0.00  0.00    +0.046 A 
ATOM     28  C   UNL     1      -4.831 -11.252   9.968  0.00  0.00    +0.046 A 
ATOM     29  C   UNL     1      -5.043 -10.037   9.319  0.00  0.00    +0.120 A 
BRANCH  29   4
ATOM      4  O   UNL     1      -6.125  -9.878   8.509  0.00  0.00    -0.495 OA
ATOM     31  C   UNL     1      -6.883  -8.679   8.665  0.00  0.00    +0.277 C 
ENDBRANCH  29   4
ENDBRANCH  21  23
ENDBRANCH   5  21
ENDBRANCH   9  16
ENDBRANCH   6   9
BRANCH  17   1
ATOM      1  O   UNL     1      -8.359 -10.757  19.888  0.00  0.00    -0.489 OA
BRANCH   1  22
ATOM     22  C   UNL     1      -9.697 -11.248  19.942  0.00  0.00    +0.257 C 
BRANCH  22  24
ATOM     24  C   UNL     1      -9.664 -12.759  20.073  0.00  0.00    +0.200 C 
BRANCH  24   3
ATOM      3  O   UNL     1     -10.662 -13.167  21.000  0.00  0.00    -0.380 OA
ATOM     30  C   UNL     1     -11.911 -12.546  20.728  0.00  0.00    +0.194 C 
ENDBRANCH  24   3
ENDBRANCH  22  24
ENDBRANCH   1  22
ENDBRANCH  17   1
TORSDOF 9
ENDMDL
