MODEL 1
REMARK VINA RESULT:      -7.7      0.000      0.000
REMARK  Name = 26744962
REMARK  6 active torsions:
REMARK  status: ('A' for Active; 'I' for Inactive)
REMARK    1  A    between atoms: N_3  and  C_13
REMARK    2  A    between atoms: C_8  and  C_14
REMARK    3  A    between atoms: C_13  and  C_15
REMARK    4  A    between atoms: C_17  and  C_18
REMARK    5  A    between atoms: C_18  and  C_21
REMARK    6  A    between atoms: C_18  and  C_22
REMARK                            x       y       z     vdW  Elec       q    Type
REMARK                         _______ _______ _______ _____ _____    ______ ____
ROOT
ATOM      3  N   UNL     1      14.402   7.461  19.350  0.00  0.00    -0.281 NA
ATOM      4  N   UNL     1      11.829   6.494  21.902  0.00  0.00    -0.347 N 
ATOM      5  N   UNL     1      10.503   7.926  20.810  0.00  0.00    -0.240 NA
ATOM      8  C   UNL     1      13.380   7.803  18.301  0.00  0.00    +0.152 C 
ATOM      9  C   UNL     1      12.095   8.468  18.911  0.00  0.00    +0.086 C 
ATOM     10  C   UNL     1      13.872   6.501  20.363  0.00  0.00    +0.140 C 
ATOM     11  C   UNL     1      12.524   6.909  20.808  0.00  0.00    +0.053 A 
ATOM     12  C   UNL     1      11.690   7.777  20.152  0.00  0.00    +0.065 A 
ATOM     16  C   UNL     1      10.615   7.136  21.860  0.00  0.00    +0.197 A 
ATOM     26  H   UNL     1      12.137   5.840  22.608  0.00  0.00    +0.167 HD
ENDROOT
BRANCH   8  14
ATOM      2  O   UNL     1      13.890   8.227  15.939  0.00  0.00    -0.336 OA
ATOM      6  N   UNL     1      14.382   9.939  17.298  0.00  0.00    -0.194 NA
ATOM      7  N   UNL     1      14.413   9.237  15.121  0.00  0.00    -0.061 NA
ATOM     14  C   UNL     1      13.906   8.723  17.204  0.00  0.00    +0.245 A 
ATOM     17  C   UNL     1      14.680  10.212  15.994  0.00  0.00    +0.174 A 
BRANCH  17  18
ATOM     18  C   UNL     1      15.257  11.495  15.575  0.00  0.00    +0.054 C 
ATOM     21  C   UNL     1      16.378  11.344  14.516  0.00  0.00    +0.015 C 
ATOM     22  C   UNL     1      15.795  12.340  16.757  0.00  0.00    +0.015 C 
ENDBRANCH  17  18
ENDBRANCH   8  14
BRANCH   3  13
ATOM     13  C   UNL     1      15.625   6.886  18.773  0.00  0.00    +0.120 C 
BRANCH  13  15
ATOM      1  F   UNL     1      20.020   7.362  22.266  0.00  0.00    -0.205 F 
ATOM     15  C   UNL     1      16.800   7.014  19.706  0.00  0.00    -0.033 A 
ATOM     19  C   UNL     1      16.869   8.085  20.597  0.00  0.00    +0.008 A 
ATOM     20  C   UNL     1      17.818   6.061  19.681  0.00  0.00    +0.008 A 
ATOM     23  C   UNL     1      17.957   8.203  21.462  0.00  0.00    +0.038 A 
ATOM     24  C   UNL     1      18.905   6.179  20.545  0.00  0.00    +0.038 A 
ATOM     25  C   UNL     1      18.975   7.250  21.436  0.00  0.00    +0.123 A 
ENDBRANCH  13  15
ENDBRANCH   3  13
TORSDOF 4
ENDMDL
MODEL 2
REMARK VINA RESULT:      -7.1      3.601      6.545
REMARK  Name = 26744962
REMARK  6 active torsions:
REMARK  status: ('A' for Active; 'I' for Inactive)
REMARK    1  A    between atoms: N_3  and  C_13
REMARK    2  A    between atoms: C_8  and  C_14
REMARK    3  A    between atoms: C_13  and  C_15
REMARK    4  A    between atoms: C_17  and  C_18
REMARK    5  A    between atoms: C_18  and  C_21
REMARK    6  A    between atoms: C_18  and  C_22
REMARK                            x       y       z     vdW  Elec       q    Type
REMARK                         _______ _______ _______ _____ _____    ______ ____
ROOT
ATOM      3  N   UNL     1      15.055   7.529  19.560  0.00  0.00    -0.281 NA
ATOM      4  N   UNL     1      18.487   6.054  19.895  0.00  0.00    -0.347 N 
ATOM      5  N   UNL     1      18.830   7.701  21.368  0.00  0.00    -0.240 NA
ATOM      8  C   UNL     1      15.055   8.101  20.951  0.00  0.00    +0.152 C 
ATOM      9  C   UNL     1      16.469   8.629  21.382  0.00  0.00    +0.086 C 
ATOM     10  C   UNL     1      15.993   6.376  19.424  0.00  0.00    +0.140 C 
ATOM     11  C   UNL     1      17.294   6.691  20.050  0.00  0.00    +0.053 A 
ATOM     12  C   UNL     1      17.527   7.688  20.960  0.00  0.00    +0.065 A 
ATOM     16  C   UNL     1      19.383   6.701  20.710  0.00  0.00    +0.197 A 
ATOM     26  H   UNL     1      18.681   5.259  19.302  0.00  0.00    +0.167 HD
ENDROOT
BRANCH   8  14
ATOM      2  O   UNL     1      14.330  10.406  20.527  0.00  0.00    -0.336 OA
ATOM      6  N   UNL     1      12.947   9.247  21.854  0.00  0.00    -0.194 NA
ATOM      7  N   UNL     1      13.285  11.279  20.858  0.00  0.00    -0.061 NA
ATOM     14  C   UNL     1      14.052   9.234  21.153  0.00  0.00    +0.245 A 
ATOM     17  C   UNL     1      12.511  10.523  21.643  0.00  0.00    +0.174 A 
BRANCH  17  18
ATOM     18  C   UNL     1      11.272  11.036  22.238  0.00  0.00    +0.054 C 
ATOM     21  C   UNL     1      11.044  12.546  21.973  0.00  0.00    +0.015 C 
ATOM     22  C   UNL     1      11.170  10.774  23.762  0.00  0.00    +0.015 C 
ENDBRANCH  17  18
ENDBRANCH   8  14
BRANCH   3  13
ATOM     13  C   UNL     1      13.720   7.083  19.140  0.00  0.00    +0.120 C 
BRANCH  13  15
ATOM      1  F   UNL     1      11.790  10.063  14.765  0.00  0.00    -0.205 F 
ATOM     15  C   UNL     1      13.204   7.878  17.970  0.00  0.00    -0.033 A 
ATOM     19  C   UNL     1      11.840   8.143  17.855  0.00  0.00    +0.008 A 
ATOM     20  C   UNL     1      14.090   8.353  17.003  0.00  0.00    +0.008 A 
ATOM     23  C   UNL     1      11.362   8.881  16.772  0.00  0.00    +0.038 A 
ATOM     24  C   UNL     1      13.613   9.089  15.921  0.00  0.00    +0.038 A 
ATOM     25  C   UNL     1      12.248   9.354  15.805  0.00  0.00    +0.123 A 
ENDBRANCH  13  15
ENDBRANCH   3  13
TORSDOF 4
ENDMDL
MODEL 3
REMARK VINA RESULT:      -6.5      2.850      3.571
REMARK  Name = 26744962
REMARK  6 active torsions:
REMARK  status: ('A' for Active; 'I' for Inactive)
REMARK    1  A    between atoms: N_3  and  C_13
REMARK    2  A    between atoms: C_8  and  C_14
REMARK    3  A    between atoms: C_13  and  C_15
REMARK    4  A    between atoms: C_17  and  C_18
REMARK    5  A    between atoms: C_18  and  C_21
REMARK    6  A    between atoms: C_18  and  C_22
REMARK                            x       y       z     vdW  Elec       q    Type
REMARK                         _______ _______ _______ _____ _____    ______ ____
ROOT
ATOM      3  N   UNL     1      12.666   9.101  21.507  0.00  0.00    -0.281 NA
ATOM      4  N   UNL     1      10.991  10.698  24.459  0.00  0.00    -0.347 N 
ATOM      5  N   UNL     1      11.241  12.602  23.314  0.00  0.00    -0.240 NA
ATOM      8  C   UNL     1      12.195  10.153  20.542  0.00  0.00    +0.152 C 
ATOM      9  C   UNL     1      12.170  11.586  21.182  0.00  0.00    +0.086 C 
ATOM     10  C   UNL     1      11.791   9.008  22.713  0.00  0.00    +0.140 C 
ATOM     11  C   UNL     1      11.491  10.355  23.240  0.00  0.00    +0.053 A 
ATOM     12  C   UNL     1      11.628  11.534  22.555  0.00  0.00    +0.065 A 
ATOM     16  C   UNL     1      10.859  12.065  24.456  0.00  0.00    +0.197 A 
ATOM     26  H   UNL     1      10.757  10.074  25.219  0.00  0.00    +0.167 HD
ENDROOT
BRANCH   8  14
ATOM      2  O   UNL     1      14.286  10.698  19.382  0.00  0.00    -0.336 OA
ATOM      6  N   UNL     1      12.680   9.907  18.037  0.00  0.00    -0.194 NA
ATOM      7  N   UNL     1      14.833  10.678  18.092  0.00  0.00    -0.061 NA
ATOM     14  C   UNL     1      13.018  10.229  19.259  0.00  0.00    +0.245 A 
ATOM     17  C   UNL     1      13.825  10.199  17.355  0.00  0.00    +0.174 A 
BRANCH  17  18
ATOM     18  C   UNL     1      13.947  10.003  15.907  0.00  0.00    +0.054 C 
ATOM     21  C   UNL     1      14.545  11.228  15.171  0.00  0.00    +0.015 C 
ATOM     22  C   UNL     1      12.610   9.614  15.227  0.00  0.00    +0.015 C 
ENDBRANCH  17  18
ENDBRANCH   8  14
BRANCH   3  13
ATOM     13  C   UNL     1      12.738   7.769  20.891  0.00  0.00    +0.120 C 
BRANCH  13  15
ATOM      1  F   UNL     1      18.050   6.237  19.806  0.00  0.00    -0.205 F 
ATOM     15  C   UNL     1      14.157   7.360  20.601  0.00  0.00    -0.033 A 
ATOM     19  C   UNL     1      15.112   7.386  21.618  0.00  0.00    +0.008 A 
ATOM     20  C   UNL     1      14.518   6.954  19.316  0.00  0.00    +0.008 A 
ATOM     23  C   UNL     1      16.427   7.007  21.350  0.00  0.00    +0.038 A 
ATOM     24  C   UNL     1      15.833   6.576  19.048  0.00  0.00    +0.038 A 
ATOM     25  C   UNL     1      16.787   6.602  20.065  0.00  0.00    +0.123 A 
ENDBRANCH  13  15
ENDBRANCH   3  13
TORSDOF 4
ENDMDL
MODEL 4
REMARK VINA RESULT:      -6.5      2.919      3.903
REMARK  Name = 26744962
REMARK  6 active torsions:
REMARK  status: ('A' for Active; 'I' for Inactive)
REMARK    1  A    between atoms: N_3  and  C_13
REMARK    2  A    between atoms: C_8  and  C_14
REMARK    3  A    between atoms: C_13  and  C_15
REMARK    4  A    between atoms: C_17  and  C_18
REMARK    5  A    between atoms: C_18  and  C_21
REMARK    6  A    between atoms: C_18  and  C_22
REMARK                            x       y       z     vdW  Elec       q    Type
REMARK                         _______ _______ _______ _____ _____    ______ ____
ROOT
ATOM      3  N   UNL     1      14.420   7.949  20.497  0.00  0.00    -0.281 NA
ATOM      4  N   UNL     1      11.291   5.949  21.024  0.00  0.00    -0.347 N 
ATOM      5  N   UNL     1      10.657   7.661  22.314  0.00  0.00    -0.240 NA
ATOM      8  C   UNL     1      13.736   9.269  20.728  0.00  0.00    +0.152 C 
ATOM      9  C   UNL     1      12.629   9.184  21.837  0.00  0.00    +0.086 C 
ATOM     10  C   UNL     1      13.467   6.888  20.058  0.00  0.00    +0.140 C 
ATOM     11  C   UNL     1      12.250   6.908  20.896  0.00  0.00    +0.053 A 
ATOM     12  C   UNL     1      11.836   7.947  21.687  0.00  0.00    +0.065 A 
ATOM     16  C   UNL     1      10.351   6.450  21.891  0.00  0.00    +0.197 A 
ATOM     26  H   UNL     1      11.268   5.046  20.570  0.00  0.00    +0.167 HD
ENDROOT
BRANCH   8  14
ATOM      2  O   UNL     1      14.787  11.427  20.220  0.00  0.00    -0.336 OA
ATOM      6  N   UNL     1      15.439  10.533  22.167  0.00  0.00    -0.194 NA
ATOM      7  N   UNL     1      15.706  12.328  20.773  0.00  0.00    -0.061 NA
ATOM     14  C   UNL     1      14.688  10.400  21.104  0.00  0.00    +0.245 A 
ATOM     17  C   UNL     1      16.045  11.731  21.920  0.00  0.00    +0.174 A 
BRANCH  17  18
ATOM     18  C   UNL     1      17.009  12.327  22.851  0.00  0.00    +0.054 C 
ATOM     21  C   UNL     1      18.362  11.573  22.899  0.00  0.00    +0.015 C 
ATOM     22  C   UNL     1      16.462  12.466  24.294  0.00  0.00    +0.015 C 
ENDBRANCH  17  18
ENDBRANCH   8  14
BRANCH   3  13
ATOM     13  C   UNL     1      15.491   8.043  19.495  0.00  0.00    +0.120 C 
BRANCH  13  15
ATOM      1  F   UNL     1      20.258   5.634  21.290  0.00  0.00    -0.205 F 
ATOM     15  C   UNL     1      16.765   7.399  19.974  0.00  0.00    -0.033 A 
ATOM     19  C   UNL     1      17.488   7.977  21.018  0.00  0.00    +0.008 A 
ATOM     20  C   UNL     1      17.222   6.225  19.376  0.00  0.00    +0.008 A 
ATOM     23  C   UNL     1      18.668   7.381  21.463  0.00  0.00    +0.038 A 
ATOM     24  C   UNL     1      18.402   5.630  19.820  0.00  0.00    +0.038 A 
ATOM     25  C   UNL     1      19.125   6.207  20.864  0.00  0.00    +0.123 A 
ENDBRANCH  13  15
ENDBRANCH   3  13
TORSDOF 4
ENDMDL
MODEL 5
REMARK VINA RESULT:      -6.4     26.231     29.738
REMARK  Name = 26744962
REMARK  6 active torsions:
REMARK  status: ('A' for Active; 'I' for Inactive)
REMARK    1  A    between atoms: N_3  and  C_13
REMARK    2  A    between atoms: C_8  and  C_14
REMARK    3  A    between atoms: C_13  and  C_15
REMARK    4  A    between atoms: C_17  and  C_18
REMARK    5  A    between atoms: C_18  and  C_21
REMARK    6  A    between atoms: C_18  and  C_22
REMARK                            x       y       z     vdW  Elec       q    Type
REMARK                         _______ _______ _______ _____ _____    ______ ____
ROOT
ATOM      3  N   UNL     1      -5.911 -10.753  15.923  0.00  0.00    -0.281 NA
ATOM      4  N   UNL     1      -2.517 -10.176  14.436  0.00  0.00    -0.347 N 
ATOM      5  N   UNL     1      -1.754 -10.815  16.438  0.00  0.00    -0.240 NA
ATOM      8  C   UNL     1      -5.419 -11.785  16.900  0.00  0.00    +0.152 C 
ATOM      9  C   UNL     1      -3.990 -11.451  17.455  0.00  0.00    +0.086 C 
ATOM     10  C   UNL     1      -5.017 -10.628  14.734  0.00  0.00    +0.140 C 
ATOM     11  C   UNL     1      -3.602 -10.574  15.155  0.00  0.00    +0.053 A 
ATOM     12  C   UNL     1      -3.110 -10.967  16.372  0.00  0.00    +0.065 A 
ATOM     16  C   UNL     1      -1.425 -10.338  15.254  0.00  0.00    +0.197 A 
ATOM     26  H   UNL     1      -2.508  -9.831  13.486  0.00  0.00    +0.167 HD
ENDROOT
BRANCH   8  14
ATOM      2  O   UNL     1      -6.140 -11.197  19.170  0.00  0.00    -0.336 OA
ATOM      6  N   UNL     1      -7.325 -12.853  18.240  0.00  0.00    -0.194 NA
ATOM      7  N   UNL     1      -7.094 -11.575  20.123  0.00  0.00    -0.061 NA
ATOM     14  C   UNL     1      -6.346 -11.998  18.093  0.00  0.00    +0.245 A 
ATOM     17  C   UNL     1      -7.755 -12.556  19.501  0.00  0.00    +0.174 A 
BRANCH  17  18
ATOM     18  C   UNL     1      -8.870 -13.267  20.136  0.00  0.00    +0.054 C 
ATOM     21  C   UNL     1      -9.219 -14.607  19.439  0.00  0.00    +0.015 C 
ATOM     22  C   UNL     1     -10.157 -12.412  20.250  0.00  0.00    +0.015 C 
ENDBRANCH  17  18
ENDBRANCH   8  14
BRANCH   3  13
ATOM     13  C   UNL     1      -7.270 -11.040  15.443  0.00  0.00    +0.120 C 
BRANCH  13  15
ATOM      1  F   UNL     1     -10.822  -6.808  16.545  0.00  0.00    -0.205 F 
ATOM     15  C   UNL     1      -8.220  -9.910  15.738  0.00  0.00    -0.033 A 
ATOM     19  C   UNL     1      -8.230  -9.319  17.001  0.00  0.00    +0.008 A 
ATOM     20  C   UNL     1      -9.088  -9.451  14.747  0.00  0.00    +0.008 A 
ATOM     23  C   UNL     1      -9.109  -8.271  17.274  0.00  0.00    +0.038 A 
ATOM     24  C   UNL     1      -9.967  -8.404  15.020  0.00  0.00    +0.038 A 
ATOM     25  C   UNL     1      -9.978  -7.814  16.284  0.00  0.00    +0.123 A 
ENDBRANCH  13  15
ENDBRANCH   3  13
TORSDOF 4
ENDMDL
MODEL 6
REMARK VINA RESULT:      -6.3     13.895     16.316
REMARK  Name = 26744962
REMARK  6 active torsions:
REMARK  status: ('A' for Active; 'I' for Inactive)
REMARK    1  A    between atoms: N_3  and  C_13
REMARK    2  A    between atoms: C_8  and  C_14
REMARK    3  A    between atoms: C_13  and  C_15
REMARK    4  A    between atoms: C_17  and  C_18
REMARK    5  A    between atoms: C_18  and  C_21
REMARK    6  A    between atoms: C_18  and  C_22
REMARK                            x       y       z     vdW  Elec       q    Type
REMARK                         _______ _______ _______ _____ _____    ______ ____
ROOT
ATOM      3  N   UNL     1      10.144   5.594   4.498  0.00  0.00    -0.281 NA
ATOM      4  N   UNL     1      10.183   3.953   7.871  0.00  0.00    -0.347 N 
ATOM      5  N   UNL     1       9.327   5.887   8.597  0.00  0.00    -0.240 NA
ATOM      8  C   UNL     1       8.997   6.504   4.842  0.00  0.00    +0.152 C 
ATOM      9  C   UNL     1       9.048   6.996   6.332  0.00  0.00    +0.086 C 
ATOM     10  C   UNL     1      10.164   4.366   5.346  0.00  0.00    +0.140 C 
ATOM     11  C   UNL     1       9.949   4.713   6.766  0.00  0.00    +0.053 A 
ATOM     12  C   UNL     1       9.419   5.887   7.234  0.00  0.00    +0.065 A 
ATOM     16  C   UNL     1       9.793   4.706   8.952  0.00  0.00    +0.197 A 
ATOM     26  H   UNL     1      10.565   3.018   7.898  0.00  0.00    +0.167 HD
ENDROOT
BRANCH   8  14
ATOM      2  O   UNL     1       9.926   8.617   4.012  0.00  0.00    -0.336 OA
ATOM      6  N   UNL     1       7.947   8.078   3.113  0.00  0.00    -0.194 NA
ATOM      7  N   UNL     1       9.610   9.649   3.118  0.00  0.00    -0.061 NA
ATOM     14  C   UNL     1       8.895   7.735   3.947  0.00  0.00    +0.245 A 
ATOM     17  C   UNL     1       8.429   9.259   2.628  0.00  0.00    +0.174 A 
BRANCH  17  18
ATOM     18  C   UNL     1       7.701  10.052   1.632  0.00  0.00    +0.054 C 
ATOM     21  C   UNL     1       6.173  10.100   1.885  0.00  0.00    +0.015 C 
ATOM     22  C   UNL     1       7.953   9.588   0.175  0.00  0.00    +0.015 C 
ENDBRANCH  17  18
ENDBRANCH   8  14
BRANCH   3  13
ATOM     13  C   UNL     1      10.123   5.176   3.090  0.00  0.00    +0.120 C 
BRANCH  13  15
ATOM      1  F   UNL     1      15.269   3.865   1.208  0.00  0.00    -0.205 F 
ATOM     15  C   UNL     1      11.498   4.826   2.588  0.00  0.00    -0.033 A 
ATOM     19  C   UNL     1      11.772   3.528   2.154  0.00  0.00    +0.008 A 
ATOM     20  C   UNL     1      12.498   5.798   2.554  0.00  0.00    +0.008 A 
ATOM     23  C   UNL     1      13.046   3.204   1.688  0.00  0.00    +0.038 A 
ATOM     24  C   UNL     1      13.771   5.473   2.089  0.00  0.00    +0.038 A 
ATOM     25  C   UNL     1      14.045   4.175   1.655  0.00  0.00    +0.123 A 
ENDBRANCH  13  15
ENDBRANCH   3  13
TORSDOF 4
ENDMDL
MODEL 7
REMARK VINA RESULT:      -6.3     27.351     29.999
REMARK  Name = 26744962
REMARK  6 active torsions:
REMARK  status: ('A' for Active; 'I' for Inactive)
REMARK    1  A    between atoms: N_3  and  C_13
REMARK    2  A    between atoms: C_8  and  C_14
REMARK    3  A    between atoms: C_13  and  C_15
REMARK    4  A    between atoms: C_17  and  C_18
REMARK    5  A    between atoms: C_18  and  C_21
REMARK    6  A    between atoms: C_18  and  C_22
REMARK                            x       y       z     vdW  Elec       q    Type
REMARK                         _______ _______ _______ _____ _____    ______ ____
ROOT
ATOM      3  N   UNL     1      -6.423 -10.643  17.930  0.00  0.00    -0.281 NA
ATOM      4  N   UNL     1      -2.988 -11.422  16.641  0.00  0.00    -0.347 N 
ATOM      5  N   UNL     1      -3.775 -10.676  14.685  0.00  0.00    -0.240 NA
ATOM      8  C   UNL     1      -6.671  -9.564  16.912  0.00  0.00    +0.152 C 
ATOM      9  C   UNL     1      -6.045  -9.905  15.513  0.00  0.00    +0.086 C 
ATOM     10  C   UNL     1      -4.968 -10.873  18.166  0.00  0.00    +0.140 C 
ATOM     11  C   UNL     1      -4.240 -10.943  16.883  0.00  0.00    +0.053 A 
ATOM     12  C   UNL     1      -4.697 -10.486  15.674  0.00  0.00    +0.065 A 
ATOM     16  C   UNL     1      -2.753 -11.239  15.300  0.00  0.00    +0.197 A 
ATOM     26  H   UNL     1      -2.351 -11.829  17.312  0.00  0.00    +0.167 HD
ENDROOT
BRANCH   8  14
ATOM      2  O   UNL     1      -8.886 -10.192  16.063  0.00  0.00    -0.336 OA
ATOM      6  N   UNL     1      -8.822  -8.175  17.035  0.00  0.00    -0.194 NA
ATOM      7  N   UNL     1     -10.187  -9.679  15.982  0.00  0.00    -0.061 NA
ATOM     14  C   UNL     1      -8.148  -9.245  16.697  0.00  0.00    +0.245 A 
ATOM     17  C   UNL     1     -10.069  -8.488  16.576  0.00  0.00    +0.174 A 
BRANCH  17  18
ATOM     18  C   UNL     1     -11.209  -7.576  16.722  0.00  0.00    +0.054 C 
ATOM     21  C   UNL     1     -12.558  -8.209  16.297  0.00  0.00    +0.015 C 
ATOM     22  C   UNL     1     -11.023  -6.237  15.964  0.00  0.00    +0.015 C 
ENDBRANCH  17  18
ENDBRANCH   8  14
BRANCH   3  13
ATOM     13  C   UNL     1      -7.054 -10.346  19.224  0.00  0.00    +0.120 C 
BRANCH  13  15
ATOM      1  F   UNL     1     -11.121 -14.039  20.476  0.00  0.00    -0.205 F 
ATOM     15  C   UNL     1      -8.141 -11.333  19.558  0.00  0.00    -0.033 A 
ATOM     19  C   UNL     1      -7.832 -12.684  19.713  0.00  0.00    +0.008 A 
ATOM     20  C   UNL     1      -9.457 -10.897  19.713  0.00  0.00    +0.008 A 
ATOM     23  C   UNL     1      -8.839 -13.599  20.023  0.00  0.00    +0.038 A 
ATOM     24  C   UNL     1     -10.463 -11.811  20.023  0.00  0.00    +0.038 A 
ATOM     25  C   UNL     1     -10.153 -13.162  20.178  0.00  0.00    +0.123 A 
ENDBRANCH  13  15
ENDBRANCH   3  13
TORSDOF 4
ENDMDL
MODEL 8
REMARK VINA RESULT:      -6.3     13.662     16.391
REMARK  Name = 26744962
REMARK  6 active torsions:
REMARK  status: ('A' for Active; 'I' for Inactive)
REMARK    1  A    between atoms: N_3  and  C_13
REMARK    2  A    between atoms: C_8  and  C_14
REMARK    3  A    between atoms: C_13  and  C_15
REMARK    4  A    between atoms: C_17  and  C_18
REMARK    5  A    between atoms: C_18  and  C_21
REMARK    6  A    between atoms: C_18  and  C_22
REMARK                            x       y       z     vdW  Elec       q    Type
REMARK                         _______ _______ _______ _____ _____    ______ ____
ROOT
ATOM      3  N   UNL     1       9.655   7.102   5.983  0.00  0.00    -0.281 NA
ATOM      4  N   UNL     1       8.899   5.997   9.487  0.00  0.00    -0.347 N 
ATOM      5  N   UNL     1       9.611   3.994   8.792  0.00  0.00    -0.240 NA
ATOM      8  C   UNL     1      10.718   6.058   5.775  0.00  0.00    +0.152 C 
ATOM      9  C   UNL     1      10.366   4.698   6.474  0.00  0.00    +0.086 C 
ATOM     10  C   UNL     1       9.444   7.414   7.427  0.00  0.00    +0.140 C 
ATOM     11  C   UNL     1       9.366   6.169   8.219  0.00  0.00    +0.053 A 
ATOM     12  C   UNL     1       9.802   4.933   7.819  0.00  0.00    +0.065 A 
ATOM     16  C   UNL     1       9.067   4.667   9.787  0.00  0.00    +0.197 A 
ATOM     26  H   UNL     1       8.508   6.704  10.093  0.00  0.00    +0.167 HD
ENDROOT
BRANCH   8  14
ATOM      2  O   UNL     1      12.155   6.310   3.803  0.00  0.00    -0.336 OA
ATOM      6  N   UNL     1      10.331   5.059   3.446  0.00  0.00    -0.194 NA
ATOM      7  N   UNL     1      12.213   5.910   2.461  0.00  0.00    -0.061 NA
ATOM     14  C   UNL     1      11.018   5.766   4.308  0.00  0.00    +0.245 A 
ATOM     17  C   UNL     1      11.104   5.176   2.327  0.00  0.00    +0.174 A 
BRANCH  17  18
ATOM     18  C   UNL     1      10.742   4.540   1.056  0.00  0.00    +0.054 C 
ATOM     21  C   UNL     1      11.958   3.946   0.301  0.00  0.00    +0.015 C 
ATOM     22  C   UNL     1       9.968   5.480   0.098  0.00  0.00    +0.015 C 
ENDBRANCH  17  18
ENDBRANCH   8  14
BRANCH   3  13
ATOM     13  C   UNL     1       9.961   8.358   5.285  0.00  0.00    +0.120 C 
BRANCH  13  15
ATOM      1  F   UNL     1       6.006   9.670   1.493  0.00  0.00    -0.205 F 
ATOM     15  C   UNL     1       8.904   8.709   4.272  0.00  0.00    -0.033 A 
ATOM     19  C   UNL     1       9.123   8.451   2.919  0.00  0.00    +0.008 A 
ATOM     20  C   UNL     1       7.706   9.291   4.686  0.00  0.00    +0.008 A 
ATOM     23  C   UNL     1       8.144   8.775   1.980  0.00  0.00    +0.038 A 
ATOM     24  C   UNL     1       6.728   9.616   3.747  0.00  0.00    +0.038 A 
ATOM     25  C   UNL     1       6.946   9.358   2.394  0.00  0.00    +0.123 A 
ENDBRANCH  13  15
ENDBRANCH   3  13
TORSDOF 4
ENDMDL
MODEL 9
REMARK VINA RESULT:      -6.2      3.807      6.424
REMARK  Name = 26744962
REMARK  6 active torsions:
REMARK  status: ('A' for Active; 'I' for Inactive)
REMARK    1  A    between atoms: N_3  and  C_13
REMARK    2  A    between atoms: C_8  and  C_14
REMARK    3  A    between atoms: C_13  and  C_15
REMARK    4  A    between atoms: C_17  and  C_18
REMARK    5  A    between atoms: C_18  and  C_21
REMARK    6  A    between atoms: C_18  and  C_22
REMARK                            x       y       z     vdW  Elec       q    Type
REMARK                         _______ _______ _______ _____ _____    ______ ____
ROOT
ATOM      3  N   UNL     1      16.181   7.555  19.783  0.00  0.00    -0.281 NA
ATOM      4  N   UNL     1      19.003   5.100  19.500  0.00  0.00    -0.347 N 
ATOM      5  N   UNL     1      19.937   6.293  21.145  0.00  0.00    -0.240 NA
ATOM      8  C   UNL     1      16.452   7.853  21.233  0.00  0.00    +0.152 C 
ATOM      9  C   UNL     1      17.986   7.858  21.567  0.00  0.00    +0.086 C 
ATOM     10  C   UNL     1      16.706   6.219  19.374  0.00  0.00    +0.140 C 
ATOM     11  C   UNL     1      18.078   6.023  19.883  0.00  0.00    +0.053 A 
ATOM     12  C   UNL     1      18.670   6.735  20.894  0.00  0.00    +0.065 A 
ATOM     16  C   UNL     1      20.108   5.303  20.290  0.00  0.00    +0.197 A 
ATOM     26  H   UNL     1      18.901   4.398  18.780  0.00  0.00    +0.167 HD
ENDROOT
BRANCH   8  14
ATOM      2  O   UNL     1      14.829   9.099  22.586  0.00  0.00    -0.336 OA
ATOM      6  N   UNL     1      16.214  10.400  21.399  0.00  0.00    -0.194 NA
ATOM      7  N   UNL     1      14.465  10.421  22.874  0.00  0.00    -0.061 NA
ATOM     14  C   UNL     1      15.865   9.178  21.711  0.00  0.00    +0.245 A 
ATOM     17  C   UNL     1      15.326  11.129  22.137  0.00  0.00    +0.174 A 
BRANCH  17  18
ATOM     18  C   UNL     1      15.316  12.596  22.123  0.00  0.00    +0.054 C 
ATOM     21  C   UNL     1      15.984  13.201  20.863  0.00  0.00    +0.015 C 
ATOM     22  C   UNL     1      15.961  13.225  23.383  0.00  0.00    +0.015 C 
ENDBRANCH  17  18
ENDBRANCH   8  14
BRANCH   3  13
ATOM     13  C   UNL     1      14.749   7.602  19.461  0.00  0.00    +0.120 C 
BRANCH  13  15
ATOM      1  F   UNL     1      13.716  10.807  14.945  0.00  0.00    -0.205 F 
ATOM     15  C   UNL     1      14.472   8.458  18.255  0.00  0.00    -0.033 A 
ATOM     19  C   UNL     1      14.479   9.848  18.370  0.00  0.00    +0.008 A 
ATOM     20  C   UNL     1      14.212   7.862  17.020  0.00  0.00    +0.008 A 
ATOM     23  C   UNL     1      14.223  10.642  17.252  0.00  0.00    +0.038 A 
ATOM     24  C   UNL     1      13.956   8.656  15.903  0.00  0.00    +0.038 A 
ATOM     25  C   UNL     1      13.962  10.046  16.019  0.00  0.00    +0.123 A 
ENDBRANCH  13  15
ENDBRANCH   3  13
TORSDOF 4
ENDMDL
MODEL 10
REMARK VINA RESULT:      -6.2     25.811     28.206
REMARK  Name = 26744962
REMARK  6 active torsions:
REMARK  status: ('A' for Active; 'I' for Inactive)
REMARK    1  A    between atoms: N_3  and  C_13
REMARK    2  A    between atoms: C_8  and  C_14
REMARK    3  A    between atoms: C_13  and  C_15
REMARK    4  A    between atoms: C_17  and  C_18
REMARK    5  A    between atoms: C_18  and  C_21
REMARK    6  A    between atoms: C_18  and  C_22
REMARK                            x       y       z     vdW  Elec       q    Type
REMARK                         _______ _______ _______ _____ _____    ______ ____
ROOT
ATOM      3  N   UNL     1      -4.705 -12.837  15.875  0.00  0.00    -0.281 NA
ATOM      4  N   UNL     1      -6.583 -12.370  19.087  0.00  0.00    -0.347 N 
ATOM      5  N   UNL     1      -5.794 -10.279  19.009  0.00  0.00    -0.240 NA
ATOM      8  C   UNL     1      -4.797 -11.385  15.492  0.00  0.00    +0.152 C 
ATOM      9  C   UNL     1      -4.685 -10.430  16.732  0.00  0.00    +0.086 C 
ATOM     10  C   UNL     1      -5.788 -13.243  16.818  0.00  0.00    +0.140 C 
ATOM     11  C   UNL     1      -5.937 -12.243  17.896  0.00  0.00    +0.053 A 
ATOM     12  C   UNL     1      -5.471 -10.955  17.867  0.00  0.00    +0.065 A 
ATOM     16  C   UNL     1      -6.469 -11.158  19.724  0.00  0.00    +0.197 A 
ATOM     26  H   UNL     1      -7.059 -13.189  19.439  0.00  0.00    +0.167 HD
ENDROOT
BRANCH   8  14
ATOM      2  O   UNL     1      -2.526 -10.627  14.957  0.00  0.00    -0.336 OA
ATOM      6  N   UNL     1      -3.862 -10.830  13.171  0.00  0.00    -0.194 NA
ATOM      7  N   UNL     1      -1.753 -10.261  13.848  0.00  0.00    -0.061 NA
ATOM     14  C   UNL     1      -3.753 -10.948  14.469  0.00  0.00    +0.245 A 
ATOM     17  C   UNL     1      -2.610 -10.406  12.832  0.00  0.00    +0.174 A 
BRANCH  17  18
ATOM     18  C   UNL     1      -2.226 -10.126  11.445  0.00  0.00    +0.054 C 
ATOM     21  C   UNL     1      -1.013  -9.168  11.326  0.00  0.00    +0.015 C 
ATOM     22  C   UNL     1      -3.390  -9.568  10.588  0.00  0.00    +0.015 C 
ENDBRANCH  17  18
ENDBRANCH   8  14
BRANCH   3  13
ATOM     13  C   UNL     1      -4.758 -13.727  14.708  0.00  0.00    +0.120 C 
BRANCH  13  15
ATOM      1  F   UNL     1      -0.413 -17.312  14.602  0.00  0.00    -0.205 F 
ATOM     15  C   UNL     1      -3.597 -14.686  14.679  0.00  0.00    -0.033 A 
ATOM     19  C   UNL     1      -2.473 -14.396  13.905  0.00  0.00    +0.008 A 
ATOM     20  C   UNL     1      -3.644 -15.862  15.427  0.00  0.00    +0.008 A 
ATOM     23  C   UNL     1      -1.397 -15.283  13.879  0.00  0.00    +0.038 A 
ATOM     24  C   UNL     1      -2.569 -16.749  15.400  0.00  0.00    +0.038 A 
ATOM     25  C   UNL     1      -1.445 -16.459  14.627  0.00  0.00    +0.123 A 
ENDBRANCH  13  15
ENDBRANCH   3  13
TORSDOF 4
ENDMDL
