REMARK  Name = 45783542
REMARK  11 active torsions:
REMARK  status: ('A' for Active; 'I' for Inactive)
REMARK    1  A    between atoms: O_5  and  C_25
REMARK    2  A    between atoms: O_5  and  C_30
REMARK    3  A    between atoms: O_6  and  C_29
REMARK    4  A    between atoms: O_6  and  C_31
REMARK    5  A    between atoms: O_7  and  C_32
REMARK    6  A    between atoms: O_7  and  C_33
REMARK    7  A    between atoms: N_8  and  C_16
REMARK    8  A    between atoms: C_12  and  C_17
REMARK    9  A    between atoms: C_16  and  C_18
REMARK   10  A    between atoms: C_21  and  C_24
REMARK   11  A    between atoms: C_31  and  C_32
REMARK                            x       y       z     vdW  Elec       q    Type
REMARK                         _______ _______ _______ _____ _____    ______ ____
ROOT
ATOM      8  N   UNL     1      -4.005  -1.569  -1.117  0.00  0.00    -0.287 NA
ATOM     12  C   UNL     1      -3.704  -2.187   0.190  0.00  0.00    +0.146 C 
ATOM     13  C   UNL     1      -3.703  -3.702  -0.085  0.00  0.00    +0.030 C 
ATOM     14  C   UNL     1      -4.072  -3.840  -1.556  0.00  0.00    +0.017 C 
ATOM     15  C   UNL     1      -4.798  -2.546  -1.864  0.00  0.00    +0.085 C 
ENDROOT
BRANCH  12  17
ATOM      4  O   UNL     1      -2.463  -1.129   2.009  0.00  0.00    -0.336 OA
ATOM      9  N   UNL     1      -1.191  -1.741   0.270  0.00  0.00    -0.190 NA
ATOM     10  N   UNL     1      -1.151  -0.761   2.337  0.00  0.00    -0.056 NA
ATOM     17  C   UNL     1      -2.397  -1.699   0.778  0.00  0.00    +0.245 A 
ATOM     21  C   UNL     1      -0.461  -1.155   1.263  0.00  0.00    +0.204 A 
BRANCH  21  24
ATOM     11  N   UNL     1       2.979  -1.265  -0.144  0.00  0.00    -0.221 NA
ATOM     24  C   UNL     1       0.958  -0.978   1.151  0.00  0.00    +0.041 A 
ATOM     26  C   UNL     1       1.688  -0.379   2.171  0.00  0.00    +0.018 A 
ATOM     27  C   UNL     1       1.645  -1.401   0.024  0.00  0.00    +0.126 A 
ATOM     28  C   UNL     1       3.063  -0.222   2.035  0.00  0.00    +0.068 A 
ATOM     29  C   UNL     1       3.656  -0.678   0.869  0.00  0.00    +0.215 A 
BRANCH  29   6
ATOM      6  O   UNL     1       5.009  -0.535   0.711  0.00  0.00    -0.474 OA
BRANCH   6  31
ATOM     31  C   UNL     1       5.566  -1.020  -0.505  0.00  0.00    +0.258 C 
BRANCH  31  32
ATOM     32  C   UNL     1       7.059  -0.754  -0.506  0.00  0.00    +0.200 C 
BRANCH  32   7
ATOM      7  O   UNL     1       7.620  -1.257  -1.713  0.00  0.00    -0.380 OA
ATOM     33  C   UNL     1       9.018  -1.015  -1.779  0.00  0.00    +0.194 C 
ENDBRANCH  32   7
ENDBRANCH  31  32
ENDBRANCH   6  31
ENDBRANCH  29   6
ENDBRANCH  21  24
ENDBRANCH  12  17
BRANCH   8  16
ATOM     16  C   UNL     1      -4.684  -0.285  -1.003  0.00  0.00    +0.120 C 
BRANCH  16  18
ATOM     18  C   UNL     1      -3.723   0.830  -0.684  0.00  0.00    -0.033 A 
ATOM     19  C   UNL     1      -3.897   1.592   0.471  0.00  0.00    +0.008 A 
ATOM     20  C   UNL     1      -2.660   1.101  -1.545  0.00  0.00    +0.008 A 
ATOM     22  C   UNL     1      -3.007   2.625   0.766  0.00  0.00    +0.046 A 
ATOM     23  C   UNL     1      -1.770   2.134  -1.250  0.00  0.00    +0.046 A 
ATOM     25  C   UNL     1      -1.943   2.896  -0.095  0.00  0.00    +0.130 A 
BRANCH  25   5
ATOM      5  O   UNL     1      -1.075   3.903   0.193  0.00  0.00    -0.406 OA
BRANCH   5  30
ATOM      1  F   UNL     1       1.081   4.410   0.630  0.00  0.00    -0.133 F 
ATOM      2  F   UNL     1       0.648   2.485  -0.309  0.00  0.00    -0.133 F 
ATOM      3  F   UNL     1       0.440   4.361  -1.459  0.00  0.00    -0.133 F 
ATOM     30  C   UNL     1       0.272   3.780  -0.252  0.00  0.00    +0.575 C 
ENDBRANCH   5  30
ENDBRANCH  25   5
ENDBRANCH  16  18
ENDBRANCH   8  16
TORSDOF 10
