REMARK  Name = 45784194
REMARK  4 active torsions:
REMARK  status: ('A' for Active; 'I' for Inactive)
REMARK    1  A    between atoms: N_2  and  C_5
REMARK    2  A    between atoms: N_3  and  C_15
REMARK    3  A    between atoms: C_6  and  C_14
REMARK    4  A    between atoms: C_20  and  C_22
REMARK                            x       y       z     vdW  Elec       q    Type
REMARK                         _______ _______ _______ _____ _____    ______ ____
ROOT
ATOM      2  N   UNL     1      -2.124  -0.947  -0.040  0.00  0.00    -0.299 NA
ATOM      6  C   UNL     1       0.159  -1.346  -0.402  0.00  0.00    +0.090 C 
ATOM      7  C   UNL     1      -0.939  -0.293  -0.600  0.00  0.00    +0.097 C 
ATOM      8  C   UNL     1      -1.658  -1.579   1.194  0.00  0.00    +0.085 C 
ATOM      9  C   UNL     1      -0.334  -2.206   0.776  0.00  0.00    +0.029 C 
ENDROOT
BRANCH   6  14
ATOM      1  O   UNL     1       2.468  -1.093  -1.138  0.00  0.00    -0.439 OA
ATOM      4  N   UNL     1       1.939   0.085   0.724  0.00  0.00    -0.213 NA
ATOM     14  C   UNL     1       1.531  -0.740  -0.215  0.00  0.00    +0.201 A 
ATOM     16  C   UNL     1       3.257   0.302   0.404  0.00  0.00    +0.110 A 
ATOM     17  C   UNL     1       3.585  -0.418  -0.736  0.00  0.00    +0.155 A 
ATOM     18  C   UNL     1       4.244   1.087   1.017  0.00  0.00    +0.035 A 
ATOM     19  C   UNL     1       4.839  -0.425  -1.334  0.00  0.00    +0.049 A 
ATOM     20  C   UNL     1       5.523   1.105   0.441  0.00  0.00    -0.048 A 
ATOM     21  C   UNL     1       5.812   0.363  -0.711  0.00  0.00    +0.007 A 
ATOM     22  C   UNL     1       6.596   1.931   1.071  0.00  0.00    +0.044 C 
ENDBRANCH   6  14
BRANCH   2   5
ATOM      3  N   UNL     1      -5.984   0.810  -0.305  0.00  0.00    -0.305 NA
ATOM      5  C   UNL     1      -3.220  -0.010   0.194  0.00  0.00    +0.059 C 
ATOM     10  C   UNL     1      -3.648   0.669  -1.110  0.00  0.00    +0.034 C 
ATOM     11  C   UNL     1      -4.413  -0.737   0.820  0.00  0.00    +0.034 C 
ATOM     12  C   UNL     1      -4.867   1.568  -0.886  0.00  0.00    +0.085 C 
ATOM     13  C   UNL     1      -5.607   0.207   0.981  0.00  0.00    +0.085 C 
ATOM     15  C   UNL     1      -7.157   1.669  -0.144  0.00  0.00    +0.104 C 
ENDBRANCH   2   5
TORSDOF 2
