MODEL 1
REMARK VINA RESULT:      -7.2      0.000      0.000
REMARK  Name = 11912450
REMARK  5 active torsions:
REMARK  status: ('A' for Active; 'I' for Inactive)
REMARK    1  A    between atoms: N_5  and  C_15
REMARK    2  A    between atoms: C_8  and  C_13
REMARK    3  A    between atoms: C_9  and  C_14
REMARK    4  A    between atoms: C_13  and  C_22
REMARK    5  A    between atoms: C_14  and  C_23
REMARK                            x       y       z     vdW  Elec       q    Type
REMARK                         _______ _______ _______ _____ _____    ______ ____
ROOT
ATOM      2  O   UNL     1      14.467   7.407  17.863  0.00  0.00    -0.253 OA
ATOM      4  N   UNL     1      15.620   6.737  19.761  0.00  0.00    -0.285 N 
ATOM      5  N   UNL     1      13.872   8.326  19.879  0.00  0.00    -0.296 N 
ATOM      8  C   UNL     1      17.347   7.193  21.479  0.00  0.00    +0.010 C 
ATOM      9  C   UNL     1      18.321   6.277  20.693  0.00  0.00    +0.004 C 
ATOM     10  C   UNL     1      17.952   6.199  19.200  0.00  0.00    +0.023 C 
ATOM     11  C   UNL     1      15.897   6.760  21.204  0.00  0.00    +0.113 C 
ATOM     12  C   UNL     1      16.483   5.829  19.005  0.00  0.00    +0.109 C 
ATOM     18  C   UNL     1      14.640   7.482  19.085  0.00  0.00    +0.302 C 
ATOM     27  H   UNL     1      13.915   8.265  20.885  0.00  0.00    +0.151 HD
ENDROOT
BRANCH   5  15
ATOM     15  C   UNL     1      12.830   9.163  19.328  0.00  0.00    +0.074 C 
ATOM     16  C   UNL     1      11.464   8.475  19.424  0.00  0.00    +0.022 C 
ATOM     17  C   UNL     1      12.810  10.536  20.008  0.00  0.00    +0.022 C 
ATOM     19  C   UNL     1      10.939   8.415  20.859  0.00  0.00    +0.002 C 
ATOM     20  C   UNL     1      12.283  10.472  21.441  0.00  0.00    +0.002 C 
ATOM     21  C   UNL     1      10.918   9.794  21.510  0.00  0.00    +0.000 C 
ENDBRANCH   5  15
BRANCH   8  13
ATOM     13  C   UNL     1      17.523   8.687  21.190  0.00  0.00    +0.002 C 
ATOM     22  C   UNL     1      16.436   9.506  21.853  0.00  0.00    +0.004 C 
ENDBRANCH   8  13
BRANCH   9  14
ATOM     14  C   UNL     1      19.787   6.672  20.865  0.00  0.00    +0.100 C 
BRANCH  14  23
ATOM      1  S   UNL     1      22.982   2.904  21.314  0.00  0.00    -0.061 S 
ATOM      3  O   UNL     1      20.263   6.199  23.176  0.00  0.00    -0.275 OA
ATOM      6  N   UNL     1      21.285   4.924  21.482  0.00  0.00    -0.265 N 
ATOM      7  N   UNL     1      22.170   3.955  23.533  0.00  0.00    -0.233 NA
ATOM     23  C   UNL     1      20.460   5.919  21.998  0.00  0.00    +0.219 C 
ATOM     24  C   UNL     1      22.062   4.031  22.225  0.00  0.00    +0.164 A 
ATOM     25  C   UNL     1      23.584   2.248  22.780  0.00  0.00    +0.068 A 
ATOM     26  C   UNL     1      23.042   2.931  23.849  0.00  0.00    +0.120 A 
ATOM     28  H   UNL     1      21.349   4.808  20.474  0.00  0.00    +0.157 HD
ENDBRANCH  14  23
ENDBRANCH   9  14
TORSDOF 4
ENDMDL
MODEL 2
REMARK VINA RESULT:      -6.6      2.294      2.540
REMARK  Name = 11912450
REMARK  5 active torsions:
REMARK  status: ('A' for Active; 'I' for Inactive)
REMARK    1  A    between atoms: N_5  and  C_15
REMARK    2  A    between atoms: C_8  and  C_13
REMARK    3  A    between atoms: C_9  and  C_14
REMARK    4  A    between atoms: C_13  and  C_22
REMARK    5  A    between atoms: C_14  and  C_23
REMARK                            x       y       z     vdW  Elec       q    Type
REMARK                         _______ _______ _______ _____ _____    ______ ____
ROOT
ATOM      2  O   UNL     1      14.713   7.187  17.781  0.00  0.00    -0.253 OA
ATOM      4  N   UNL     1      15.781   6.655  19.769  0.00  0.00    -0.285 N 
ATOM      5  N   UNL     1      13.956   8.157  19.716  0.00  0.00    -0.296 N 
ATOM      8  C   UNL     1      17.378   7.267  21.563  0.00  0.00    +0.010 C 
ATOM      9  C   UNL     1      18.439   6.369  20.876  0.00  0.00    +0.004 C 
ATOM     10  C   UNL     1      18.165   6.211  19.369  0.00  0.00    +0.023 C 
ATOM     11  C   UNL     1      15.969   6.751  21.224  0.00  0.00    +0.113 C 
ATOM     12  C   UNL     1      16.729   5.760  19.106  0.00  0.00    +0.109 C 
ATOM     18  C   UNL     1      14.808   7.321  19.005  0.00  0.00    +0.302 C 
ATOM     27  H   UNL     1      13.941   8.142  20.724  0.00  0.00    +0.151 HD
ENDROOT
BRANCH   5  15
ATOM     15  C   UNL     1      12.910   8.918  19.069  0.00  0.00    +0.074 C 
ATOM     16  C   UNL     1      11.527   8.494  19.576  0.00  0.00    +0.022 C 
ATOM     17  C   UNL     1      13.131  10.423  19.250  0.00  0.00    +0.022 C 
ATOM     19  C   UNL     1      11.261   8.960  21.007  0.00  0.00    +0.002 C 
ATOM     20  C   UNL     1      12.862  10.886  20.682  0.00  0.00    +0.002 C 
ATOM     21  C   UNL     1      11.477  10.462  21.160  0.00  0.00    +0.000 C 
ENDBRANCH   5  15
BRANCH   8  13
ATOM     13  C   UNL     1      17.501   8.755  21.218  0.00  0.00    +0.002 C 
ATOM     22  C   UNL     1      16.357   9.551  21.810  0.00  0.00    +0.004 C 
ENDBRANCH   8  13
BRANCH   9  14
ATOM     14  C   UNL     1      19.873   6.844  21.115  0.00  0.00    +0.100 C 
BRANCH  14  23
ATOM      1  S   UNL     1      20.598   8.400  25.770  0.00  0.00    -0.061 S 
ATOM      3  O   UNL     1      20.929   5.144  22.451  0.00  0.00    -0.275 OA
ATOM      6  N   UNL     1      20.383   7.222  23.412  0.00  0.00    -0.265 N 
ATOM      7  N   UNL     1      21.399   5.996  25.254  0.00  0.00    -0.233 NA
ATOM     23  C   UNL     1      20.464   6.278  22.394  0.00  0.00    +0.219 C 
ATOM     24  C   UNL     1      20.827   7.056  24.727  0.00  0.00    +0.164 A 
ATOM     25  C   UNL     1      21.319   7.504  27.042  0.00  0.00    +0.068 A 
ATOM     26  C   UNL     1      21.680   6.255  26.581  0.00  0.00    +0.120 A 
ATOM     28  H   UNL     1      19.968   8.129  23.215  0.00  0.00    +0.157 HD
ENDBRANCH  14  23
ENDBRANCH   9  14
TORSDOF 4
ENDMDL
MODEL 3
REMARK VINA RESULT:      -6.2     28.213     30.910
REMARK  Name = 11912450
REMARK  5 active torsions:
REMARK  status: ('A' for Active; 'I' for Inactive)
REMARK    1  A    between atoms: N_5  and  C_15
REMARK    2  A    between atoms: C_8  and  C_13
REMARK    3  A    between atoms: C_9  and  C_14
REMARK    4  A    between atoms: C_13  and  C_22
REMARK    5  A    between atoms: C_14  and  C_23
REMARK                            x       y       z     vdW  Elec       q    Type
REMARK                         _______ _______ _______ _____ _____    ______ ____
ROOT
ATOM      2  O   UNL     1      -6.059 -12.614  13.054  0.00  0.00    -0.253 OA
ATOM      4  N   UNL     1      -6.143 -10.993  14.711  0.00  0.00    -0.285 N 
ATOM      5  N   UNL     1      -4.355 -11.083  13.166  0.00  0.00    -0.296 N 
ATOM      8  C   UNL     1      -5.371 -10.149  16.909  0.00  0.00    +0.010 C 
ATOM      9  C   UNL     1      -6.670 -10.713  17.542  0.00  0.00    +0.004 C 
ATOM     10  C   UNL     1      -7.246 -11.881  16.721  0.00  0.00    +0.023 C 
ATOM     11  C   UNL     1      -5.621  -9.821  15.427  0.00  0.00    +0.113 C 
ATOM     12  C   UNL     1      -7.404 -11.504  15.249  0.00  0.00    +0.109 C 
ATOM     18  C   UNL     1      -5.556 -11.629  13.604  0.00  0.00    +0.302 C 
ATOM     27  H   UNL     1      -4.034 -10.194  13.520  0.00  0.00    +0.151 HD
ENDROOT
BRANCH   5  15
ATOM     15  C   UNL     1      -3.625 -11.631  12.045  0.00  0.00    +0.074 C 
ATOM     16  C   UNL     1      -4.051 -10.964  10.732  0.00  0.00    +0.022 C 
ATOM     17  C   UNL     1      -2.113 -11.515  12.263  0.00  0.00    +0.022 C 
ATOM     19  C   UNL     1      -3.548  -9.524  10.618  0.00  0.00    +0.002 C 
ATOM     20  C   UNL     1      -1.614 -10.075  12.145  0.00  0.00    +0.002 C 
ATOM     21  C   UNL     1      -2.040  -9.436  10.827  0.00  0.00    +0.000 C 
ENDBRANCH   5  15
BRANCH   8  13
ATOM     13  C   UNL     1      -4.154 -11.067  17.057  0.00  0.00    +0.002 C 
ATOM     22  C   UNL     1      -2.950 -10.503  16.331  0.00  0.00    +0.004 C 
ENDBRANCH   8  13
BRANCH   9  14
ATOM     14  C   UNL     1      -6.497 -11.118  19.006  0.00  0.00    +0.100 C 
BRANCH  14  23
ATOM      1  S   UNL     1     -11.275  -9.931  19.615  0.00  0.00    -0.061 S 
ATOM      3  O   UNL     1      -7.718 -12.910  20.050  0.00  0.00    -0.275 OA
ATOM      6  N   UNL     1      -8.828 -10.919  19.463  0.00  0.00    -0.265 N 
ATOM      7  N   UNL     1     -10.589 -12.280  20.450  0.00  0.00    -0.233 NA
ATOM     23  C   UNL     1      -7.739 -11.779  19.575  0.00  0.00    +0.219 C 
ATOM     24  C   UNL     1     -10.134 -11.186  19.880  0.00  0.00    +0.164 A 
ATOM     25  C   UNL     1     -12.488 -10.920  20.316  0.00  0.00    +0.068 A 
ATOM     26  C   UNL     1     -11.938 -12.125  20.700  0.00  0.00    +0.120 A 
ATOM     28  H   UNL     1      -8.693 -10.002  19.043  0.00  0.00    +0.157 HD
ENDBRANCH  14  23
ENDBRANCH   9  14
TORSDOF 4
ENDMDL
MODEL 4
REMARK VINA RESULT:      -6.1      3.142      9.232
REMARK  Name = 11912450
REMARK  5 active torsions:
REMARK  status: ('A' for Active; 'I' for Inactive)
REMARK    1  A    between atoms: N_5  and  C_15
REMARK    2  A    between atoms: C_8  and  C_13
REMARK    3  A    between atoms: C_9  and  C_14
REMARK    4  A    between atoms: C_13  and  C_22
REMARK    5  A    between atoms: C_14  and  C_23
REMARK                            x       y       z     vdW  Elec       q    Type
REMARK                         _______ _______ _______ _____ _____    ______ ____
ROOT
ATOM      2  O   UNL     1      22.061   8.394  21.859  0.00  0.00    -0.253 OA
ATOM      4  N   UNL     1      19.889   7.635  22.146  0.00  0.00    -0.285 N 
ATOM      5  N   UNL     1      21.686   6.132  21.821  0.00  0.00    -0.296 N 
ATOM      8  C   UNL     1      17.797   6.736  21.167  0.00  0.00    +0.010 C 
ATOM      9  C   UNL     1      17.194   8.164  21.235  0.00  0.00    +0.004 C 
ATOM     10  C   UNL     1      18.287   9.248  21.210  0.00  0.00    +0.023 C 
ATOM     11  C   UNL     1      18.872   6.579  22.256  0.00  0.00    +0.113 C 
ATOM     12  C   UNL     1      19.354   8.990  22.274  0.00  0.00    +0.109 C 
ATOM     18  C   UNL     1      21.267   7.452  21.940  0.00  0.00    +0.302 C 
ATOM     27  H   UNL     1      21.061   5.371  22.041  0.00  0.00    +0.151 HD
ENDROOT
BRANCH   5  15
ATOM     15  C   UNL     1      23.071   5.783  21.597  0.00  0.00    +0.074 C 
ATOM     16  C   UNL     1      23.770   5.432  22.915  0.00  0.00    +0.022 C 
ATOM     17  C   UNL     1      23.194   4.641  20.582  0.00  0.00    +0.022 C 
ATOM     19  C   UNL     1      23.311   4.089  23.482  0.00  0.00    +0.002 C 
ATOM     20  C   UNL     1      22.736   3.299  21.153  0.00  0.00    +0.002 C 
ATOM     21  C   UNL     1      23.453   2.968  22.458  0.00  0.00    +0.000 C 
ENDBRANCH   5  15
BRANCH   8  13
ATOM     13  C   UNL     1      18.366   6.363  19.794  0.00  0.00    +0.002 C 
ATOM     22  C   UNL     1      19.028   5.001  19.828  0.00  0.00    +0.004 C 
ENDBRANCH   8  13
BRANCH   9  14
ATOM     14  C   UNL     1      16.151   8.427  20.148  0.00  0.00    +0.100 C 
BRANCH  14  23
ATOM      1  S   UNL     1      11.710   9.039  22.271  0.00  0.00    -0.061 S 
ATOM      3  O   UNL     1      14.792   6.455  19.917  0.00  0.00    -0.275 OA
ATOM      6  N   UNL     1      13.944   8.340  21.043  0.00  0.00    -0.265 N 
ATOM      7  N   UNL     1      12.114   6.739  21.161  0.00  0.00    -0.233 NA
ATOM     23  C   UNL     1      14.892   7.601  20.342  0.00  0.00    +0.219 C 
ATOM     24  C   UNL     1      12.666   7.907  21.405  0.00  0.00    +0.164 A 
ATOM     25  C   UNL     1      10.443   7.884  22.334  0.00  0.00    +0.068 A 
ATOM     26  C   UNL     1      10.840   6.728  21.695  0.00  0.00    +0.120 A 
ATOM     28  H   UNL     1      14.171   9.288  21.334  0.00  0.00    +0.157 HD
ENDBRANCH  14  23
ENDBRANCH   9  14
TORSDOF 4
ENDMDL
MODEL 5
REMARK VINA RESULT:      -5.9     28.185     30.352
REMARK  Name = 11912450
REMARK  5 active torsions:
REMARK  status: ('A' for Active; 'I' for Inactive)
REMARK    1  A    between atoms: N_5  and  C_15
REMARK    2  A    between atoms: C_8  and  C_13
REMARK    3  A    between atoms: C_9  and  C_14
REMARK    4  A    between atoms: C_13  and  C_22
REMARK    5  A    between atoms: C_14  and  C_23
REMARK                            x       y       z     vdW  Elec       q    Type
REMARK                         _______ _______ _______ _____ _____    ______ ____
ROOT
ATOM      2  O   UNL     1      -8.091  -8.363   9.763  0.00  0.00    -0.253 OA
ATOM      4  N   UNL     1      -5.785  -8.598   9.812  0.00  0.00    -0.285 N 
ATOM      5  N   UNL     1      -6.999  -8.785   7.791  0.00  0.00    -0.296 N 
ATOM      8  C   UNL     1      -3.790 -10.069   9.784  0.00  0.00    +0.010 C 
ATOM      9  C   UNL     1      -3.702  -9.919  11.326  0.00  0.00    +0.004 C 
ATOM     10  C   UNL     1      -5.071  -9.586  11.947  0.00  0.00    +0.023 C 
ATOM     11  C   UNL     1      -4.476  -8.830   9.184  0.00  0.00    +0.113 C 
ATOM     12  C   UNL     1      -5.721  -8.387  11.258  0.00  0.00    +0.109 C 
ATOM     18  C   UNL     1      -7.030  -8.565   9.163  0.00  0.00    +0.302 C 
ATOM     27  H   UNL     1      -6.122  -8.795   7.291  0.00  0.00    +0.151 HD
ENDROOT
BRANCH   5  15
ATOM     15  C   UNL     1      -8.199  -8.791   6.985  0.00  0.00    +0.074 C 
ATOM     16  C   UNL     1      -8.081  -7.809   5.815  0.00  0.00    +0.022 C 
ATOM     17  C   UNL     1      -8.526 -10.205   6.494  0.00  0.00    +0.022 C 
ATOM     19  C   UNL     1      -7.112  -8.296   4.738  0.00  0.00    +0.002 C 
ATOM     20  C   UNL     1      -7.556 -10.688   5.416  0.00  0.00    +0.002 C 
ATOM     21  C   UNL     1      -7.464  -9.700   4.257  0.00  0.00    +0.000 C 
ENDBRANCH   5  15
BRANCH   8  13
ATOM     13  C   UNL     1      -4.495 -11.349   9.321  0.00  0.00    +0.002 C 
ATOM     22  C   UNL     1      -4.627 -11.386   7.813  0.00  0.00    +0.004 C 
ENDBRANCH   8  13
BRANCH   9  14
ATOM     14  C   UNL     1      -3.080 -11.135  12.013  0.00  0.00    +0.100 C 
BRANCH  14  23
ATOM      1  S   UNL     1      -5.299 -12.791  16.129  0.00  0.00    -0.061 S 
ATOM      3  O   UNL     1      -2.069 -10.203  13.987  0.00  0.00    -0.275 OA
ATOM      6  N   UNL     1      -3.876 -11.698  14.188  0.00  0.00    -0.265 N 
ATOM      7  N   UNL     1      -3.339 -11.145  16.497  0.00  0.00    -0.233 NA
ATOM     23  C   UNL     1      -2.927 -10.939  13.510  0.00  0.00    +0.219 C 
ATOM     24  C   UNL     1      -4.037 -11.769  15.574  0.00  0.00    +0.164 A 
ATOM     25  C   UNL     1      -4.891 -12.378  17.742  0.00  0.00    +0.068 A 
ATOM     26  C   UNL     1      -3.831 -11.495  17.740  0.00  0.00    +0.120 A 
ATOM     28  H   UNL     1      -4.529 -12.266  13.653  0.00  0.00    +0.157 HD
ENDBRANCH  14  23
ENDBRANCH   9  14
TORSDOF 4
ENDMDL
MODEL 6
REMARK VINA RESULT:      -5.8     28.474     30.575
REMARK  Name = 11912450
REMARK  5 active torsions:
REMARK  status: ('A' for Active; 'I' for Inactive)
REMARK    1  A    between atoms: N_5  and  C_15
REMARK    2  A    between atoms: C_8  and  C_13
REMARK    3  A    between atoms: C_9  and  C_14
REMARK    4  A    between atoms: C_13  and  C_22
REMARK    5  A    between atoms: C_14  and  C_23
REMARK                            x       y       z     vdW  Elec       q    Type
REMARK                         _______ _______ _______ _____ _____    ______ ____
ROOT
ATOM      2  O   UNL     1      -7.196 -11.857  20.301  0.00  0.00    -0.253 OA
ATOM      4  N   UNL     1      -6.398 -10.733  18.436  0.00  0.00    -0.285 N 
ATOM      5  N   UNL     1      -8.699 -10.733  18.983  0.00  0.00    -0.296 N 
ATOM      8  C   UNL     1      -6.073 -10.638  15.981  0.00  0.00    +0.010 C 
ATOM      9  C   UNL     1      -4.610 -11.108  16.192  0.00  0.00    +0.004 C 
ATOM     10  C   UNL     1      -4.448 -11.903  17.501  0.00  0.00    +0.023 C 
ATOM     11  C   UNL     1      -6.562  -9.898  17.238  0.00  0.00    +0.113 C 
ATOM     12  C   UNL     1      -5.015 -11.135  18.695  0.00  0.00    +0.109 C 
ATOM     18  C   UNL     1      -7.415 -11.153  19.309  0.00  0.00    +0.302 C 
ATOM     27  H   UNL     1      -8.846 -10.038  18.267  0.00  0.00    +0.151 HD
ENDROOT
BRANCH   5  15
ATOM     15  C   UNL     1      -9.851 -11.092  19.779  0.00  0.00    +0.074 C 
ATOM     16  C   UNL     1     -10.835  -9.921  19.881  0.00  0.00    +0.022 C 
ATOM     17  C   UNL     1     -10.535 -12.346  19.225  0.00  0.00    +0.022 C 
ATOM     19  C   UNL     1     -11.570  -9.658  18.567  0.00  0.00    +0.002 C 
ATOM     20  C   UNL     1     -11.271 -12.078  17.911  0.00  0.00    +0.002 C 
ATOM     21  C   UNL     1     -12.252 -10.917  18.042  0.00  0.00    +0.000 C 
ENDBRANCH   5  15
BRANCH   8  13
ATOM     13  C   UNL     1      -7.044 -11.763  15.609  0.00  0.00    +0.002 C 
ATOM     22  C   UNL     1      -8.451 -11.235  15.428  0.00  0.00    +0.004 C 
ENDBRANCH   8  13
BRANCH   9  14
ATOM     14  C   UNL     1      -4.058 -11.903  15.009  0.00  0.00    +0.100 C 
BRANCH  14  23
ATOM      1  S   UNL     1      -5.234 -10.806  10.316  0.00  0.00    -0.061 S 
ATOM      3  O   UNL     1      -2.525 -10.301  14.074  0.00  0.00    -0.275 OA
ATOM      6  N   UNL     1      -4.300 -11.127  12.768  0.00  0.00    -0.265 N 
ATOM      7  N   UNL     1      -3.160  -9.589  11.265  0.00  0.00    -0.233 NA
ATOM     23  C   UNL     1      -3.516 -11.006  13.911  0.00  0.00    +0.219 C 
ATOM     24  C   UNL     1      -4.105 -10.454  11.559  0.00  0.00    +0.164 A 
ATOM     25  C   UNL     1      -4.404  -9.713   9.287  0.00  0.00    +0.068 A 
ATOM     26  C   UNL     1      -3.333  -9.166   9.961  0.00  0.00    +0.120 A 
ATOM     28  H   UNL     1      -5.099 -11.758  12.780  0.00  0.00    +0.157 HD
ENDBRANCH  14  23
ENDBRANCH   9  14
TORSDOF 4
ENDMDL
MODEL 7
REMARK VINA RESULT:      -5.8      1.692      2.301
REMARK  Name = 11912450
REMARK  5 active torsions:
REMARK  status: ('A' for Active; 'I' for Inactive)
REMARK    1  A    between atoms: N_5  and  C_15
REMARK    2  A    between atoms: C_8  and  C_13
REMARK    3  A    between atoms: C_9  and  C_14
REMARK    4  A    between atoms: C_13  and  C_22
REMARK    5  A    between atoms: C_14  and  C_23
REMARK                            x       y       z     vdW  Elec       q    Type
REMARK                         _______ _______ _______ _____ _____    ______ ____
ROOT
ATOM      2  O   UNL     1      12.300   8.495  19.708  0.00  0.00    -0.253 OA
ATOM      4  N   UNL     1      14.093   7.861  21.034  0.00  0.00    -0.285 N 
ATOM      5  N   UNL     1      12.913   9.871  21.437  0.00  0.00    -0.296 N 
ATOM      8  C   UNL     1      16.483   8.102  21.646  0.00  0.00    +0.010 C 
ATOM      9  C   UNL     1      16.788   6.831  20.811  0.00  0.00    +0.004 C 
ATOM     10  C   UNL     1      15.739   6.607  19.706  0.00  0.00    +0.023 C 
ATOM     11  C   UNL     1      15.031   8.050  22.150  0.00  0.00    +0.113 C 
ATOM     12  C   UNL     1      14.319   6.634  20.270  0.00  0.00    +0.109 C 
ATOM     18  C   UNL     1      13.049   8.725  20.663  0.00  0.00    +0.302 C 
ATOM     27  H   UNL     1      13.425   9.972  22.300  0.00  0.00    +0.151 HD
ENDROOT
BRANCH   5  15
ATOM     15  C   UNL     1      11.892  10.860  21.174  0.00  0.00    +0.074 C 
ATOM     16  C   UNL     1      10.875  10.918  22.319  0.00  0.00    +0.022 C 
ATOM     17  C   UNL     1      12.512  12.236  20.910  0.00  0.00    +0.022 C 
ATOM     19  C   UNL     1      11.453  11.554  23.583  0.00  0.00    +0.002 C 
ATOM     20  C   UNL     1      13.087  12.870  22.177  0.00  0.00    +0.002 C 
ATOM     21  C   UNL     1      12.054  12.927  23.298  0.00  0.00    +0.000 C 
ENDBRANCH   5  15
BRANCH   8  13
ATOM     13  C   UNL     1      16.746   9.416  20.903  0.00  0.00    +0.002 C 
ATOM     22  C   UNL     1      17.661  10.322  21.699  0.00  0.00    +0.004 C 
ENDBRANCH   8  13
BRANCH   9  14
ATOM     14  C   UNL     1      18.199   6.824  20.222  0.00  0.00    +0.100 C 
BRANCH  14  23
ATOM      1  S   UNL     1      21.766   3.500  21.136  0.00  0.00    -0.061 S 
ATOM      3  O   UNL     1      19.413   7.372  22.226  0.00  0.00    -0.275 OA
ATOM      6  N   UNL     1      19.994   5.456  20.988  0.00  0.00    -0.265 N 
ATOM      7  N   UNL     1      21.568   5.430  22.844  0.00  0.00    -0.233 NA
ATOM     23  C   UNL     1      19.266   6.606  21.279  0.00  0.00    +0.219 C 
ATOM     24  C   UNL     1      21.055   4.941  21.737  0.00  0.00    +0.164 A 
ATOM     25  C   UNL     1      22.858   3.516  22.458  0.00  0.00    +0.068 A 
ATOM     26  C   UNL     1      22.602   4.611  23.256  0.00  0.00    +0.120 A 
ATOM     28  H   UNL     1      19.756   4.916  20.159  0.00  0.00    +0.157 HD
ENDBRANCH  14  23
ENDBRANCH   9  14
TORSDOF 4
ENDMDL
MODEL 8
REMARK VINA RESULT:      -5.7     15.304     17.921
REMARK  Name = 11912450
REMARK  5 active torsions:
REMARK  status: ('A' for Active; 'I' for Inactive)
REMARK    1  A    between atoms: N_5  and  C_15
REMARK    2  A    between atoms: C_8  and  C_13
REMARK    3  A    between atoms: C_9  and  C_14
REMARK    4  A    between atoms: C_13  and  C_22
REMARK    5  A    between atoms: C_14  and  C_23
REMARK                            x       y       z     vdW  Elec       q    Type
REMARK                         _______ _______ _______ _____ _____    ______ ____
ROOT
ATOM      2  O   UNL     1       8.412   7.685   7.935  0.00  0.00    -0.253 OA
ATOM      4  N   UNL     1      10.195   6.822   6.730  0.00  0.00    -0.285 N 
ATOM      5  N   UNL     1      10.162   9.079   7.435  0.00  0.00    -0.296 N 
ATOM      8  C   UNL     1      11.398   6.586   4.576  0.00  0.00    +0.010 C 
ATOM      9  C   UNL     1      10.744   5.190   4.404  0.00  0.00    +0.004 C 
ATOM     10  C   UNL     1       9.417   5.082   5.178  0.00  0.00    +0.023 C 
ATOM     11  C   UNL     1      11.506   6.924   6.072  0.00  0.00    +0.113 C 
ATOM     12  C   UNL     1       9.587   5.495   6.639  0.00  0.00    +0.109 C 
ATOM     18  C   UNL     1       9.516   7.849   7.405  0.00  0.00    +0.302 C 
ATOM     27  H   UNL     1      11.123   9.163   7.137  0.00  0.00    +0.151 HD
ENDROOT
BRANCH   5  15
ATOM     15  C   UNL     1       9.586  10.236   8.084  0.00  0.00    +0.074 C 
ATOM     16  C   UNL     1      10.459  10.700   9.255  0.00  0.00    +0.022 C 
ATOM     17  C   UNL     1       9.351  11.370   7.081  0.00  0.00    +0.022 C 
ATOM     19  C   UNL     1      11.760  11.355   8.791  0.00  0.00    +0.002 C 
ATOM     20  C   UNL     1      10.655  12.024   6.621  0.00  0.00    +0.002 C 
ATOM     21  C   UNL     1      11.500  12.487   7.804  0.00  0.00    +0.000 C 
ENDBRANCH   5  15
BRANCH   8  13
ATOM     13  C   UNL     1      10.678   7.710   3.823  0.00  0.00    +0.002 C 
ATOM     22  C   UNL     1      11.362   9.043   4.045  0.00  0.00    +0.004 C 
ENDBRANCH   8  13
BRANCH   9  14
ATOM     14  C   UNL     1      10.547   4.796   2.940  0.00  0.00    +0.100 C 
BRANCH  14  23
ATOM      1  S   UNL     1      14.702   6.272   0.667  0.00  0.00    -0.061 S 
ATOM      3  O   UNL     1      11.937   2.921   2.354  0.00  0.00    -0.275 OA
ATOM      6  N   UNL     1      12.634   5.108   1.831  0.00  0.00    -0.265 N 
ATOM      7  N   UNL     1      14.447   3.720   0.989  0.00  0.00    -0.233 NA
ATOM     23  C   UNL     1      11.780   4.138   2.347  0.00  0.00    +0.219 C 
ATOM     24  C   UNL     1      13.863   4.877   1.208  0.00  0.00    +0.164 A 
ATOM     25  C   UNL     1      15.959   5.261   0.087  0.00  0.00    +0.068 A 
ATOM     26  C   UNL     1      15.649   3.942   0.345  0.00  0.00    +0.120 A 
ATOM     28  H   UNL     1      12.368   6.088   1.898  0.00  0.00    +0.157 HD
ENDBRANCH  14  23
ENDBRANCH   9  14
TORSDOF 4
ENDMDL
MODEL 9
REMARK VINA RESULT:      -5.7     16.061     19.456
REMARK  Name = 11912450
REMARK  5 active torsions:
REMARK  status: ('A' for Active; 'I' for Inactive)
REMARK    1  A    between atoms: N_5  and  C_15
REMARK    2  A    between atoms: C_8  and  C_13
REMARK    3  A    between atoms: C_9  and  C_14
REMARK    4  A    between atoms: C_13  and  C_22
REMARK    5  A    between atoms: C_14  and  C_23
REMARK                            x       y       z     vdW  Elec       q    Type
REMARK                         _______ _______ _______ _____ _____    ______ ____
ROOT
ATOM      2  O   UNL     1      10.183   5.908   0.344  0.00  0.00    -0.253 OA
ATOM      4  N   UNL     1      10.596   6.902   2.398  0.00  0.00    -0.285 N 
ATOM      5  N   UNL     1      11.928   5.117   1.604  0.00  0.00    -0.296 N 
ATOM      8  C   UNL     1      10.421   6.843   4.869  0.00  0.00    +0.010 C 
ATOM      9  C   UNL     1       9.204   7.799   4.771  0.00  0.00    +0.004 C 
ATOM     10  C   UNL     1       8.496   7.685   3.408  0.00  0.00    +0.023 C 
ATOM     11  C   UNL     1      11.342   7.054   3.655  0.00  0.00    +0.113 C 
ATOM     12  C   UNL     1       9.482   7.839   2.251  0.00  0.00    +0.109 C 
ATOM     18  C   UNL     1      10.858   5.974   1.376  0.00  0.00    +0.302 C 
ATOM     27  H   UNL     1      12.563   5.278   2.371  0.00  0.00    +0.151 HD
ENDROOT
BRANCH   5  15
ATOM     15  C   UNL     1      12.316   4.101   0.650  0.00  0.00    +0.074 C 
ATOM     16  C   UNL     1      13.095   4.714  -0.519  0.00  0.00    +0.022 C 
ATOM     17  C   UNL     1      13.118   2.986   1.329  0.00  0.00    +0.022 C 
ATOM     19  C   UNL     1      14.500   5.161  -0.116  0.00  0.00    +0.002 C 
ATOM     20  C   UNL     1      14.523   3.436   1.728  0.00  0.00    +0.002 C 
ATOM     21  C   UNL     1      15.282   4.031   0.547  0.00  0.00    +0.000 C 
ENDBRANCH   5  15
BRANCH   8  13
ATOM     13  C   UNL     1      10.045   5.364   5.005  0.00  0.00    +0.002 C 
ATOM     22  C   UNL     1      10.055   4.927   6.455  0.00  0.00    +0.004 C 
ENDBRANCH   8  13
BRANCH   9  14
ATOM     14  C   UNL     1       8.205   7.618   5.913  0.00  0.00    +0.100 C 
BRANCH  14  23
ATOM      1  S   UNL     1      10.139  11.999   7.209  0.00  0.00    -0.061 S 
ATOM      3  O   UNL     1       8.598   7.734   8.284  0.00  0.00    -0.275 OA
ATOM      6  N   UNL     1       9.129   9.574   6.915  0.00  0.00    -0.265 N 
ATOM      7  N   UNL     1       9.755  10.327   9.144  0.00  0.00    -0.233 NA
ATOM     23  C   UNL     1       8.661   8.293   7.194  0.00  0.00    +0.219 C 
ATOM     24  C   UNL     1       9.629  10.488   7.845  0.00  0.00    +0.164 A 
ATOM     25  C   UNL     1      10.567  12.494   8.794  0.00  0.00    +0.068 A 
ATOM     26  C   UNL     1      10.294  11.478   9.686  0.00  0.00    +0.120 A 
ATOM     28  H   UNL     1       9.120   9.905   5.953  0.00  0.00    +0.157 HD
ENDBRANCH  14  23
ENDBRANCH   9  14
TORSDOF 4
ENDMDL
MODEL 10
REMARK VINA RESULT:      -5.6     29.773     33.280
REMARK  Name = 11912450
REMARK  5 active torsions:
REMARK  status: ('A' for Active; 'I' for Inactive)
REMARK    1  A    between atoms: N_5  and  C_15
REMARK    2  A    between atoms: C_8  and  C_13
REMARK    3  A    between atoms: C_9  and  C_14
REMARK    4  A    between atoms: C_13  and  C_22
REMARK    5  A    between atoms: C_14  and  C_23
REMARK                            x       y       z     vdW  Elec       q    Type
REMARK                         _______ _______ _______ _____ _____    ______ ____
ROOT
ATOM      2  O   UNL     1      -8.433 -11.096  14.802  0.00  0.00    -0.253 OA
ATOM      4  N   UNL     1      -9.426  -9.261  15.813  0.00  0.00    -0.285 N 
ATOM      5  N   UNL     1      -7.948 -10.672  17.003  0.00  0.00    -0.296 N 
ATOM      8  C   UNL     1     -11.167  -8.337  17.316  0.00  0.00    +0.010 C 
ATOM      9  C   UNL     1     -12.001  -7.964  16.062  0.00  0.00    +0.004 C 
ATOM     10  C   UNL     1     -11.656  -8.861  14.859  0.00  0.00    +0.023 C 
ATOM     11  C   UNL     1      -9.673  -8.364  16.951  0.00  0.00    +0.113 C 
ATOM     12  C   UNL     1     -10.151  -8.891  14.598  0.00  0.00    +0.109 C 
ATOM     18  C   UNL     1      -8.589 -10.389  15.803  0.00  0.00    +0.302 C 
ATOM     27  H   UNL     1      -7.960 -10.008  17.763  0.00  0.00    +0.151 HD
ENDROOT
BRANCH   5  15
ATOM     15  C   UNL     1      -7.062 -11.805  17.153  0.00  0.00    +0.074 C 
ATOM     16  C   UNL     1      -5.597 -11.357  17.188  0.00  0.00    +0.022 C 
ATOM     17  C   UNL     1      -7.422 -12.625  18.396  0.00  0.00    +0.022 C 
ATOM     19  C   UNL     1      -5.234 -10.642  18.489  0.00  0.00    +0.002 C 
ATOM     20  C   UNL     1      -7.056 -11.908  19.696  0.00  0.00    +0.002 C 
ATOM     21  C   UNL     1      -5.591 -11.482  19.711  0.00  0.00    +0.000 C 
ENDBRANCH   5  15
BRANCH   8  13
ATOM     13  C   UNL     1     -11.582  -9.657  17.973  0.00  0.00    +0.002 C 
ATOM     22  C   UNL     1     -10.785  -9.917  19.233  0.00  0.00    +0.004 C 
ENDBRANCH   8  13
BRANCH   9  14
ATOM     14  C   UNL     1     -13.507  -7.967  16.321  0.00  0.00    +0.100 C 
BRANCH  14  23
ATOM      1  S   UNL     1     -12.318  -4.536  12.941  0.00  0.00    -0.061 S 
ATOM      3  O   UNL     1     -15.460  -6.808  15.526  0.00  0.00    -0.275 OA
ATOM      6  N   UNL     1     -13.336  -6.243  14.684  0.00  0.00    -0.265 N 
ATOM      7  N   UNL     1     -14.835  -4.736  13.497  0.00  0.00    -0.233 NA
ATOM     23  C   UNL     1     -14.242  -6.944  15.474  0.00  0.00    +0.219 C 
ATOM     24  C   UNL     1     -13.648  -5.225  13.779  0.00  0.00    +0.164 A 
ATOM     25  C   UNL     1     -13.406  -3.491  12.125  0.00  0.00    +0.068 A 
ATOM     26  C   UNL     1     -14.694  -3.741  12.549  0.00  0.00    +0.120 A 
ATOM     28  H   UNL     1     -12.346  -6.468  14.748  0.00  0.00    +0.157 HD
ENDBRANCH  14  23
ENDBRANCH   9  14
TORSDOF 4
ENDMDL
