MODEL 1
REMARK VINA RESULT:      -6.1      0.000      0.000
REMARK  Name = 11941985
REMARK  6 active torsions:
REMARK  status: ('A' for Active; 'I' for Inactive)
REMARK    1  A    between atoms: O_3  and  C_24
REMARK    2  A    between atoms: O_3  and  C_25
REMARK    3  A    between atoms: N_6  and  C_16
REMARK    4  A    between atoms: C_10  and  C_17
REMARK    5  A    between atoms: C_11  and  C_16
REMARK    6  A    between atoms: C_23  and  C_24
REMARK                            x       y       z     vdW  Elec       q    Type
REMARK                         _______ _______ _______ _____ _____    ______ ____
ROOT
ATOM      4  N   UNL     1      12.996   5.638   1.724  0.00  0.00    -0.297 NA
ATOM      9  C   UNL     1      13.070   3.255   0.683  0.00  0.00    +0.005 C 
ATOM     10  C   UNL     1      12.632   4.304  -0.357  0.00  0.00    +0.092 C 
ATOM     11  C   UNL     1      12.209   4.694   2.561  0.00  0.00    +0.078 C 
ATOM     12  C   UNL     1      12.109   3.308   1.887  0.00  0.00    +0.025 C 
ATOM     13  C   UNL     1      14.460   3.683   1.186  0.00  0.00    +0.020 C 
ATOM     14  C   UNL     1      12.461   5.666   0.340  0.00  0.00    +0.097 C 
ATOM     15  C   UNL     1      14.394   5.144   1.670  0.00  0.00    +0.085 C 
ENDROOT
BRANCH  10  17
ATOM      1  O   UNL     1      10.288   3.966  -0.480  0.00  0.00    -0.275 OA
ATOM      2  O   UNL     1      11.629   3.156  -5.170  0.00  0.00    -0.377 OA
ATOM      5  N   UNL     1      11.519   3.401  -2.365  0.00  0.00    -0.297 N 
ATOM     17  C   UNL     1      11.370   3.877  -1.064  0.00  0.00    +0.220 C 
ATOM     18  C   UNL     1      12.797   3.162  -3.044  0.00  0.00    +0.136 C 
ATOM     19  C   UNL     1      10.346   2.969  -3.125  0.00  0.00    +0.136 C 
ATOM     21  C   UNL     1      12.748   3.703  -4.467  0.00  0.00    +0.179 C 
ATOM     22  C   UNL     1      10.399   3.523  -4.542  0.00  0.00    +0.179 C 
ENDBRANCH  10  17
BRANCH  11  16
ATOM     16  C   UNL     1      10.831   5.249   2.927  0.00  0.00    +0.164 C 
BRANCH  16   6
ATOM      6  N   UNL     1      10.708   5.494   4.355  0.00  0.00    -0.250 N 
ATOM      7  N   UNL     1      11.643   6.202   4.997  0.00  0.00    -0.065 NA
ATOM      8  N   UNL     1      11.273   6.258   6.272  0.00  0.00    -0.132 NA
ATOM     20  C   UNL     1       9.720   5.075   5.177  0.00  0.00    +0.136 A 
ATOM     23  C   UNL     1      10.097   5.572   6.398  0.00  0.00    +0.108 A 
BRANCH  23  24
ATOM     24  C   UNL     1       9.422   5.448   7.697  0.00  0.00    +0.218 C 
BRANCH  24   3
ATOM      3  O   UNL     1       9.943   4.376   8.491  0.00  0.00    -0.377 OA
ATOM     25  C   UNL     1       9.419   4.415   9.807  0.00  0.00    +0.194 C 
ENDBRANCH  24   3
ENDBRANCH  23  24
ENDBRANCH  16   6
ENDBRANCH  11  16
TORSDOF 5
ENDMDL
MODEL 2
REMARK VINA RESULT:      -5.7     22.797     23.810
REMARK  Name = 11941985
REMARK  6 active torsions:
REMARK  status: ('A' for Active; 'I' for Inactive)
REMARK    1  A    between atoms: O_3  and  C_24
REMARK    2  A    between atoms: O_3  and  C_25
REMARK    3  A    between atoms: N_6  and  C_16
REMARK    4  A    between atoms: C_10  and  C_17
REMARK    5  A    between atoms: C_11  and  C_16
REMARK    6  A    between atoms: C_23  and  C_24
REMARK                            x       y       z     vdW  Elec       q    Type
REMARK                         _______ _______ _______ _____ _____    ______ ____
ROOT
ATOM      4  N   UNL     1      -5.158 -10.220  11.267  0.00  0.00    -0.297 NA
ATOM      9  C   UNL     1      -4.692  -8.930   9.056  0.00  0.00    +0.005 C 
ATOM     10  C   UNL     1      -5.573 -10.168   8.805  0.00  0.00    +0.092 C 
ATOM     11  C   UNL     1      -3.696 -10.003  11.105  0.00  0.00    +0.078 C 
ATOM     12  C   UNL     1      -3.379  -9.376   9.730  0.00  0.00    +0.025 C 
ATOM     13  C   UNL     1      -5.446  -8.046  10.064  0.00  0.00    +0.020 C 
ATOM     14  C   UNL     1      -5.698 -10.974  10.110  0.00  0.00    +0.097 C 
ATOM     15  C   UNL     1      -5.815  -8.889  11.299  0.00  0.00    +0.085 C 
ENDROOT
BRANCH  10  17
ATOM      1  O   UNL     1      -4.213 -11.902   7.930  0.00  0.00    -0.275 OA
ATOM      2  O   UNL     1      -6.897 -10.686   3.959  0.00  0.00    -0.377 OA
ATOM      5  N   UNL     1      -5.487 -10.710   6.399  0.00  0.00    -0.297 N 
ATOM     17  C   UNL     1      -5.024 -11.009   7.679  0.00  0.00    +0.220 C 
ATOM     18  C   UNL     1      -6.350  -9.578   6.048  0.00  0.00    +0.136 C 
ATOM     19  C   UNL     1      -5.009 -11.480   5.250  0.00  0.00    +0.136 C 
ATOM     21  C   UNL     1      -7.455 -10.031   5.102  0.00  0.00    +0.179 C 
ATOM     22  C   UNL     1      -6.172 -11.856   4.343  0.00  0.00    +0.179 C 
ENDBRANCH  10  17
BRANCH  11  16
ATOM     16  C   UNL     1      -2.887 -11.279  11.348  0.00  0.00    +0.164 C 
BRANCH  16   6
ATOM      6  N   UNL     1      -2.492 -11.412  12.741  0.00  0.00    -0.250 N 
ATOM      7  N   UNL     1      -1.707 -12.424  13.122  0.00  0.00    -0.065 NA
ATOM      8  N   UNL     1      -1.519 -12.293  14.431  0.00  0.00    -0.132 NA
ATOM     20  C   UNL     1      -2.834 -10.605  13.771  0.00  0.00    +0.136 A 
ATOM     23  C   UNL     1      -2.203 -11.183  14.843  0.00  0.00    +0.108 A 
BRANCH  23  24
ATOM     24  C   UNL     1      -2.196 -10.762  16.251  0.00  0.00    +0.218 C 
BRANCH  24   3
ATOM      3  O   UNL     1      -3.493 -10.370  16.718  0.00  0.00    -0.377 OA
ATOM     25  C   UNL     1      -4.092 -11.401  17.483  0.00  0.00    +0.194 C 
ENDBRANCH  24   3
ENDBRANCH  23  24
ENDBRANCH  16   6
ENDBRANCH  11  16
TORSDOF 5
ENDMDL
MODEL 3
REMARK VINA RESULT:      -5.6     27.563     32.112
REMARK  Name = 11941985
REMARK  6 active torsions:
REMARK  status: ('A' for Active; 'I' for Inactive)
REMARK    1  A    between atoms: O_3  and  C_24
REMARK    2  A    between atoms: O_3  and  C_25
REMARK    3  A    between atoms: N_6  and  C_16
REMARK    4  A    between atoms: C_10  and  C_17
REMARK    5  A    between atoms: C_11  and  C_16
REMARK    6  A    between atoms: C_23  and  C_24
REMARK                            x       y       z     vdW  Elec       q    Type
REMARK                         _______ _______ _______ _____ _____    ______ ____
ROOT
ATOM      4  N   UNL     1     -14.960   8.734  21.416  0.00  0.00    -0.297 NA
ATOM      9  C   UNL     1     -12.386   9.001  21.140  0.00  0.00    +0.005 C 
ATOM     10  C   UNL     1     -13.136   9.499  19.890  0.00  0.00    +0.092 C 
ATOM     11  C   UNL     1     -14.282   7.443  21.708  0.00  0.00    +0.078 C 
ATOM     12  C   UNL     1     -12.770   7.531  21.405  0.00  0.00    +0.025 C 
ATOM     13  C   UNL     1     -12.905   9.830  22.328  0.00  0.00    +0.020 C 
ATOM     14  C   UNL     1     -14.636   9.186  20.041  0.00  0.00    +0.097 C 
ATOM     15  C   UNL     1     -14.442   9.747  22.370  0.00  0.00    +0.085 C 
ENDROOT
BRANCH  10  17
ATOM      1  O   UNL     1     -13.114   7.913  18.127  0.00  0.00    -0.275 OA
ATOM      2  O   UNL     1      -9.626  11.080  16.623  0.00  0.00    -0.377 OA
ATOM      5  N   UNL     1     -11.421   9.502  18.115  0.00  0.00    -0.297 N 
ATOM     17  C   UNL     1     -12.563   8.893  18.633  0.00  0.00    +0.220 C 
ATOM     18  C   UNL     1     -10.669  10.585  18.757  0.00  0.00    +0.136 C 
ATOM     19  C   UNL     1     -10.803   8.981  16.896  0.00  0.00    +0.136 C 
ATOM     21  C   UNL     1     -10.314  11.658  17.735  0.00  0.00    +0.179 C 
ATOM     22  C   UNL     1     -10.449  10.121  15.953  0.00  0.00    +0.179 C 
ENDBRANCH  10  17
BRANCH  11  16
ATOM     16  C   UNL     1     -14.938   6.264  20.988  0.00  0.00    +0.164 C 
BRANCH  16   6
ATOM      6  N   UNL     1     -15.400   5.249  21.921  0.00  0.00    -0.250 N 
ATOM      7  N   UNL     1     -16.366   4.398  21.564  0.00  0.00    -0.065 NA
ATOM      8  N   UNL     1     -16.580   3.600  22.604  0.00  0.00    -0.132 NA
ATOM     20  C   UNL     1     -14.962   5.036  23.183  0.00  0.00    +0.136 A 
ATOM     23  C   UNL     1     -15.728   3.978  23.605  0.00  0.00    +0.108 A 
BRANCH  23  24
ATOM     24  C   UNL     1     -15.717   3.285  24.900  0.00  0.00    +0.218 C 
BRANCH  24   3
ATOM      3  O   UNL     1     -16.056   1.898  24.788  0.00  0.00    -0.377 OA
ATOM     25  C   UNL     1     -17.147   1.570  25.631  0.00  0.00    +0.194 C 
ENDBRANCH  24   3
ENDBRANCH  23  24
ENDBRANCH  16   6
ENDBRANCH  11  16
TORSDOF 5
ENDMDL
MODEL 4
REMARK VINA RESULT:      -5.5      4.105      6.566
REMARK  Name = 11941985
REMARK  6 active torsions:
REMARK  status: ('A' for Active; 'I' for Inactive)
REMARK    1  A    between atoms: O_3  and  C_24
REMARK    2  A    between atoms: O_3  and  C_25
REMARK    3  A    between atoms: N_6  and  C_16
REMARK    4  A    between atoms: C_10  and  C_17
REMARK    5  A    between atoms: C_11  and  C_16
REMARK    6  A    between atoms: C_23  and  C_24
REMARK                            x       y       z     vdW  Elec       q    Type
REMARK                         _______ _______ _______ _____ _____    ______ ____
ROOT
ATOM      4  N   UNL     1      10.824   7.217   7.517  0.00  0.00    -0.297 NA
ATOM      9  C   UNL     1       9.296   5.654   6.106  0.00  0.00    +0.005 C 
ATOM     10  C   UNL     1      10.597   5.992   5.352  0.00  0.00    +0.092 C 
ATOM     11  C   UNL     1       9.456   7.792   7.426  0.00  0.00    +0.078 C 
ATOM     12  C   UNL     1       8.570   6.964   6.469  0.00  0.00    +0.025 C 
ATOM     13  C   UNL     1       9.711   4.979   7.425  0.00  0.00    +0.020 C 
ATOM     14  C   UNL     1      11.395   7.030   6.161  0.00  0.00    +0.097 C 
ATOM     15  C   UNL     1      10.716   5.884   8.161  0.00  0.00    +0.085 C 
ENDROOT
BRANCH  10  17
ATOM      1  O   UNL     1       9.909   7.630   3.783  0.00  0.00    -0.275 OA
ATOM      2  O   UNL     1      11.607   4.079   0.789  0.00  0.00    -0.377 OA
ATOM      5  N   UNL     1      10.516   5.561   2.924  0.00  0.00    -0.297 N 
ATOM     17  C   UNL     1      10.306   6.476   3.953  0.00  0.00    +0.220 C 
ATOM     18  C   UNL     1      10.865   4.148   3.099  0.00  0.00    +0.136 C 
ATOM     19  C   UNL     1      10.263   5.950   1.536  0.00  0.00    +0.136 C 
ATOM     21  C   UNL     1      11.976   3.755   2.133  0.00  0.00    +0.179 C 
ATOM     22  C   UNL     1      11.402   5.486   0.640  0.00  0.00    +0.179 C 
ENDBRANCH  10  17
BRANCH  11  16
ATOM     16  C   UNL     1       9.471   9.274   7.048  0.00  0.00    +0.164 C 
BRANCH  16   6
ATOM      6  N   UNL     1      10.093  10.089   8.078  0.00  0.00    -0.250 N 
ATOM      7  N   UNL     1      11.403  10.351   8.028  0.00  0.00    -0.065 NA
ATOM      8  N   UNL     1      11.686  11.102   9.087  0.00  0.00    -0.132 NA
ATOM     20  C   UNL     1       9.494  10.652   9.152  0.00  0.00    +0.136 A 
ATOM     23  C   UNL     1      10.526  11.295   9.785  0.00  0.00    +0.108 A 
BRANCH  23  24
ATOM     24  C   UNL     1      10.504  12.091  11.020  0.00  0.00    +0.218 C 
BRANCH  24   3
ATOM      3  O   UNL     1       9.432  11.723  11.896  0.00  0.00    -0.377 OA
ATOM     25  C   UNL     1       9.230  12.707  12.896  0.00  0.00    +0.194 C 
ENDBRANCH  24   3
ENDBRANCH  23  24
ENDBRANCH  16   6
ENDBRANCH  11  16
TORSDOF 5
ENDMDL
MODEL 5
REMARK VINA RESULT:      -5.4     23.511     28.045
REMARK  Name = 11941985
REMARK  6 active torsions:
REMARK  status: ('A' for Active; 'I' for Inactive)
REMARK    1  A    between atoms: O_3  and  C_24
REMARK    2  A    between atoms: O_3  and  C_25
REMARK    3  A    between atoms: N_6  and  C_16
REMARK    4  A    between atoms: C_10  and  C_17
REMARK    5  A    between atoms: C_11  and  C_16
REMARK    6  A    between atoms: C_23  and  C_24
REMARK                            x       y       z     vdW  Elec       q    Type
REMARK                         _______ _______ _______ _____ _____    ______ ____
ROOT
ATOM      4  N   UNL     1      -5.866 -12.459  17.940  0.00  0.00    -0.297 NA
ATOM      9  C   UNL     1      -6.495  -9.939  17.793  0.00  0.00    +0.005 C 
ATOM     10  C   UNL     1      -7.681 -10.835  17.387  0.00  0.00    +0.092 C 
ATOM     11  C   UNL     1      -4.858 -11.732  17.124  0.00  0.00    +0.078 C 
ATOM     12  C   UNL     1      -5.287 -10.266  16.894  0.00  0.00    +0.025 C 
ATOM     13  C   UNL     1      -6.115 -10.332  19.231  0.00  0.00    +0.020 C 
ATOM     14  C   UNL     1      -7.217 -12.301  17.348  0.00  0.00    +0.097 C 
ATOM     15  C   UNL     1      -5.881 -11.853  19.295  0.00  0.00    +0.085 C 
ENDROOT
BRANCH  10  17
ATOM      1  O   UNL     1      -7.884 -10.938  15.027  0.00  0.00    -0.275 OA
ATOM      2  O   UNL     1     -11.646  -7.946  16.189  0.00  0.00    -0.377 OA
ATOM      5  N   UNL     1      -9.227  -9.390  16.117  0.00  0.00    -0.297 N 
ATOM     17  C   UNL     1      -8.266 -10.398  16.067  0.00  0.00    +0.220 C 
ATOM     18  C   UNL     1      -9.612  -8.640  17.316  0.00  0.00    +0.136 C 
ATOM     19  C   UNL     1      -9.849  -8.910  14.882  0.00  0.00    +0.136 C 
ATOM     21  C   UNL     1     -11.129  -8.514  17.395  0.00  0.00    +0.179 C 
ATOM     22  C   UNL     1     -11.354  -8.779  15.064  0.00  0.00    +0.179 C 
ENDBRANCH  10  17
BRANCH  11  16
ATOM     16  C   UNL     1      -4.546 -12.447  15.809  0.00  0.00    +0.164 C 
BRANCH  16   6
ATOM      6  N   UNL     1      -3.542 -11.738  15.032  0.00  0.00    -0.250 N 
ATOM      7  N   UNL     1      -2.457 -11.240  15.633  0.00  0.00    -0.065 NA
ATOM      8  N   UNL     1      -1.731 -10.650  14.689  0.00  0.00    -0.132 NA
ATOM     20  C   UNL     1      -3.557 -11.492  13.703  0.00  0.00    +0.136 A 
ATOM     23  C   UNL     1      -2.392 -10.796  13.501  0.00  0.00    +0.108 A 
BRANCH  23  24
ATOM     24  C   UNL     1      -1.845 -10.248  12.252  0.00  0.00    +0.218 C 
BRANCH  24   3
ATOM      3  O   UNL     1      -2.618 -10.611  11.103  0.00  0.00    -0.377 OA
ATOM     25  C   UNL     1      -3.086  -9.462  10.418  0.00  0.00    +0.194 C 
ENDBRANCH  24   3
ENDBRANCH  23  24
ENDBRANCH  16   6
ENDBRANCH  11  16
TORSDOF 5
ENDMDL
MODEL 6
REMARK VINA RESULT:      -5.4     24.174     28.965
REMARK  Name = 11941985
REMARK  6 active torsions:
REMARK  status: ('A' for Active; 'I' for Inactive)
REMARK    1  A    between atoms: O_3  and  C_24
REMARK    2  A    between atoms: O_3  and  C_25
REMARK    3  A    between atoms: N_6  and  C_16
REMARK    4  A    between atoms: C_10  and  C_17
REMARK    5  A    between atoms: C_11  and  C_16
REMARK    6  A    between atoms: C_23  and  C_24
REMARK                            x       y       z     vdW  Elec       q    Type
REMARK                         _______ _______ _______ _____ _____    ______ ____
ROOT
ATOM      4  N   UNL     1      -5.573 -12.577  17.024  0.00  0.00    -0.297 NA
ATOM      9  C   UNL     1      -5.886 -10.728  18.828  0.00  0.00    +0.005 C 
ATOM     10  C   UNL     1      -7.212 -11.458  18.541  0.00  0.00    +0.092 C 
ATOM     11  C   UNL     1      -5.034 -11.285  16.525  0.00  0.00    +0.078 C 
ATOM     12  C   UNL     1      -5.343 -10.137  17.512  0.00  0.00    +0.025 C 
ATOM     13  C   UNL     1      -4.884 -11.796  19.299  0.00  0.00    +0.020 C 
ATOM     14  C   UNL     1      -7.009 -12.436  17.370  0.00  0.00    +0.097 C 
ATOM     15  C   UNL     1      -4.832 -12.933  18.261  0.00  0.00    +0.085 C 
ENDROOT
BRANCH  10  17
ATOM      1  O   UNL     1      -8.157  -9.592  17.425  0.00  0.00    -0.275 OA
ATOM      2  O   UNL     1     -12.091 -11.366  19.840  0.00  0.00    -0.377 OA
ATOM      5  N   UNL     1      -9.500 -10.651  18.995  0.00  0.00    -0.297 N 
ATOM     17  C   UNL     1      -8.326 -10.479  18.265  0.00  0.00    +0.220 C 
ATOM     18  C   UNL     1      -9.690 -11.611  20.087  0.00  0.00    +0.136 C 
ATOM     19  C   UNL     1     -10.631  -9.747  18.786  0.00  0.00    +0.136 C 
ATOM     21  C   UNL     1     -11.030 -12.320  19.939  0.00  0.00    +0.179 C 
ATOM     22  C   UNL     1     -11.928 -10.536  18.687  0.00  0.00    +0.179 C 
ENDBRANCH  10  17
BRANCH  11  16
ATOM     16  C   UNL     1      -5.514 -10.961  15.109  0.00  0.00    +0.164 C 
BRANCH  16   6
ATOM      6  N   UNL     1      -4.404 -10.820  14.180  0.00  0.00    -0.250 N 
ATOM      7  N   UNL     1      -3.158 -10.672  14.641  0.00  0.00    -0.065 NA
ATOM      8  N   UNL     1      -2.366 -10.563  13.580  0.00  0.00    -0.132 NA
ATOM     20  C   UNL     1      -4.460 -10.812  12.829  0.00  0.00    +0.136 A 
ATOM     23  C   UNL     1      -3.149 -10.647  12.462  0.00  0.00    +0.108 A 
BRANCH  23  24
ATOM     24  C   UNL     1      -2.568 -10.561  11.116  0.00  0.00    +0.218 C 
BRANCH  24   3
ATOM      3  O   UNL     1      -2.648  -9.242  10.562  0.00  0.00    -0.377 OA
ATOM     25  C   UNL     1      -3.711  -9.146   9.629  0.00  0.00    +0.194 C 
ENDBRANCH  24   3
ENDBRANCH  23  24
ENDBRANCH  16   6
ENDBRANCH  11  16
TORSDOF 5
ENDMDL
MODEL 7
REMARK VINA RESULT:      -5.4     23.421     25.861
REMARK  Name = 11941985
REMARK  6 active torsions:
REMARK  status: ('A' for Active; 'I' for Inactive)
REMARK    1  A    between atoms: O_3  and  C_24
REMARK    2  A    between atoms: O_3  and  C_25
REMARK    3  A    between atoms: N_6  and  C_16
REMARK    4  A    between atoms: C_10  and  C_17
REMARK    5  A    between atoms: C_11  and  C_16
REMARK    6  A    between atoms: C_23  and  C_24
REMARK                            x       y       z     vdW  Elec       q    Type
REMARK                         _______ _______ _______ _____ _____    ______ ____
ROOT
ATOM      4  N   UNL     1      -1.896 -11.481  14.263  0.00  0.00    -0.297 NA
ATOM      9  C   UNL     1      -3.959 -12.580  13.121  0.00  0.00    +0.005 C 
ATOM     10  C   UNL     1      -3.554 -11.276  12.407  0.00  0.00    +0.092 C 
ATOM     11  C   UNL     1      -2.947 -11.762  15.277  0.00  0.00    +0.078 C 
ATOM     12  C   UNL     1      -4.240 -12.274  14.605  0.00  0.00    +0.025 C 
ATOM     13  C   UNL     1      -2.736 -13.512  13.069  0.00  0.00    +0.020 C 
ATOM     14  C   UNL     1      -2.429 -10.591  13.203  0.00  0.00    +0.097 C 
ATOM     15  C   UNL     1      -1.511 -12.770  13.636  0.00  0.00    +0.085 C 
ENDROOT
BRANCH  10  17
ATOM      1  O   UNL     1      -5.227  -9.796  13.200  0.00  0.00    -0.275 OA
ATOM      2  O   UNL     1      -5.750  -9.310   8.307  0.00  0.00    -0.377 OA
ATOM      5  N   UNL     1      -5.218 -10.224  10.918  0.00  0.00    -0.297 N 
ATOM     17  C   UNL     1      -4.742 -10.365  12.220  0.00  0.00    +0.220 C 
ATOM     18  C   UNL     1      -4.748 -10.980   9.754  0.00  0.00    +0.136 C 
ATOM     19  C   UNL     1      -6.364  -9.356  10.649  0.00  0.00    +0.136 C 
ATOM     21  C   UNL     1      -4.553 -10.048   8.564  0.00  0.00    +0.179 C 
ATOM     22  C   UNL     1      -6.097  -8.490   9.426  0.00  0.00    +0.179 C 
ENDBRANCH  10  17
BRANCH  11  16
ATOM     16  C   UNL     1      -3.216 -10.563  16.187  0.00  0.00    +0.164 C 
BRANCH  16   6
ATOM      6  N   UNL     1      -4.173 -10.881  17.234  0.00  0.00    -0.250 N 
ATOM      7  N   UNL     1      -3.838 -11.726  18.215  0.00  0.00    -0.065 NA
ATOM      8  N   UNL     1      -4.897 -11.828  19.011  0.00  0.00    -0.132 NA
ATOM     20  C   UNL     1      -5.436 -10.417  17.359  0.00  0.00    +0.136 A 
ATOM     23  C   UNL     1      -5.885 -11.032  18.500  0.00  0.00    +0.108 A 
BRANCH  23  24
ATOM     24  C   UNL     1      -7.194 -10.926  19.157  0.00  0.00    +0.218 C 
BRANCH  24   3
ATOM      3  O   UNL     1      -7.346 -11.849  20.242  0.00  0.00    -0.377 OA
ATOM     25  C   UNL     1      -8.242 -12.893  19.901  0.00  0.00    +0.194 C 
ENDBRANCH  24   3
ENDBRANCH  23  24
ENDBRANCH  16   6
ENDBRANCH  11  16
TORSDOF 5
ENDMDL
MODEL 8
REMARK VINA RESULT:      -5.4     24.786     28.613
REMARK  Name = 11941985
REMARK  6 active torsions:
REMARK  status: ('A' for Active; 'I' for Inactive)
REMARK    1  A    between atoms: O_3  and  C_24
REMARK    2  A    between atoms: O_3  and  C_25
REMARK    3  A    between atoms: N_6  and  C_16
REMARK    4  A    between atoms: C_10  and  C_17
REMARK    5  A    between atoms: C_11  and  C_16
REMARK    6  A    between atoms: C_23  and  C_24
REMARK                            x       y       z     vdW  Elec       q    Type
REMARK                         _______ _______ _______ _____ _____    ______ ____
ROOT
ATOM      4  N   UNL     1      -5.383 -11.005  18.535  0.00  0.00    -0.297 NA
ATOM      9  C   UNL     1      -5.358 -12.585  16.468  0.00  0.00    +0.005 C 
ATOM     10  C   UNL     1      -4.501 -11.329  16.220  0.00  0.00    +0.092 C 
ATOM     11  C   UNL     1      -6.776 -11.341  18.136  0.00  0.00    +0.078 C 
ATOM     12  C   UNL     1      -6.795 -12.152  16.822  0.00  0.00    +0.025 C 
ATOM     13  C   UNL     1      -4.772 -13.285  17.706  0.00  0.00    +0.020 C 
ATOM     14  C   UNL     1      -4.666 -10.363  17.407  0.00  0.00    +0.097 C 
ATOM     15  C   UNL     1      -4.685 -12.273  18.864  0.00  0.00    +0.085 C 
ENDROOT
BRANCH  10  17
ATOM      1  O   UNL     1      -5.714  -9.782  14.894  0.00  0.00    -0.275 OA
ATOM      2  O   UNL     1      -2.382 -11.442  11.638  0.00  0.00    -0.377 OA
ATOM      5  N   UNL     1      -4.185 -11.129  13.781  0.00  0.00    -0.297 N 
ATOM     17  C   UNL     1      -4.862 -10.673  14.910  0.00  0.00    +0.220 C 
ATOM     18  C   UNL     1      -3.262 -12.267  13.743  0.00  0.00    +0.136 C 
ATOM     19  C   UNL     1      -4.471 -10.544  12.471  0.00  0.00    +0.136 C 
ATOM     21  C   UNL     1      -2.018 -11.912  12.939  0.00  0.00    +0.179 C 
ATOM     22  C   UNL     1      -3.176 -10.256  11.725  0.00  0.00    +0.179 C 
ENDBRANCH  10  17
BRANCH  11  16
ATOM     16  C   UNL     1      -7.672 -10.104  18.054  0.00  0.00    +0.164 C 
BRANCH  16   6
ATOM      6  N   UNL     1      -8.926 -10.297  18.764  0.00  0.00    -0.250 N 
ATOM      7  N   UNL     1      -8.951 -10.993  19.905  0.00  0.00    -0.065 NA
ATOM      8  N   UNL     1     -10.214 -11.008  20.318  0.00  0.00    -0.132 NA
ATOM     20  C   UNL     1     -10.149  -9.846  18.405  0.00  0.00    +0.136 A 
ATOM     23  C   UNL     1     -10.961 -10.309  19.409  0.00  0.00    +0.108 A 
BRANCH  23  24
ATOM     24  C   UNL     1     -12.410 -10.142  19.581  0.00  0.00    +0.218 C 
BRANCH  24   3
ATOM      3  O   UNL     1     -12.796 -10.036  20.957  0.00  0.00    -0.377 OA
ATOM     25  C   UNL     1     -13.744 -11.032  21.298  0.00  0.00    +0.194 C 
ENDBRANCH  24   3
ENDBRANCH  23  24
ENDBRANCH  16   6
ENDBRANCH  11  16
TORSDOF 5
ENDMDL
MODEL 9
REMARK VINA RESULT:      -5.2     19.440     22.587
REMARK  Name = 11941985
REMARK  6 active torsions:
REMARK  status: ('A' for Active; 'I' for Inactive)
REMARK    1  A    between atoms: O_3  and  C_24
REMARK    2  A    between atoms: O_3  and  C_25
REMARK    3  A    between atoms: N_6  and  C_16
REMARK    4  A    between atoms: C_10  and  C_17
REMARK    5  A    between atoms: C_11  and  C_16
REMARK    6  A    between atoms: C_23  and  C_24
REMARK                            x       y       z     vdW  Elec       q    Type
REMARK                         _______ _______ _______ _____ _____    ______ ____
ROOT
ATOM      4  N   UNL     1      21.510   6.312  22.858  0.00  0.00    -0.297 NA
ATOM      9  C   UNL     1      20.909   7.610  20.685  0.00  0.00    +0.005 C 
ATOM     10  C   UNL     1      19.641   7.187  21.452  0.00  0.00    +0.092 C 
ATOM     11  C   UNL     1      22.205   5.701  21.694  0.00  0.00    +0.078 C 
ATOM     12  C   UNL     1      21.748   6.355  20.371  0.00  0.00    +0.025 C 
ATOM     13  C   UNL     1      21.735   8.486  21.643  0.00  0.00    +0.020 C 
ATOM     14  C   UNL     1      20.043   6.301  22.644  0.00  0.00    +0.097 C 
ATOM     15  C   UNL     1      21.953   7.725  22.963  0.00  0.00    +0.085 C 
ENDROOT
BRANCH  10  17
ATOM      1  O   UNL     1      18.975   5.418  20.021  0.00  0.00    -0.275 OA
ATOM      2  O   UNL     1      14.733   7.912  20.510  0.00  0.00    -0.377 OA
ATOM      5  N   UNL     1      17.433   7.122  20.351  0.00  0.00    -0.297 N 
ATOM     17  C   UNL     1      18.660   6.490  20.542  0.00  0.00    +0.220 C 
ATOM     18  C   UNL     1      17.074   8.453  20.850  0.00  0.00    +0.136 C 
ATOM     19  C   UNL     1      16.422   6.511  19.487  0.00  0.00    +0.136 C 
ATOM     21  C   UNL     1      15.675   8.430  21.454  0.00  0.00    +0.179 C 
ATOM     22  C   UNL     1      15.054   6.566  20.152  0.00  0.00    +0.179 C 
ENDBRANCH  10  17
BRANCH  11  16
ATOM     16  C   UNL     1      22.055   4.179  21.657  0.00  0.00    +0.164 C 
BRANCH  16   6
ATOM      6  N   UNL     1      23.293   3.522  21.272  0.00  0.00    -0.250 N 
ATOM      7  N   UNL     1      23.288   2.232  20.922  0.00  0.00    -0.065 NA
ATOM      8  N   UNL     1      24.543   1.908  20.631  0.00  0.00    -0.132 NA
ATOM     20  C   UNL     1      24.529   4.068  21.221  0.00  0.00    +0.136 A 
ATOM     23  C   UNL     1      25.316   3.022  20.809  0.00  0.00    +0.108 A 
BRANCH  23  24
ATOM     24  C   UNL     1      26.764   2.992  20.566  0.00  0.00    +0.218 C 
BRANCH  24   3
ATOM      3  O   UNL     1      27.207   4.063  19.725  0.00  0.00    -0.377 OA
ATOM     25  C   UNL     1      27.134   3.701  18.357  0.00  0.00    +0.194 C 
ENDBRANCH  24   3
ENDBRANCH  23  24
ENDBRANCH  16   6
ENDBRANCH  11  16
TORSDOF 5
ENDMDL
MODEL 10
REMARK VINA RESULT:      -5.2     18.752     22.078
REMARK  Name = 11941985
REMARK  6 active torsions:
REMARK  status: ('A' for Active; 'I' for Inactive)
REMARK    1  A    between atoms: O_3  and  C_24
REMARK    2  A    between atoms: O_3  and  C_25
REMARK    3  A    between atoms: N_6  and  C_16
REMARK    4  A    between atoms: C_10  and  C_17
REMARK    5  A    between atoms: C_11  and  C_16
REMARK    6  A    between atoms: C_23  and  C_24
REMARK                            x       y       z     vdW  Elec       q    Type
REMARK                         _______ _______ _______ _____ _____    ______ ____
ROOT
ATOM      4  N   UNL     1      20.527   8.062  20.970  0.00  0.00    -0.297 NA
ATOM      9  C   UNL     1      21.358   6.458  22.842  0.00  0.00    +0.005 C 
ATOM     10  C   UNL     1      22.093   6.193  21.514  0.00  0.00    +0.092 C 
ATOM     11  C   UNL     1      19.368   7.381  21.606  0.00  0.00    +0.078 C 
ATOM     12  C   UNL     1      19.840   6.312  22.615  0.00  0.00    +0.025 C 
ATOM     13  C   UNL     1      21.627   7.927  23.212  0.00  0.00    +0.020 C 
ATOM     14  C   UNL     1      21.466   7.061  20.408  0.00  0.00    +0.097 C 
ATOM     15  C   UNL     1      21.241   8.826  22.023  0.00  0.00    +0.085 C 
ENDROOT
BRANCH  10  17
ATOM      1  O   UNL     1      21.057   4.252  20.631  0.00  0.00    -0.275 OA
ATOM      2  O   UNL     1      25.684   2.649  21.318  0.00  0.00    -0.377 OA
ATOM      5  N   UNL     1      23.212   3.995  21.454  0.00  0.00    -0.297 N 
ATOM     17  C   UNL     1      22.065   4.728  21.158  0.00  0.00    +0.220 C 
ATOM     18  C   UNL     1      24.376   4.496  22.192  0.00  0.00    +0.136 C 
ATOM     19  C   UNL     1      23.271   2.568  21.138  0.00  0.00    +0.136 C 
ATOM     21  C   UNL     1      25.664   4.068  21.500  0.00  0.00    +0.179 C 
ATOM     22  C   UNL     1      24.602   2.224  20.486  0.00  0.00    +0.179 C 
ENDBRANCH  10  17
BRANCH  11  16
ATOM     16  C   UNL     1      18.396   6.802  20.577  0.00  0.00    +0.164 C 
BRANCH  16   6
ATOM      6  N   UNL     1      17.020   7.173  20.864  0.00  0.00    -0.250 N 
ATOM      7  N   UNL     1      16.756   8.263  21.592  0.00  0.00    -0.065 NA
ATOM      8  N   UNL     1      15.434   8.347  21.694  0.00  0.00    -0.132 NA
ATOM     20  C   UNL     1      15.898   6.526  20.476  0.00  0.00    +0.136 A 
ATOM     23  C   UNL     1      14.894   7.290  21.015  0.00  0.00    +0.108 A 
BRANCH  23  24
ATOM     24  C   UNL     1      13.440   7.096  20.939  0.00  0.00    +0.218 C 
BRANCH  24   3
ATOM      3  O   UNL     1      13.000   6.712  19.631  0.00  0.00    -0.377 OA
ATOM     25  C   UNL     1      12.394   7.802  18.957  0.00  0.00    +0.194 C 
ENDBRANCH  24   3
ENDBRANCH  23  24
ENDBRANCH  16   6
ENDBRANCH  11  16
TORSDOF 5
ENDMDL
