MODEL 1
REMARK VINA RESULT:      -6.8      0.000      0.000
REMARK  Name = 75536605
REMARK  7 active torsions:
REMARK  status: ('A' for Active; 'I' for Inactive)
REMARK    1  A    between atoms: O_3  and  C_9
REMARK    2  A    between atoms: N_5  and  C_8
REMARK    3  A    between atoms: N_5  and  C_13
REMARK    4  A    between atoms: N_6  and  C_12
REMARK    5  A    between atoms: C_10  and  C_12
REMARK    6  A    between atoms: C_13  and  C_14
REMARK    7  A    between atoms: C_15  and  C_18
REMARK                            x       y       z     vdW  Elec       q    Type
REMARK                         _______ _______ _______ _____ _____    ______ ____
ROOT
ATOM      2  O   UNL     1      10.660   8.740  20.162  0.00  0.00    -0.371 OA
ATOM      8  C   UNL     1      12.345   7.246  19.404  0.00  0.00    +0.111 C 
ATOM      9  C   UNL     1      12.233   7.141  20.915  0.00  0.00    +0.164 C 
ATOM     10  C   UNL     1      10.838   7.706  21.145  0.00  0.00    +0.165 C 
ATOM     11  C   UNL     1      11.664   8.579  19.145  0.00  0.00    +0.181 C 
ENDROOT
BRANCH   9   3
ATOM      3  O   UNL     1      12.347   5.810  21.380  0.00  0.00    -0.388 OA
ATOM     25  H   UNL     1      11.495   5.548  21.770  0.00  0.00    +0.210 HD
ENDBRANCH   9   3
BRANCH   8   5
ATOM      5  N   UNL     1      13.714   7.204  18.916  0.00  0.00    -0.305 NA
ATOM     24  H   UNL     1      13.738   7.567  17.964  0.00  0.00    +0.123 HD
BRANCH   5  13
ATOM     13  C   UNL     1      14.593   8.011  19.753  0.00  0.00    +0.118 C 
BRANCH  13  14
ATOM      7  N   UNL     1      18.125   7.382  20.964  0.00  0.00    -0.263 NA
ATOM     14  C   UNL     1      15.961   7.395  19.885  0.00  0.00    -0.015 A 
ATOM     16  C   UNL     1      16.339   6.314  19.096  0.00  0.00    +0.008 A 
ATOM     17  C   UNL     1      16.882   7.888  20.796  0.00  0.00    +0.115 A 
ATOM     19  C   UNL     1      17.610   5.767  19.241  0.00  0.00    +0.020 A 
ATOM     21  C   UNL     1      18.457   6.333  20.180  0.00  0.00    +0.111 A 
ENDBRANCH  13  14
ENDBRANCH   5  13
ENDBRANCH   8   5
BRANCH  10  12
ATOM     12  C   UNL     1      10.647   8.283  22.537  0.00  0.00    +0.138 C 
BRANCH  12   6
ATOM      4  O   UNL     1      12.653  10.311  22.869  0.00  0.00    -0.270 OA
ATOM      6  N   UNL     1      10.447   9.704  22.489  0.00  0.00    -0.308 N 
ATOM     15  C   UNL     1      11.482  10.617  22.662  0.00  0.00    +0.251 C 
ATOM     26  H   UNL     1       9.498  10.029  22.336  0.00  0.00    +0.149 HD
BRANCH  15  18
ATOM      1  S   UNL     1      10.547  12.820  24.037  0.00  0.00    -0.092 S 
ATOM     18  C   UNL     1      11.105  12.053  22.610  0.00  0.00    +0.074 A 
ATOM     20  C   UNL     1      11.134  12.916  21.538  0.00  0.00    +0.021 A 
ATOM     22  C   UNL     1      10.693  14.223  21.890  0.00  0.00    +0.008 A 
ATOM     23  C   UNL     1      10.343  14.310  23.220  0.00  0.00    +0.046 A 
ENDBRANCH  15  18
ENDBRANCH  12   6
ENDBRANCH  10  12
TORSDOF 7
ENDMDL
MODEL 2
REMARK VINA RESULT:      -6.8      1.785      2.125
REMARK  Name = 75536605
REMARK  7 active torsions:
REMARK  status: ('A' for Active; 'I' for Inactive)
REMARK    1  A    between atoms: O_3  and  C_9
REMARK    2  A    between atoms: N_5  and  C_8
REMARK    3  A    between atoms: N_5  and  C_13
REMARK    4  A    between atoms: N_6  and  C_12
REMARK    5  A    between atoms: C_10  and  C_12
REMARK    6  A    between atoms: C_13  and  C_14
REMARK    7  A    between atoms: C_15  and  C_18
REMARK                            x       y       z     vdW  Elec       q    Type
REMARK                         _______ _______ _______ _____ _____    ______ ____
ROOT
ATOM      2  O   UNL     1      10.635   8.566  19.925  0.00  0.00    -0.371 OA
ATOM      8  C   UNL     1      12.430   7.197  19.185  0.00  0.00    +0.111 C 
ATOM      9  C   UNL     1      12.360   7.144  20.701  0.00  0.00    +0.164 C 
ATOM     10  C   UNL     1      10.925   7.593  20.943  0.00  0.00    +0.165 C 
ATOM     11  C   UNL     1      11.628   8.453  18.891  0.00  0.00    +0.181 C 
ENDROOT
BRANCH   9   3
ATOM      3  O   UNL     1      12.601   5.848  21.214  0.00  0.00    -0.388 OA
ATOM     25  H   UNL     1      13.562   5.732  21.314  0.00  0.00    +0.210 HD
ENDBRANCH   9   3
BRANCH   8   5
ATOM      5  N   UNL     1      13.787   7.255  18.666  0.00  0.00    -0.305 NA
ATOM     24  H   UNL     1      13.775   7.710  17.753  0.00  0.00    +0.123 HD
BRANCH   5  13
ATOM     13  C   UNL     1      14.657   8.013  19.558  0.00  0.00    +0.118 C 
BRANCH  13  14
ATOM      7  N   UNL     1      18.147   7.290  20.836  0.00  0.00    -0.263 NA
ATOM     14  C   UNL     1      15.998   7.349  19.729  0.00  0.00    -0.015 A 
ATOM     16  C   UNL     1      16.342   6.226  18.984  0.00  0.00    +0.008 A 
ATOM     17  C   UNL     1      16.927   7.837  20.634  0.00  0.00    +0.115 A 
ATOM     19  C   UNL     1      17.588   5.635  19.164  0.00  0.00    +0.020 A 
ATOM     21  C   UNL     1      18.446   6.201  20.093  0.00  0.00    +0.111 A 
ENDBRANCH  13  14
ENDBRANCH   5  13
ENDBRANCH   8   5
BRANCH  10  12
ATOM     12  C   UNL     1      10.713   8.207  22.316  0.00  0.00    +0.138 C 
BRANCH  12   6
ATOM      4  O   UNL     1      10.918  11.070  22.242  0.00  0.00    -0.270 OA
ATOM      6  N   UNL     1      11.843   8.996  22.714  0.00  0.00    -0.308 N 
ATOM     15  C   UNL     1      11.855  10.386  22.644  0.00  0.00    +0.251 C 
ATOM     26  H   UNL     1      12.661   8.494  23.045  0.00  0.00    +0.149 HD
BRANCH  15  18
ATOM      1  S   UNL     1      14.613  10.315  22.705  0.00  0.00    -0.092 S 
ATOM     18  C   UNL     1      13.111  11.053  23.070  0.00  0.00    +0.074 A 
ATOM     20  C   UNL     1      13.272  12.239  23.752  0.00  0.00    +0.021 A 
ATOM     22  C   UNL     1      14.644  12.546  23.977  0.00  0.00    +0.008 A 
ATOM     23  C   UNL     1      15.481  11.583  23.458  0.00  0.00    +0.046 A 
ENDBRANCH  15  18
ENDBRANCH  12   6
ENDBRANCH  10  12
TORSDOF 7
ENDMDL
MODEL 3
REMARK VINA RESULT:      -6.5      4.114      7.629
REMARK  Name = 75536605
REMARK  7 active torsions:
REMARK  status: ('A' for Active; 'I' for Inactive)
REMARK    1  A    between atoms: O_3  and  C_9
REMARK    2  A    between atoms: N_5  and  C_8
REMARK    3  A    between atoms: N_5  and  C_13
REMARK    4  A    between atoms: N_6  and  C_12
REMARK    5  A    between atoms: C_10  and  C_12
REMARK    6  A    between atoms: C_13  and  C_14
REMARK    7  A    between atoms: C_15  and  C_18
REMARK                            x       y       z     vdW  Elec       q    Type
REMARK                         _______ _______ _______ _____ _____    ______ ____
ROOT
ATOM      2  O   UNL     1      14.184   8.565  22.239  0.00  0.00    -0.371 OA
ATOM      8  C   UNL     1      13.121   6.974  20.831  0.00  0.00    +0.111 C 
ATOM      9  C   UNL     1      14.540   7.200  20.340  0.00  0.00    +0.164 C 
ATOM     10  C   UNL     1      15.194   7.775  21.589  0.00  0.00    +0.165 C 
ATOM     11  C   UNL     1      12.902   8.205  21.694  0.00  0.00    +0.181 C 
ENDROOT
BRANCH   9   3
ATOM      3  O   UNL     1      15.169   6.005  19.918  0.00  0.00    -0.388 OA
ATOM     25  H   UNL     1      14.515   5.468  19.438  0.00  0.00    +0.210 HD
ENDBRANCH   9   3
BRANCH   8   5
ATOM      5  N   UNL     1      12.146   6.851  19.760  0.00  0.00    -0.305 NA
ATOM     24  H   UNL     1      11.434   6.174  20.034  0.00  0.00    +0.123 HD
BRANCH   5  13
ATOM     13  C   UNL     1      11.501   8.131  19.490  0.00  0.00    +0.118 C 
BRANCH  13  14
ATOM      7  N   UNL     1      11.081   8.901  15.807  0.00  0.00    -0.263 NA
ATOM     14  C   UNL     1      11.800   8.626  18.099  0.00  0.00    -0.015 A 
ATOM     16  C   UNL     1      13.010   9.242  17.802  0.00  0.00    +0.008 A 
ATOM     17  C   UNL     1      10.876   8.480  17.076  0.00  0.00    +0.115 A 
ATOM     19  C   UNL     1      13.256   9.688  16.508  0.00  0.00    +0.020 A 
ATOM     21  C   UNL     1      12.269   9.495  15.556  0.00  0.00    +0.111 A 
ENDBRANCH  13  14
ENDBRANCH   5  13
ENDBRANCH   8   5
BRANCH  10  12
ATOM     12  C   UNL     1      16.406   8.639  21.288  0.00  0.00    +0.138 C 
BRANCH  12   6
ATOM      4  O   UNL     1      18.008   6.722  19.872  0.00  0.00    -0.270 OA
ATOM      6  N   UNL     1      17.615   8.021  21.753  0.00  0.00    -0.308 N 
ATOM     15  C   UNL     1      18.330   7.098  20.996  0.00  0.00    +0.251 C 
ATOM     26  H   UNL     1      17.933   8.275  22.683  0.00  0.00    +0.149 HD
BRANCH  15  18
ATOM      1  S   UNL     1      20.526   5.448  20.736  0.00  0.00    -0.092 S 
ATOM     18  C   UNL     1      19.547   6.531  21.631  0.00  0.00    +0.074 A 
ATOM     20  C   UNL     1      20.043   6.749  22.897  0.00  0.00    +0.021 A 
ATOM     22  C   UNL     1      21.241   6.018  23.136  0.00  0.00    +0.008 A 
ATOM     23  C   UNL     1      21.617   5.268  22.042  0.00  0.00    +0.046 A 
ENDBRANCH  15  18
ENDBRANCH  12   6
ENDBRANCH  10  12
TORSDOF 7
ENDMDL
MODEL 4
REMARK VINA RESULT:      -6.2      5.544      9.788
REMARK  Name = 75536605
REMARK  7 active torsions:
REMARK  status: ('A' for Active; 'I' for Inactive)
REMARK    1  A    between atoms: O_3  and  C_9
REMARK    2  A    between atoms: N_5  and  C_8
REMARK    3  A    between atoms: N_5  and  C_13
REMARK    4  A    between atoms: N_6  and  C_12
REMARK    5  A    between atoms: C_10  and  C_12
REMARK    6  A    between atoms: C_13  and  C_14
REMARK    7  A    between atoms: C_15  and  C_18
REMARK                            x       y       z     vdW  Elec       q    Type
REMARK                         _______ _______ _______ _____ _____    ______ ____
ROOT
ATOM      2  O   UNL     1      17.374   7.010  21.565  0.00  0.00    -0.371 OA
ATOM      8  C   UNL     1      16.161   6.202  19.688  0.00  0.00    +0.111 C 
ATOM      9  C   UNL     1      17.640   6.233  19.346  0.00  0.00    +0.164 C 
ATOM     10  C   UNL     1      18.262   6.241  20.736  0.00  0.00    +0.165 C 
ATOM     11  C   UNL     1      16.111   7.134  20.888  0.00  0.00    +0.181 C 
ENDROOT
BRANCH   9   3
ATOM      3  O   UNL     1      18.049   5.108  18.592  0.00  0.00    -0.388 OA
ATOM     25  H   UNL     1      17.254   4.635  18.291  0.00  0.00    +0.210 HD
ENDBRANCH   9   3
BRANCH   8   5
ATOM      5  N   UNL     1      15.301   6.634  18.599  0.00  0.00    -0.305 NA
ATOM     24  H   UNL     1      15.072   5.828  18.017  0.00  0.00    +0.123 HD
BRANCH   5  13
ATOM     13  C   UNL     1      14.065   7.218  19.106  0.00  0.00    +0.118 C 
BRANCH  13  14
ATOM      7  N   UNL     1      11.130   8.287  16.966  0.00  0.00    -0.263 NA
ATOM     14  C   UNL     1      13.273   7.887  18.014  0.00  0.00    -0.015 A 
ATOM     16  C   UNL     1      13.895   8.693  17.069  0.00  0.00    +0.008 A 
ATOM     17  C   UNL     1      11.900   7.717  17.921  0.00  0.00    +0.115 A 
ATOM     19  C   UNL     1      13.136   9.298  16.072  0.00  0.00    +0.020 A 
ATOM     21  C   UNL     1      11.770   9.064  16.064  0.00  0.00    +0.111 A 
ENDBRANCH  13  14
ENDBRANCH   5  13
ENDBRANCH   8   5
BRANCH  10  12
ATOM     12  C   UNL     1      19.652   6.852  20.767  0.00  0.00    +0.138 C 
BRANCH  12   6
ATOM      4  O   UNL     1      21.079   5.387  22.782  0.00  0.00    -0.270 OA
ATOM      6  N   UNL     1      20.664   5.858  20.550  0.00  0.00    -0.308 N 
ATOM     15  C   UNL     1      21.306   5.195  21.591  0.00  0.00    +0.251 C 
ATOM     26  H   UNL     1      20.913   5.659  19.586  0.00  0.00    +0.149 HD
BRANCH  15  18
ATOM      1  S   UNL     1      23.810   4.780  20.508  0.00  0.00    -0.092 S 
ATOM     18  C   UNL     1      22.348   4.213  21.199  0.00  0.00    +0.074 A 
ATOM     20  C   UNL     1      22.328   2.840  21.309  0.00  0.00    +0.021 A 
ATOM     22  C   UNL     1      23.526   2.246  20.820  0.00  0.00    +0.008 A 
ATOM     23  C   UNL     1      24.418   3.187  20.354  0.00  0.00    +0.046 A 
ENDBRANCH  15  18
ENDBRANCH  12   6
ENDBRANCH  10  12
TORSDOF 7
ENDMDL
MODEL 5
REMARK VINA RESULT:      -6.2      2.526      3.573
REMARK  Name = 75536605
REMARK  7 active torsions:
REMARK  status: ('A' for Active; 'I' for Inactive)
REMARK    1  A    between atoms: O_3  and  C_9
REMARK    2  A    between atoms: N_5  and  C_8
REMARK    3  A    between atoms: N_5  and  C_13
REMARK    4  A    between atoms: N_6  and  C_12
REMARK    5  A    between atoms: C_10  and  C_12
REMARK    6  A    between atoms: C_13  and  C_14
REMARK    7  A    between atoms: C_15  and  C_18
REMARK                            x       y       z     vdW  Elec       q    Type
REMARK                         _______ _______ _______ _____ _____    ______ ____
ROOT
ATOM      2  O   UNL     1      10.532   8.273  20.020  0.00  0.00    -0.371 OA
ATOM      8  C   UNL     1      12.520   7.533  18.949  0.00  0.00    +0.111 C 
ATOM      9  C   UNL     1      12.702   7.437  20.453  0.00  0.00    +0.164 C 
ATOM     10  C   UNL     1      11.254   7.419  20.923  0.00  0.00    +0.165 C 
ATOM     11  C   UNL     1      11.341   8.487  18.850  0.00  0.00    +0.181 C 
ENDROOT
BRANCH   9   3
ATOM      3  O   UNL     1      13.398   6.269  20.845  0.00  0.00    -0.388 OA
ATOM     25  H   UNL     1      12.751   5.554  20.967  0.00  0.00    +0.210 HD
ENDBRANCH   9   3
BRANCH   8   5
ATOM      5  N   UNL     1      13.699   8.013  18.248  0.00  0.00    -0.305 NA
ATOM     24  H   UNL     1      13.591   7.829  17.251  0.00  0.00    +0.123 HD
BRANCH   5  13
ATOM     13  C   UNL     1      13.879   9.447  18.446  0.00  0.00    +0.118 C 
BRANCH  13  14
ATOM      7  N   UNL     1      13.416  10.502  14.840  0.00  0.00    -0.263 NA
ATOM     14  C   UNL     1      14.080  10.171  17.142  0.00  0.00    -0.015 A 
ATOM     16  C   UNL     1      15.065  11.143  17.005  0.00  0.00    +0.008 A 
ATOM     17  C   UNL     1      13.288   9.890  16.039  0.00  0.00    +0.115 A 
ATOM     19  C   UNL     1      15.226  11.794  15.787  0.00  0.00    +0.020 A 
ATOM     21  C   UNL     1      14.385  11.440  14.745  0.00  0.00    +0.111 A 
ENDBRANCH  13  14
ENDBRANCH   5  13
ENDBRANCH   8   5
BRANCH  10  12
ATOM     12  C   UNL     1      11.081   7.916  22.348  0.00  0.00    +0.138 C 
BRANCH  12   6
ATOM      4  O   UNL     1      12.944  10.078  22.666  0.00  0.00    -0.270 OA
ATOM      6  N   UNL     1      10.772   9.318  22.377  0.00  0.00    -0.308 N 
ATOM     15  C   UNL     1      11.744  10.301  22.536  0.00  0.00    +0.251 C 
ATOM     26  H   UNL     1       9.794   9.575  22.290  0.00  0.00    +0.149 HD
BRANCH  15  18
ATOM      1  S   UNL     1      10.672  12.346  24.047  0.00  0.00    -0.092 S 
ATOM     18  C   UNL     1      11.258  11.704  22.572  0.00  0.00    +0.074 A 
ATOM     20  C   UNL     1      11.200  12.625  21.549  0.00  0.00    +0.021 A 
ATOM     22  C   UNL     1      10.668  13.872  21.982  0.00  0.00    +0.008 A 
ATOM     23  C   UNL     1      10.339  13.859  23.320  0.00  0.00    +0.046 A 
ENDBRANCH  15  18
ENDBRANCH  12   6
ENDBRANCH  10  12
TORSDOF 7
ENDMDL
MODEL 6
REMARK VINA RESULT:      -6.2      1.699      2.389
REMARK  Name = 75536605
REMARK  7 active torsions:
REMARK  status: ('A' for Active; 'I' for Inactive)
REMARK    1  A    between atoms: O_3  and  C_9
REMARK    2  A    between atoms: N_5  and  C_8
REMARK    3  A    between atoms: N_5  and  C_13
REMARK    4  A    between atoms: N_6  and  C_12
REMARK    5  A    between atoms: C_10  and  C_12
REMARK    6  A    between atoms: C_13  and  C_14
REMARK    7  A    between atoms: C_15  and  C_18
REMARK                            x       y       z     vdW  Elec       q    Type
REMARK                         _______ _______ _______ _____ _____    ______ ____
ROOT
ATOM      2  O   UNL     1      10.418   7.882  21.899  0.00  0.00    -0.371 OA
ATOM      8  C   UNL     1      12.591   6.923  21.827  0.00  0.00    +0.111 C 
ATOM      9  C   UNL     1      12.713   8.433  21.730  0.00  0.00    +0.164 C 
ATOM     10  C   UNL     1      11.375   8.873  22.311  0.00  0.00    +0.165 C 
ATOM     11  C   UNL     1      11.132   6.715  21.455  0.00  0.00    +0.181 C 
ENDROOT
BRANCH   9   3
ATOM      3  O   UNL     1      13.803   8.942  22.474  0.00  0.00    -0.388 OA
ATOM     25  H   UNL     1      13.451   9.457  23.221  0.00  0.00    +0.210 HD
ENDBRANCH   9   3
BRANCH   8   5
ATOM      5  N   UNL     1      13.506   6.207  20.954  0.00  0.00    -0.305 NA
ATOM     24  H   UNL     1      12.969   5.603  20.332  0.00  0.00    +0.123 HD
BRANCH   5  13
ATOM     13  C   UNL     1      14.295   7.133  20.149  0.00  0.00    +0.118 C 
BRANCH  13  14
ATOM      7  N   UNL     1      17.620   5.765  18.964  0.00  0.00    -0.263 NA
ATOM     14  C   UNL     1      15.754   6.760  20.136  0.00  0.00    -0.015 A 
ATOM     16  C   UNL     1      16.575   7.039  21.222  0.00  0.00    +0.008 A 
ATOM     17  C   UNL     1      16.319   6.127  19.040  0.00  0.00    +0.115 A 
ATOM     19  C   UNL     1      17.919   6.683  21.180  0.00  0.00    +0.020 A 
ATOM     21  C   UNL     1      18.387   6.053  20.039  0.00  0.00    +0.111 A 
ENDBRANCH  13  14
ENDBRANCH   5  13
ENDBRANCH   8   5
BRANCH  10  12
ATOM     12  C   UNL     1      10.934  10.243  21.829  0.00  0.00    +0.138 C 
BRANCH  12   6
ATOM      4  O   UNL     1      10.807  13.102  21.589  0.00  0.00    -0.270 OA
ATOM      6  N   UNL     1      10.919  11.194  22.904  0.00  0.00    -0.308 N 
ATOM     15  C   UNL     1      10.856  12.568  22.694  0.00  0.00    +0.251 C 
ATOM     26  H   UNL     1      10.972  10.823  23.847  0.00  0.00    +0.149 HD
BRANCH  15  18
ATOM      1  S   UNL     1      11.577  12.803  25.347  0.00  0.00    -0.092 S 
ATOM     18  C   UNL     1      10.875  13.419  23.911  0.00  0.00    +0.074 A 
ATOM     20  C   UNL     1      10.391  14.697  24.080  0.00  0.00    +0.021 A 
ATOM     22  C   UNL     1      10.599  15.178  25.404  0.00  0.00    +0.008 A 
ATOM     23  C   UNL     1      11.234  14.248  26.199  0.00  0.00    +0.046 A 
ENDBRANCH  15  18
ENDBRANCH  12   6
ENDBRANCH  10  12
TORSDOF 7
ENDMDL
MODEL 7
REMARK VINA RESULT:      -6.1     26.604     29.278
REMARK  Name = 75536605
REMARK  7 active torsions:
REMARK  status: ('A' for Active; 'I' for Inactive)
REMARK    1  A    between atoms: O_3  and  C_9
REMARK    2  A    between atoms: N_5  and  C_8
REMARK    3  A    between atoms: N_5  and  C_13
REMARK    4  A    between atoms: N_6  and  C_12
REMARK    5  A    between atoms: C_10  and  C_12
REMARK    6  A    between atoms: C_13  and  C_14
REMARK    7  A    between atoms: C_15  and  C_18
REMARK                            x       y       z     vdW  Elec       q    Type
REMARK                         _______ _______ _______ _____ _____    ______ ____
ROOT
ATOM      2  O   UNL     1     -17.575   5.374  24.211  0.00  0.00    -0.371 OA
ATOM      8  C   UNL     1     -15.995   4.153  22.923  0.00  0.00    +0.111 C 
ATOM      9  C   UNL     1     -15.744   3.887  24.396  0.00  0.00    +0.164 C 
ATOM     10  C   UNL     1     -17.089   4.273  24.997  0.00  0.00    +0.165 C 
ATOM     11  C   UNL     1     -16.824   5.425  22.984  0.00  0.00    +0.181 C 
ENDROOT
BRANCH   9   3
ATOM      3  O   UNL     1     -15.417   2.536  24.659  0.00  0.00    -0.388 OA
ATOM     25  H   UNL     1     -15.487   2.385  25.617  0.00  0.00    +0.210 HD
ENDBRANCH   9   3
BRANCH   8   5
ATOM      5  N   UNL     1     -14.778   4.307  22.142  0.00  0.00    -0.305 NA
ATOM     24  H   UNL     1     -15.027   4.483  21.169  0.00  0.00    +0.123 HD
BRANCH   5  13
ATOM     13  C   UNL     1     -13.978   5.423  22.634  0.00  0.00    +0.118 C 
BRANCH  13  14
ATOM      7  N   UNL     1     -13.902   7.855  19.734  0.00  0.00    -0.263 NA
ATOM     14  C   UNL     1     -13.454   6.275  21.508  0.00  0.00    -0.015 A 
ATOM     16  C   UNL     1     -12.101   6.289  21.190  0.00  0.00    +0.008 A 
ATOM     17  C   UNL     1     -14.306   7.069  20.757  0.00  0.00    +0.115 A 
ATOM     19  C   UNL     1     -11.647   7.086  20.144  0.00  0.00    +0.020 A 
ATOM     21  C   UNL     1     -12.580   7.843  19.453  0.00  0.00    +0.111 A 
ENDBRANCH  13  14
ENDBRANCH   5  13
ENDBRANCH   8   5
BRANCH  10  12
ATOM     12  C   UNL     1     -16.998   4.684  26.456  0.00  0.00    +0.138 C 
BRANCH  12   6
ATOM      4  O   UNL     1     -17.668   3.500  28.985  0.00  0.00    -0.270 OA
ATOM      6  N   UNL     1     -16.198   3.761  27.209  0.00  0.00    -0.308 N 
ATOM     15  C   UNL     1     -16.604   3.235  28.432  0.00  0.00    +0.251 C 
ATOM     26  H   UNL     1     -15.297   3.508  26.818  0.00  0.00    +0.149 HD
BRANCH  15  18
ATOM      1  S   UNL     1     -14.448   2.960  30.132  0.00  0.00    -0.092 S 
ATOM     18  C   UNL     1     -15.650   2.312  29.098  0.00  0.00    +0.074 A 
ATOM     20  C   UNL     1     -15.572   0.940  29.013  0.00  0.00    +0.021 A 
ATOM     22  C   UNL     1     -14.513   0.414  29.806  0.00  0.00    +0.008 A 
ATOM     23  C   UNL     1     -13.820   1.404  30.467  0.00  0.00    +0.046 A 
ENDBRANCH  15  18
ENDBRANCH  12   6
ENDBRANCH  10  12
TORSDOF 7
ENDMDL
MODEL 8
REMARK VINA RESULT:      -6.0     26.466     28.239
REMARK  Name = 75536605
REMARK  7 active torsions:
REMARK  status: ('A' for Active; 'I' for Inactive)
REMARK    1  A    between atoms: O_3  and  C_9
REMARK    2  A    between atoms: N_5  and  C_8
REMARK    3  A    between atoms: N_5  and  C_13
REMARK    4  A    between atoms: N_6  and  C_12
REMARK    5  A    between atoms: C_10  and  C_12
REMARK    6  A    between atoms: C_13  and  C_14
REMARK    7  A    between atoms: C_15  and  C_18
REMARK                            x       y       z     vdW  Elec       q    Type
REMARK                         _______ _______ _______ _____ _____    ______ ____
ROOT
ATOM      2  O   UNL     1      -4.016 -10.480  14.073  0.00  0.00    -0.371 OA
ATOM      8  C   UNL     1      -3.522 -11.152  16.297  0.00  0.00    +0.111 C 
ATOM      9  C   UNL     1      -2.317 -11.430  15.417  0.00  0.00    +0.164 C 
ATOM     10  C   UNL     1      -2.588 -10.497  14.245  0.00  0.00    +0.165 C 
ATOM     11  C   UNL     1      -4.625 -11.013  15.261  0.00  0.00    +0.181 C 
ENDROOT
BRANCH   9   3
ATOM      3  O   UNL     1      -1.092 -11.130  16.058  0.00  0.00    -0.388 OA
ATOM     25  H   UNL     1      -0.567 -10.565  15.465  0.00  0.00    +0.210 HD
ENDBRANCH   9   3
BRANCH   8   5
ATOM      5  N   UNL     1      -3.787 -12.198  17.271  0.00  0.00    -0.305 NA
ATOM     24  H   UNL     1      -2.952 -12.774  17.377  0.00  0.00    +0.123 HD
BRANCH   5  13
ATOM     13  C   UNL     1      -4.136 -11.630  18.568  0.00  0.00    +0.118 C 
BRANCH  13  14
ATOM      7  N   UNL     1      -7.570 -10.902  19.987  0.00  0.00    -0.263 NA
ATOM     14  C   UNL     1      -5.610 -11.750  18.853  0.00  0.00    -0.015 A 
ATOM     16  C   UNL     1      -6.369 -12.768  18.286  0.00  0.00    +0.008 A 
ATOM     17  C   UNL     1      -6.251 -10.850  19.690  0.00  0.00    +0.115 A 
ATOM     19  C   UNL     1      -7.728 -12.852  18.568  0.00  0.00    +0.020 A 
ATOM     21  C   UNL     1      -8.275 -11.904  19.418  0.00  0.00    +0.111 A 
ENDBRANCH  13  14
ENDBRANCH   5  13
ENDBRANCH   8   5
BRANCH  10  12
ATOM     12  C   UNL     1      -1.921 -10.944  12.956  0.00  0.00    +0.138 C 
BRANCH  12   6
ATOM      4  O   UNL     1      -1.854  -9.148  10.716  0.00  0.00    -0.270 OA
ATOM      6  N   UNL     1      -2.841 -10.912  11.854  0.00  0.00    -0.308 N 
ATOM     15  C   UNL     1      -2.731 -10.002  10.807  0.00  0.00    +0.251 C 
ATOM     26  H   UNL     1      -3.603 -11.582  11.872  0.00  0.00    +0.149 HD
BRANCH  15  18
ATOM      1  S   UNL     1      -4.401 -11.616   9.315  0.00  0.00    -0.092 S 
ATOM     18  C   UNL     1      -3.779 -10.083   9.757  0.00  0.00    +0.074 A 
ATOM     20  C   UNL     1      -4.363  -9.063   9.039  0.00  0.00    +0.021 A 
ATOM     22  C   UNL     1      -5.334  -9.545   8.116  0.00  0.00    +0.008 A 
ATOM     23  C   UNL     1      -5.455 -10.917   8.162  0.00  0.00    +0.046 A 
ENDBRANCH  15  18
ENDBRANCH  12   6
ENDBRANCH  10  12
TORSDOF 7
ENDMDL
MODEL 9
REMARK VINA RESULT:      -5.9     25.678     27.852
REMARK  Name = 75536605
REMARK  7 active torsions:
REMARK  status: ('A' for Active; 'I' for Inactive)
REMARK    1  A    between atoms: O_3  and  C_9
REMARK    2  A    between atoms: N_5  and  C_8
REMARK    3  A    between atoms: N_5  and  C_13
REMARK    4  A    between atoms: N_6  and  C_12
REMARK    5  A    between atoms: C_10  and  C_12
REMARK    6  A    between atoms: C_13  and  C_14
REMARK    7  A    between atoms: C_15  and  C_18
REMARK                            x       y       z     vdW  Elec       q    Type
REMARK                         _______ _______ _______ _____ _____    ______ ____
ROOT
ATOM      2  O   UNL     1      -1.087 -11.350  15.062  0.00  0.00    -0.371 OA
ATOM      8  C   UNL     1      -3.141 -11.090  16.227  0.00  0.00    +0.111 C 
ATOM      9  C   UNL     1      -3.414 -11.740  14.882  0.00  0.00    +0.164 C 
ATOM     10  C   UNL     1      -2.037 -12.295  14.541  0.00  0.00    +0.165 C 
ATOM     11  C   UNL     1      -1.763 -10.493  15.998  0.00  0.00    +0.181 C 
ENDROOT
BRANCH   9   3
ATOM      3  O   UNL     1      -4.390 -12.761  14.957  0.00  0.00    -0.388 OA
ATOM     25  H   UNL     1      -5.133 -12.435  15.494  0.00  0.00    +0.210 HD
ENDBRANCH   9   3
BRANCH   8   5
ATOM      5  N   UNL     1      -4.133 -10.098  16.607  0.00  0.00    -0.305 NA
ATOM     24  H   UNL     1      -4.778  -9.958  15.830  0.00  0.00    +0.123 HD
BRANCH   5  13
ATOM     13  C   UNL     1      -4.888 -10.533  17.776  0.00  0.00    +0.118 C 
BRANCH  13  14
ATOM      7  N   UNL     1      -8.159  -9.290  16.330  0.00  0.00    -0.263 NA
ATOM     14  C   UNL     1      -6.362 -10.267  17.620  0.00  0.00    -0.015 A 
ATOM     16  C   UNL     1      -7.276 -10.718  18.566  0.00  0.00    +0.008 A 
ATOM     17  C   UNL     1      -6.850  -9.564  16.530  0.00  0.00    +0.115 A 
ATOM     19  C   UNL     1      -8.631 -10.456  18.394  0.00  0.00    +0.020 A 
ATOM     21  C   UNL     1      -9.018  -9.744  17.270  0.00  0.00    +0.111 A 
ENDBRANCH  13  14
ENDBRANCH   5  13
ENDBRANCH   8   5
BRANCH  10  12
ATOM     12  C   UNL     1      -1.817 -12.476  13.049  0.00  0.00    +0.138 C 
BRANCH  12   6
ATOM      4  O   UNL     1      -1.369  -9.915  11.829  0.00  0.00    -0.270 OA
ATOM      6  N   UNL     1      -2.763 -11.712  12.286  0.00  0.00    -0.308 N 
ATOM     15  C   UNL     1      -2.457 -10.474  11.729  0.00  0.00    +0.251 C 
ATOM     26  H   UNL     1      -3.691 -12.108  12.175  0.00  0.00    +0.149 HD
BRANCH  15  18
ATOM      1  S   UNL     1      -5.119  -9.745  11.686  0.00  0.00    -0.092 S 
ATOM     18  C   UNL     1      -3.555  -9.799  10.990  0.00  0.00    +0.074 A 
ATOM     20  C   UNL     1      -3.514  -9.174   9.763  0.00  0.00    +0.021 A 
ATOM     22  C   UNL     1      -4.782  -8.644   9.390  0.00  0.00    +0.008 A 
ATOM     23  C   UNL     1      -5.745  -8.884  10.346  0.00  0.00    +0.046 A 
ENDBRANCH  15  18
ENDBRANCH  12   6
ENDBRANCH  10  12
TORSDOF 7
ENDMDL
MODEL 10
REMARK VINA RESULT:      -5.9     26.607     29.404
REMARK  Name = 75536605
REMARK  7 active torsions:
REMARK  status: ('A' for Active; 'I' for Inactive)
REMARK    1  A    between atoms: O_3  and  C_9
REMARK    2  A    between atoms: N_5  and  C_8
REMARK    3  A    between atoms: N_5  and  C_13
REMARK    4  A    between atoms: N_6  and  C_12
REMARK    5  A    between atoms: C_10  and  C_12
REMARK    6  A    between atoms: C_13  and  C_14
REMARK    7  A    between atoms: C_15  and  C_18
REMARK                            x       y       z     vdW  Elec       q    Type
REMARK                         _______ _______ _______ _____ _____    ______ ____
ROOT
ATOM      2  O   UNL     1     -17.758   5.693  25.053  0.00  0.00    -0.371 OA
ATOM      8  C   UNL     1     -16.541   4.025  26.229  0.00  0.00    +0.111 C 
ATOM      9  C   UNL     1     -16.084   4.043  24.781  0.00  0.00    +0.164 C 
ATOM     10  C   UNL     1     -16.531   5.434  24.351  0.00  0.00    +0.165 C 
ATOM     11  C   UNL     1     -17.874   4.749  26.132  0.00  0.00    +0.181 C 
ENDROOT
BRANCH   9   3
ATOM      3  O   UNL     1     -14.686   3.873  24.648  0.00  0.00    -0.388 OA
ATOM     25  H   UNL     1     -14.520   3.303  23.878  0.00  0.00    +0.210 HD
ENDBRANCH   9   3
BRANCH   8   5
ATOM      5  N   UNL     1     -16.662   2.687  26.786  0.00  0.00    -0.305 NA
ATOM     24  H   UNL     1     -15.818   2.158  26.566  0.00  0.00    +0.123 HD
BRANCH   5  13
ATOM     13  C   UNL     1     -16.825   2.735  28.234  0.00  0.00    +0.118 C 
BRANCH  13  14
ATOM      7  N   UNL     1     -14.768  -0.163  29.539  0.00  0.00    -0.263 NA
ATOM     14  C   UNL     1     -15.741   1.970  28.945  0.00  0.00    -0.015 A 
ATOM     16  C   UNL     1     -14.737   2.631  29.644  0.00  0.00    +0.008 A 
ATOM     17  C   UNL     1     -15.712   0.584  28.922  0.00  0.00    +0.115 A 
ATOM     19  C   UNL     1     -13.749   1.896  30.291  0.00  0.00    +0.020 A 
ATOM     21  C   UNL     1     -13.809   0.515  30.209  0.00  0.00    +0.111 A 
ENDBRANCH  13  14
ENDBRANCH   5  13
ENDBRANCH   8   5
BRANCH  10  12
ATOM     12  C   UNL     1     -16.761   5.553  22.854  0.00  0.00    +0.138 C 
BRANCH  12   6
ATOM      4  O   UNL     1     -14.296   4.536  21.790  0.00  0.00    -0.270 OA
ATOM      6  N   UNL     1     -15.720   6.315  22.226  0.00  0.00    -0.308 N 
ATOM     15  C   UNL     1     -14.553   5.735  21.736  0.00  0.00    +0.251 C 
ATOM     26  H   UNL     1     -15.859   7.318  22.160  0.00  0.00    +0.149 HD
BRANCH  15  18
ATOM      1  S   UNL     1     -14.101   8.158  20.494  0.00  0.00    -0.092 S 
ATOM     18  C   UNL     1     -13.561   6.664  21.137  0.00  0.00    +0.074 A 
ATOM     20  C   UNL     1     -12.199   6.509  21.007  0.00  0.00    +0.021 A 
ATOM     22  C   UNL     1     -11.590   7.629  20.373  0.00  0.00    +0.008 A 
ATOM     23  C   UNL     1     -12.510   8.599  20.041  0.00  0.00    +0.046 A 
ENDBRANCH  15  18
ENDBRANCH  12   6
ENDBRANCH  10  12
TORSDOF 7
ENDMDL
