MODEL 1
REMARK VINA RESULT:      -7.8      0.000      0.000
REMARK  Name = 11913347
REMARK  4 active torsions:
REMARK  status: ('A' for Active; 'I' for Inactive)
REMARK    1  A    between atoms: N_5  and  C_11
REMARK    2  A    between atoms: N_6  and  C_12
REMARK    3  A    between atoms: C_16  and  C_17
REMARK    4  A    between atoms: C_18  and  C_23
REMARK                            x       y       z     vdW  Elec       q    Type
REMARK                         _______ _______ _______ _____ _____    ______ ____
ROOT
ATOM      2  O   UNL     1      -5.073  -8.774  10.527  0.00  0.00    -0.370 OA
ATOM      3  O   UNL     1      -6.268 -11.652  10.289  0.00  0.00    -0.370 OA
ATOM      9  C   UNL     1      -4.946 -11.150  10.549  0.00  0.00    +0.171 C 
ATOM     10  C   UNL     1      -4.761  -9.907   9.701  0.00  0.00    +0.171 C 
ATOM     11  C   UNL     1      -4.847 -10.647  11.970  0.00  0.00    +0.130 C 
ATOM     12  C   UNL     1      -5.788 -10.051   8.604  0.00  0.00    +0.130 C 
ATOM     13  C   UNL     1      -5.369  -9.226  11.856  0.00  0.00    +0.185 C 
ATOM     14  C   UNL     1      -6.890 -10.843   9.279  0.00  0.00    +0.185 C 
ENDROOT
BRANCH  11   5
ATOM      5  N   UNL     1      -3.465 -10.638  12.397  0.00  0.00    -0.306 N 
ATOM      7  N   UNL     1      -4.053 -10.615  14.669  0.00  0.00    -0.214 NA
ATOM      8  N   UNL     1      -1.741 -10.619  13.989  0.00  0.00    -0.223 NA
ATOM     15  C   UNL     1      -3.074 -10.623  13.724  0.00  0.00    +0.216 A 
ATOM     18  C   UNL     1      -3.636 -10.600  15.951  0.00  0.00    +0.076 A 
ATOM     21  C   UNL     1      -1.395 -10.604  15.293  0.00  0.00    +0.116 A 
ATOM     22  C   UNL     1      -2.309 -10.595  16.327  0.00  0.00    +0.048 A 
ATOM     32  H   UNL     1      -2.729 -10.698  11.703  0.00  0.00    +0.149 HD
BRANCH  18  23
ATOM      1  F   UNL     1      -8.037  -9.234  17.397  0.00  0.00    -0.205 F 
ATOM     23  C   UNL     1      -4.690 -10.592  16.939  0.00  0.00    +0.003 A 
ATOM     27  C   UNL     1      -5.879  -9.904  16.687  0.00  0.00    +0.048 A 
ATOM     28  C   UNL     1      -4.524 -11.271  18.147  0.00  0.00    +0.010 A 
ATOM     29  C   UNL     1      -6.898  -9.895  17.640  0.00  0.00    +0.124 A 
ATOM     30  C   UNL     1      -5.542 -11.262  19.101  0.00  0.00    +0.003 A 
ATOM     31  C   UNL     1      -6.730 -10.574  18.847  0.00  0.00    +0.038 A 
ENDBRANCH  18  23
ENDBRANCH  11   5
BRANCH  12   6
ATOM      4  O   UNL     1      -6.400  -9.809   5.784  0.00  0.00    -0.270 OA
ATOM      6  N   UNL     1      -5.217 -10.846   7.489  0.00  0.00    -0.304 N 
ATOM     16  C   UNL     1      -5.585 -10.644   6.166  0.00  0.00    +0.244 C 
ATOM     33  H   UNL     1      -4.625 -11.628   7.744  0.00  0.00    +0.149 HD
BRANCH  16  17
ATOM     17  C   UNL     1      -4.943 -11.540   5.170  0.00  0.00    +0.037 A 
ATOM     19  C   UNL     1      -5.615 -11.828   4.000  0.00  0.00    +0.013 A 
ATOM     20  C   UNL     1      -3.692 -12.053   5.445  0.00  0.00    +0.013 A 
ATOM     24  C   UNL     1      -5.010 -12.667   3.064  0.00  0.00    +0.001 A 
ATOM     25  C   UNL     1      -3.087 -12.892   4.509  0.00  0.00    +0.001 A 
ATOM     26  C   UNL     1      -3.746 -13.199   3.319  0.00  0.00    +0.000 A 
ENDBRANCH  16  17
ENDBRANCH  12   6
TORSDOF 4
ENDMDL
MODEL 2
REMARK VINA RESULT:      -7.4      7.772      9.029
REMARK  Name = 11913347
REMARK  4 active torsions:
REMARK  status: ('A' for Active; 'I' for Inactive)
REMARK    1  A    between atoms: N_5  and  C_11
REMARK    2  A    between atoms: N_6  and  C_12
REMARK    3  A    between atoms: C_16  and  C_17
REMARK    4  A    between atoms: C_18  and  C_23
REMARK                            x       y       z     vdW  Elec       q    Type
REMARK                         _______ _______ _______ _____ _____    ______ ____
ROOT
ATOM      2  O   UNL     1     -11.102  -6.099  16.603  0.00  0.00    -0.370 OA
ATOM      3  O   UNL     1     -12.529  -7.943  14.522  0.00  0.00    -0.370 OA
ATOM      9  C   UNL     1     -11.157  -7.573  14.735  0.00  0.00    +0.171 C 
ATOM     10  C   UNL     1     -11.144  -6.119  15.166  0.00  0.00    +0.171 C 
ATOM     11  C   UNL     1     -10.591  -8.316  15.922  0.00  0.00    +0.130 C 
ATOM     12  C   UNL     1     -12.464  -5.576  14.675  0.00  0.00    +0.130 C 
ATOM     13  C   UNL     1     -11.014  -7.445  17.091  0.00  0.00    +0.185 C 
ATOM     14  C   UNL     1     -13.365  -6.793  14.722  0.00  0.00    +0.185 C 
ENDROOT
BRANCH  11   5
ATOM      5  N   UNL     1      -9.149  -8.368  15.833  0.00  0.00    -0.306 N 
ATOM      7  N   UNL     1      -9.000 -10.057  17.455  0.00  0.00    -0.214 NA
ATOM      8  N   UNL     1      -7.020  -9.173  16.403  0.00  0.00    -0.223 NA
ATOM     15  C   UNL     1      -8.365  -9.225  16.586  0.00  0.00    +0.216 A 
ATOM     18  C   UNL     1      -8.206 -10.878  18.173  0.00  0.00    +0.076 A 
ATOM     21  C   UNL     1      -6.287 -10.022  17.154  0.00  0.00    +0.116 A 
ATOM     22  C   UNL     1      -6.831 -10.905  18.064  0.00  0.00    +0.048 A 
ATOM     32  H   UNL     1      -8.671  -7.790  15.152  0.00  0.00    +0.149 HD
BRANCH  18  23
ATOM      1  F   UNL     1     -12.075 -11.951  20.858  0.00  0.00    -0.205 F 
ATOM     23  C   UNL     1      -8.899 -11.754  19.090  0.00  0.00    +0.003 A 
ATOM     27  C   UNL     1     -10.178 -11.424  19.541  0.00  0.00    +0.048 A 
ATOM     28  C   UNL     1      -8.291 -12.932  19.527  0.00  0.00    +0.010 A 
ATOM     29  C   UNL     1     -10.848 -12.269  20.426  0.00  0.00    +0.124 A 
ATOM     30  C   UNL     1      -8.960 -13.778  20.412  0.00  0.00    +0.003 A 
ATOM     31  C   UNL     1     -10.239 -13.446  20.861  0.00  0.00    +0.038 A 
ENDBRANCH  18  23
ENDBRANCH  11   5
BRANCH  12   6
ATOM      4  O   UNL     1     -14.017  -3.534  13.332  0.00  0.00    -0.270 OA
ATOM      6  N   UNL     1     -12.322  -5.116  13.272  0.00  0.00    -0.304 N 
ATOM     16  C   UNL     1     -13.125  -4.124  12.728  0.00  0.00    +0.244 C 
ATOM     33  H   UNL     1     -11.684  -5.640  12.684  0.00  0.00    +0.149 HD
BRANCH  16  17
ATOM     17  C   UNL     1     -12.876  -3.796  11.301  0.00  0.00    +0.037 A 
ATOM     19  C   UNL     1     -13.942  -3.439  10.502  0.00  0.00    +0.013 A 
ATOM     20  C   UNL     1     -11.584  -3.854  10.821  0.00  0.00    +0.013 A 
ATOM     24  C   UNL     1     -13.707  -3.129   9.163  0.00  0.00    +0.001 A 
ATOM     25  C   UNL     1     -11.348  -3.544   9.481  0.00  0.00    +0.001 A 
ATOM     26  C   UNL     1     -12.410  -3.182   8.653  0.00  0.00    +0.000 A 
ENDBRANCH  16  17
ENDBRANCH  12   6
TORSDOF 4
ENDMDL
MODEL 3
REMARK VINA RESULT:      -7.3     23.001     25.361
REMARK  Name = 11913347
REMARK  4 active torsions:
REMARK  status: ('A' for Active; 'I' for Inactive)
REMARK    1  A    between atoms: N_5  and  C_11
REMARK    2  A    between atoms: N_6  and  C_12
REMARK    3  A    between atoms: C_16  and  C_17
REMARK    4  A    between atoms: C_18  and  C_23
REMARK                            x       y       z     vdW  Elec       q    Type
REMARK                         _______ _______ _______ _____ _____    ______ ____
ROOT
ATOM      2  O   UNL     1       7.578   7.239  -5.738  0.00  0.00    -0.370 OA
ATOM      3  O   UNL     1       6.769   6.230  -2.893  0.00  0.00    -0.370 OA
ATOM      9  C   UNL     1       7.489   5.632  -3.984  0.00  0.00    +0.171 C 
ATOM     10  C   UNL     1       6.833   6.103  -5.268  0.00  0.00    +0.171 C 
ATOM     11  C   UNL     1       8.890   6.192  -4.057  0.00  0.00    +0.130 C 
ATOM     12  C   UNL     1       5.449   6.528  -4.842  0.00  0.00    +0.130 C 
ATOM     13  C   UNL     1       8.699   7.460  -4.870  0.00  0.00    +0.185 C 
ATOM     14  C   UNL     1       5.663   6.983  -3.412  0.00  0.00    +0.185 C 
ENDROOT
BRANCH  11   5
ATOM      5  N   UNL     1       9.755   5.272  -4.763  0.00  0.00    -0.306 N 
ATOM      7  N   UNL     1      10.758   4.522  -2.778  0.00  0.00    -0.214 NA
ATOM      8  N   UNL     1      11.424   3.629  -4.915  0.00  0.00    -0.223 NA
ATOM     15  C   UNL     1      10.673   4.450  -4.134  0.00  0.00    +0.216 A 
ATOM     18  C   UNL     1      11.664   3.708  -2.198  0.00  0.00    +0.076 A 
ATOM     21  C   UNL     1      12.309   2.842  -4.269  0.00  0.00    +0.116 A 
ATOM     22  C   UNL     1      12.474   2.839  -2.899  0.00  0.00    +0.048 A 
ATOM     32  H   UNL     1       9.662   5.171  -5.766  0.00  0.00    +0.149 HD
BRANCH  18  23
ATOM      1  F   UNL     1      14.022   2.960   1.950  0.00  0.00    -0.205 F 
ATOM     23  C   UNL     1      11.738   3.800  -0.759  0.00  0.00    +0.003 A 
ATOM     27  C   UNL     1      12.867   3.327  -0.085  0.00  0.00    +0.048 A 
ATOM     28  C   UNL     1      10.683   4.361  -0.037  0.00  0.00    +0.010 A 
ATOM     29  C   UNL     1      12.940   3.415   1.306  0.00  0.00    +0.124 A 
ATOM     30  C   UNL     1      10.756   4.450   1.354  0.00  0.00    +0.003 A 
ATOM     31  C   UNL     1      11.885   3.976   2.025  0.00  0.00    +0.038 A 
ENDBRANCH  18  23
ENDBRANCH  11   5
BRANCH  12   6
ATOM      4  O   UNL     1       2.567   6.544  -5.132  0.00  0.00    -0.270 OA
ATOM      6  N   UNL     1       4.540   5.355  -4.858  0.00  0.00    -0.304 N 
ATOM     16  C   UNL     1       3.166   5.479  -5.005  0.00  0.00    +0.244 C 
ATOM     33  H   UNL     1       4.955   4.456  -4.643  0.00  0.00    +0.149 HD
BRANCH  16  17
ATOM     17  C   UNL     1       2.393   4.211  -4.974  0.00  0.00    +0.037 A 
ATOM     19  C   UNL     1       2.945   3.079  -5.537  0.00  0.00    +0.013 A 
ATOM     20  C   UNL     1       1.148   4.205  -4.379  0.00  0.00    +0.013 A 
ATOM     24  C   UNL     1       2.219   1.888  -5.505  0.00  0.00    +0.001 A 
ATOM     25  C   UNL     1       0.422   3.014  -4.347  0.00  0.00    +0.001 A 
ATOM     26  C   UNL     1       0.957   1.856  -4.910  0.00  0.00    +0.000 A 
ENDBRANCH  16  17
ENDBRANCH  12   6
TORSDOF 4
ENDMDL
MODEL 4
REMARK VINA RESULT:      -7.3      3.127     10.526
REMARK  Name = 11913347
REMARK  4 active torsions:
REMARK  status: ('A' for Active; 'I' for Inactive)
REMARK    1  A    between atoms: N_5  and  C_11
REMARK    2  A    between atoms: N_6  and  C_12
REMARK    3  A    between atoms: C_16  and  C_17
REMARK    4  A    between atoms: C_18  and  C_23
REMARK                            x       y       z     vdW  Elec       q    Type
REMARK                         _______ _______ _______ _____ _____    ______ ____
ROOT
ATOM      2  O   UNL     1      -3.013  -9.851  11.579  0.00  0.00    -0.370 OA
ATOM      3  O   UNL     1      -4.266 -12.639  12.231  0.00  0.00    -0.370 OA
ATOM      9  C   UNL     1      -4.828 -11.351  11.930  0.00  0.00    +0.171 C 
ATOM     10  C   UNL     1      -3.939 -10.308  12.580  0.00  0.00    +0.171 C 
ATOM     11  C   UNL     1      -4.716 -11.063  10.451  0.00  0.00    +0.130 C 
ATOM     12  C   UNL     1      -3.206 -11.067  13.659  0.00  0.00    +0.130 C 
ATOM     13  C   UNL     1      -3.317 -10.488  10.330  0.00  0.00    +0.185 C 
ATOM     14  C   UNL     1      -3.127 -12.469  13.088  0.00  0.00    +0.185 C 
ENDROOT
BRANCH  11   5
ATOM      5  N   UNL     1      -5.698 -10.075  10.063  0.00  0.00    -0.306 N 
ATOM      7  N   UNL     1      -5.527 -10.637   7.791  0.00  0.00    -0.214 NA
ATOM      8  N   UNL     1      -7.032  -8.905   8.527  0.00  0.00    -0.223 NA
ATOM     15  C   UNL     1      -6.098  -9.865   8.755  0.00  0.00    +0.216 A 
ATOM     18  C   UNL     1      -5.939 -10.406   6.528  0.00  0.00    +0.076 A 
ATOM     21  C   UNL     1      -7.398  -8.728   7.241  0.00  0.00    +0.116 A 
ATOM     22  C   UNL     1      -6.881  -9.456   6.189  0.00  0.00    +0.048 A 
ATOM     32  H   UNL     1      -6.168  -9.532  10.778  0.00  0.00    +0.149 HD
BRANCH  18  23
ATOM      1  F   UNL     1      -2.237 -13.093   4.977  0.00  0.00    -0.205 F 
ATOM     23  C   UNL     1      -5.321 -11.236   5.520  0.00  0.00    +0.003 A 
ATOM     27  C   UNL     1      -4.052 -11.776   5.739  0.00  0.00    +0.048 A 
ATOM     28  C   UNL     1      -5.991 -11.501   4.323  0.00  0.00    +0.010 A 
ATOM     29  C   UNL     1      -3.454 -12.577   4.765  0.00  0.00    +0.124 A 
ATOM     30  C   UNL     1      -5.394 -12.302   3.350  0.00  0.00    +0.003 A 
ATOM     31  C   UNL     1      -4.125 -12.840   3.571  0.00  0.00    +0.038 A 
ENDBRANCH  18  23
ENDBRANCH  11   5
BRANCH  12   6
ATOM      4  O   UNL     1      -2.286 -10.634  16.370  0.00  0.00    -0.270 OA
ATOM      6  N   UNL     1      -4.022 -11.082  14.898  0.00  0.00    -0.304 N 
ATOM     16  C   UNL     1      -3.474 -10.860  16.154  0.00  0.00    +0.244 C 
ATOM     33  H   UNL     1      -4.988 -11.375  14.804  0.00  0.00    +0.149 HD
BRANCH  16  17
ATOM     17  C   UNL     1      -4.419 -10.935  17.297  0.00  0.00    +0.037 A 
ATOM     19  C   UNL     1      -5.630 -10.280  17.206  0.00  0.00    +0.013 A 
ATOM     20  C   UNL     1      -4.057 -11.660  18.413  0.00  0.00    +0.013 A 
ATOM     24  C   UNL     1      -6.518 -10.353  18.279  0.00  0.00    +0.001 A 
ATOM     25  C   UNL     1      -4.945 -11.734  19.487  0.00  0.00    +0.001 A 
ATOM     26  C   UNL     1      -6.174 -11.080  19.420  0.00  0.00    +0.000 A 
ENDBRANCH  16  17
ENDBRANCH  12   6
TORSDOF 4
ENDMDL
MODEL 5
REMARK VINA RESULT:      -7.1      6.210     10.876
REMARK  Name = 11913347
REMARK  4 active torsions:
REMARK  status: ('A' for Active; 'I' for Inactive)
REMARK    1  A    between atoms: N_5  and  C_11
REMARK    2  A    between atoms: N_6  and  C_12
REMARK    3  A    between atoms: C_16  and  C_17
REMARK    4  A    between atoms: C_18  and  C_23
REMARK                            x       y       z     vdW  Elec       q    Type
REMARK                         _______ _______ _______ _____ _____    ______ ____
ROOT
ATOM      2  O   UNL     1      -9.657 -10.702  16.107  0.00  0.00    -0.370 OA
ATOM      3  O   UNL     1      -9.839  -7.632  16.667  0.00  0.00    -0.370 OA
ATOM      9  C   UNL     1      -9.528  -8.768  17.490  0.00  0.00    +0.171 C 
ATOM     10  C   UNL     1     -10.417  -9.910  17.036  0.00  0.00    +0.171 C 
ATOM     11  C   UNL     1      -8.126  -9.254  17.204  0.00  0.00    +0.130 C 
ATOM     12  C   UNL     1     -11.562  -9.229  16.327  0.00  0.00    +0.130 C 
ATOM     13  C   UNL     1      -8.329 -10.168  16.009  0.00  0.00    +0.185 C 
ATOM     14  C   UNL     1     -10.916  -7.972  15.780  0.00  0.00    +0.185 C 
ENDROOT
BRANCH  11   5
ATOM      5  N   UNL     1      -7.624 -10.009  18.331  0.00  0.00    -0.306 N 
ATOM      7  N   UNL     1      -5.560 -10.405  17.286  0.00  0.00    -0.214 NA
ATOM      8  N   UNL     1      -6.013 -11.258  19.494  0.00  0.00    -0.223 NA
ATOM     15  C   UNL     1      -6.362 -10.575  18.372  0.00  0.00    +0.216 A 
ATOM     18  C   UNL     1      -4.338 -10.970  17.359  0.00  0.00    +0.076 A 
ATOM     21  C   UNL     1      -4.776 -11.797  19.499  0.00  0.00    +0.116 A 
ATOM     22  C   UNL     1      -3.887 -11.683  18.451  0.00  0.00    +0.048 A 
ATOM     32  H   UNL     1      -8.192 -10.096  19.165  0.00  0.00    +0.149 HD
BRANCH  18  23
ATOM      1  F   UNL     1      -3.826 -10.441  12.586  0.00  0.00    -0.205 F 
ATOM     23  C   UNL     1      -3.503 -10.779  16.197  0.00  0.00    +0.003 A 
ATOM     27  C   UNL     1      -4.079 -10.700  14.927  0.00  0.00    +0.048 A 
ATOM     28  C   UNL     1      -2.118 -10.671  16.339  0.00  0.00    +0.010 A 
ATOM     29  C   UNL     1      -3.272 -10.516  13.803  0.00  0.00    +0.124 A 
ATOM     30  C   UNL     1      -1.311 -10.486  15.216  0.00  0.00    +0.003 A 
ATOM     31  C   UNL     1      -1.889 -10.408  13.948  0.00  0.00    +0.038 A 
ENDBRANCH  18  23
ENDBRANCH  11   5
BRANCH  12   6
ATOM      4  O   UNL     1     -13.744 -10.883  17.267  0.00  0.00    -0.270 OA
ATOM      6  N   UNL     1     -12.609  -8.861  17.312  0.00  0.00    -0.304 N 
ATOM     16  C   UNL     1     -13.614  -9.738  17.692  0.00  0.00    +0.244 C 
ATOM     33  H   UNL     1     -12.629  -7.894  17.615  0.00  0.00    +0.149 HD
BRANCH  16  17
ATOM     17  C   UNL     1     -14.603  -9.210  18.667  0.00  0.00    +0.037 A 
ATOM     19  C   UNL     1     -15.688  -8.499  18.199  0.00  0.00    +0.013 A 
ATOM     20  C   UNL     1     -14.405  -9.450  20.011  0.00  0.00    +0.013 A 
ATOM     24  C   UNL     1     -16.617  -8.006  19.114  0.00  0.00    +0.001 A 
ATOM     25  C   UNL     1     -15.334  -8.956  20.928  0.00  0.00    +0.001 A 
ATOM     26  C   UNL     1     -16.439  -8.234  20.479  0.00  0.00    +0.000 A 
ENDBRANCH  16  17
ENDBRANCH  12   6
TORSDOF 4
ENDMDL
MODEL 6
REMARK VINA RESULT:      -7.1     26.850     29.475
REMARK  Name = 11913347
REMARK  4 active torsions:
REMARK  status: ('A' for Active; 'I' for Inactive)
REMARK    1  A    between atoms: N_5  and  C_11
REMARK    2  A    between atoms: N_6  and  C_12
REMARK    3  A    between atoms: C_16  and  C_17
REMARK    4  A    between atoms: C_18  and  C_23
REMARK                            x       y       z     vdW  Elec       q    Type
REMARK                         _______ _______ _______ _____ _____    ______ ____
ROOT
ATOM      2  O   UNL     1      18.762  -1.900  29.425  0.00  0.00    -0.370 OA
ATOM      3  O   UNL     1      18.939  -4.906  28.590  0.00  0.00    -0.370 OA
ATOM      9  C   UNL     1      18.235  -3.774  28.055  0.00  0.00    +0.171 C 
ATOM     10  C   UNL     1      17.779  -2.930  29.230  0.00  0.00    +0.171 C 
ATOM     11  C   UNL     1      19.186  -2.874  27.301  0.00  0.00    +0.130 C 
ATOM     12  C   UNL     1      17.788  -3.886  30.397  0.00  0.00    +0.130 C 
ATOM     13  C   UNL     1      19.763  -2.003  28.401  0.00  0.00    +0.185 C 
ATOM     14  C   UNL     1      18.887  -4.861  30.024  0.00  0.00    +0.185 C 
ENDROOT
BRANCH  11   5
ATOM      5  N   UNL     1      18.453  -2.063  26.353  0.00  0.00    -0.306 N 
ATOM      7  N   UNL     1      18.935  -3.514  24.572  0.00  0.00    -0.214 NA
ATOM      8  N   UNL     1      17.611  -1.530  24.228  0.00  0.00    -0.223 NA
ATOM     15  C   UNL     1      18.329  -2.378  25.011  0.00  0.00    +0.216 A 
ATOM     18  C   UNL     1      18.794  -3.790  23.260  0.00  0.00    +0.076 A 
ATOM     21  C   UNL     1      17.511  -1.867  22.926  0.00  0.00    +0.116 A 
ATOM     22  C   UNL     1      18.087  -2.996  22.380  0.00  0.00    +0.048 A 
ATOM     32  H   UNL     1      17.955  -1.244  26.679  0.00  0.00    +0.149 HD
BRANCH  18  23
ATOM      1  F   UNL     1      19.612  -7.120  19.858  0.00  0.00    -0.205 F 
ATOM     23  C   UNL     1      19.444  -5.001  22.814  0.00  0.00    +0.003 A 
ATOM     27  C   UNL     1      19.211  -5.486  21.525  0.00  0.00    +0.048 A 
ATOM     28  C   UNL     1      20.307  -5.689  23.669  0.00  0.00    +0.010 A 
ATOM     29  C   UNL     1      19.838  -6.656  21.094  0.00  0.00    +0.124 A 
ATOM     30  C   UNL     1      20.934  -6.858  23.238  0.00  0.00    +0.003 A 
ATOM     31  C   UNL     1      20.699  -7.341  21.950  0.00  0.00    +0.038 A 
ENDBRANCH  18  23
ENDBRANCH  11   5
BRANCH  12   6
ATOM      4  O   UNL     1      15.430  -3.113  31.890  0.00  0.00    -0.270 OA
ATOM      6  N   UNL     1      16.490  -4.603  30.464  0.00  0.00    -0.304 N 
ATOM     16  C   UNL     1      15.420  -4.139  31.215  0.00  0.00    +0.244 C 
ATOM     33  H   UNL     1      16.452  -5.515  30.023  0.00  0.00    +0.149 HD
BRANCH  16  17
ATOM     17  C   UNL     1      14.199  -4.986  31.199  0.00  0.00    +0.037 A 
ATOM     19  C   UNL     1      13.176  -4.699  32.079  0.00  0.00    +0.013 A 
ATOM     20  C   UNL     1      14.126  -6.030  30.301  0.00  0.00    +0.013 A 
ATOM     24  C   UNL     1      12.030  -5.492  32.061  0.00  0.00    +0.001 A 
ATOM     25  C   UNL     1      12.979  -6.824  30.282  0.00  0.00    +0.001 A 
ATOM     26  C   UNL     1      11.932  -6.555  31.162  0.00  0.00    +0.000 A 
ENDBRANCH  16  17
ENDBRANCH  12   6
TORSDOF 4
ENDMDL
MODEL 7
REMARK VINA RESULT:      -7.1     26.067     27.566
REMARK  Name = 11913347
REMARK  4 active torsions:
REMARK  status: ('A' for Active; 'I' for Inactive)
REMARK    1  A    between atoms: N_5  and  C_11
REMARK    2  A    between atoms: N_6  and  C_12
REMARK    3  A    between atoms: C_16  and  C_17
REMARK    4  A    between atoms: C_18  and  C_23
REMARK                            x       y       z     vdW  Elec       q    Type
REMARK                         _______ _______ _______ _____ _____    ______ ____
ROOT
ATOM      2  O   UNL     1      13.793   9.296   2.015  0.00  0.00    -0.370 OA
ATOM      3  O   UNL     1      13.969   6.621   3.623  0.00  0.00    -0.370 OA
ATOM      9  C   UNL     1      13.678   7.979   3.995  0.00  0.00    +0.171 C 
ATOM     10  C   UNL     1      14.565   8.877   3.153  0.00  0.00    +0.171 C 
ATOM     11  C   UNL     1      12.274   8.348   3.575  0.00  0.00    +0.130 C 
ATOM     12  C   UNL     1      15.693   7.975   2.715  0.00  0.00    +0.130 C 
ATOM     13  C   UNL     1      12.461   8.777   2.131  0.00  0.00    +0.185 C 
ATOM     14  C   UNL     1      15.031   6.613   2.658  0.00  0.00    +0.185 C 
ENDROOT
BRANCH  11   5
ATOM      5  N   UNL     1      11.796   9.458   4.369  0.00  0.00    -0.306 N 
ATOM      7  N   UNL     1      10.870   8.040   5.994  0.00  0.00    -0.214 NA
ATOM      8  N   UNL     1      10.713  10.435   6.208  0.00  0.00    -0.223 NA
ATOM     15  C   UNL     1      11.105   9.307   5.559  0.00  0.00    +0.216 A 
ATOM     18  C   UNL     1      10.194   7.929   7.156  0.00  0.00    +0.076 A 
ATOM     21  C   UNL     1      10.043  10.251   7.364  0.00  0.00    +0.116 A 
ATOM     22  C   UNL     1       9.752   9.010   7.892  0.00  0.00    +0.048 A 
ATOM     32  H   UNL     1      12.012  10.405   4.082  0.00  0.00    +0.149 HD
BRANCH  18  23
ATOM      1  F   UNL     1       8.813   4.803  10.568  0.00  0.00    -0.205 F 
ATOM     23  C   UNL     1       9.955   6.576   7.600  0.00  0.00    +0.003 A 
ATOM     27  C   UNL     1       9.490   6.337   8.895  0.00  0.00    +0.048 A 
ATOM     28  C   UNL     1      10.187   5.504   6.737  0.00  0.00    +0.010 A 
ATOM     29  C   UNL     1       9.258   5.030   9.326  0.00  0.00    +0.124 A 
ATOM     30  C   UNL     1       9.955   4.197   7.167  0.00  0.00    +0.003 A 
ATOM     31  C   UNL     1       9.491   3.960   8.461  0.00  0.00    +0.038 A 
ENDBRANCH  18  23
ENDBRANCH  11   5
BRANCH  12   6
ATOM      4  O   UNL     1      18.544   8.279   2.307  0.00  0.00    -0.270 OA
ATOM      6  N   UNL     1      16.756   7.968   3.751  0.00  0.00    -0.304 N 
ATOM     16  C   UNL     1      18.099   8.123   3.441  0.00  0.00    +0.244 C 
ATOM     33  H   UNL     1      16.470   7.730   4.694  0.00  0.00    +0.149 HD
BRANCH  16  17
ATOM     17  C   UNL     1      19.041   8.066   4.589  0.00  0.00    +0.037 A 
ATOM     19  C   UNL     1      20.237   7.395   4.437  0.00  0.00    +0.013 A 
ATOM     20  C   UNL     1      18.691   8.689   5.768  0.00  0.00    +0.013 A 
ATOM     24  C   UNL     1      21.122   7.344   5.514  0.00  0.00    +0.001 A 
ATOM     25  C   UNL     1      19.576   8.638   6.846  0.00  0.00    +0.001 A 
ATOM     26  C   UNL     1      20.791   7.966   6.719  0.00  0.00    +0.000 A 
ENDBRANCH  16  17
ENDBRANCH  12   6
TORSDOF 4
ENDMDL
MODEL 8
REMARK VINA RESULT:      -7.0      6.334     10.677
REMARK  Name = 11913347
REMARK  4 active torsions:
REMARK  status: ('A' for Active; 'I' for Inactive)
REMARK    1  A    between atoms: N_5  and  C_11
REMARK    2  A    between atoms: N_6  and  C_12
REMARK    3  A    between atoms: C_16  and  C_17
REMARK    4  A    between atoms: C_18  and  C_23
REMARK                            x       y       z     vdW  Elec       q    Type
REMARK                         _______ _______ _______ _____ _____    ______ ____
ROOT
ATOM      2  O   UNL     1      -9.876 -10.342  15.811  0.00  0.00    -0.370 OA
ATOM      3  O   UNL     1     -10.145  -7.262  16.267  0.00  0.00    -0.370 OA
ATOM      9  C   UNL     1      -9.919  -8.374  17.149  0.00  0.00    +0.171 C 
ATOM     10  C   UNL     1     -10.742  -9.537  16.628  0.00  0.00    +0.171 C 
ATOM     11  C   UNL     1      -8.491  -8.852  17.036  0.00  0.00    +0.130 C 
ATOM     12  C   UNL     1     -11.805  -8.886  15.777  0.00  0.00    +0.130 C 
ATOM     13  C   UNL     1      -8.549  -9.796  15.849  0.00  0.00    +0.185 C 
ATOM     14  C   UNL     1     -11.111  -7.635  15.274  0.00  0.00    +0.185 C 
ENDROOT
BRANCH  11   5
ATOM      5  N   UNL     1      -8.113  -9.573  18.231  0.00  0.00    -0.306 N 
ATOM      7  N   UNL     1      -6.023 -10.169  17.343  0.00  0.00    -0.214 NA
ATOM      8  N   UNL     1      -6.669 -10.860  19.560  0.00  0.00    -0.223 NA
ATOM     15  C   UNL     1      -6.899 -10.220  18.383  0.00  0.00    +0.216 A 
ATOM     18  C   UNL     1      -4.851 -10.810  17.526  0.00  0.00    +0.076 A 
ATOM     21  C   UNL     1      -5.476 -11.480  19.674  0.00  0.00    +0.116 A 
ATOM     22  C   UNL     1      -4.519 -11.489  18.680  0.00  0.00    +0.048 A 
ATOM     32  H   UNL     1      -8.735  -9.573  19.030  0.00  0.00    +0.149 HD
BRANCH  18  23
ATOM      1  F   UNL     1      -0.352 -10.609  15.782  0.00  0.00    -0.205 F 
ATOM     23  C   UNL     1      -3.936 -10.743  16.411  0.00  0.00    +0.003 A 
ATOM     27  C   UNL     1      -2.558 -10.709  16.638  0.00  0.00    +0.048 A 
ATOM     28  C   UNL     1      -4.424 -10.713  15.103  0.00  0.00    +0.010 A 
ATOM     29  C   UNL     1      -1.672 -10.643  15.562  0.00  0.00    +0.124 A 
ATOM     30  C   UNL     1      -3.539 -10.649  14.027  0.00  0.00    +0.003 A 
ATOM     31  C   UNL     1      -2.163 -10.614  14.256  0.00  0.00    +0.038 A 
ENDBRANCH  18  23
ENDBRANCH  11   5
BRANCH  12   6
ATOM      4  O   UNL     1     -14.546  -8.484  14.935  0.00  0.00    -0.270 OA
ATOM      6  N   UNL     1     -12.960  -8.505  16.627  0.00  0.00    -0.304 N 
ATOM     16  C   UNL     1     -14.238  -8.339  16.115  0.00  0.00    +0.244 C 
ATOM     33  H   UNL     1     -12.755  -8.258  17.588  0.00  0.00    +0.149 HD
BRANCH  16  17
ATOM     17  C   UNL     1     -15.281  -7.930  17.092  0.00  0.00    +0.037 A 
ATOM     19  C   UNL     1     -15.993  -6.772  16.862  0.00  0.00    +0.013 A 
ATOM     20  C   UNL     1     -15.506  -8.726  18.196  0.00  0.00    +0.013 A 
ATOM     24  C   UNL     1     -16.973  -6.390  17.778  0.00  0.00    +0.001 A 
ATOM     25  C   UNL     1     -16.486  -8.345  19.113  0.00  0.00    +0.001 A 
ATOM     26  C   UNL     1     -17.219  -7.177  18.904  0.00  0.00    +0.000 A 
ENDBRANCH  16  17
ENDBRANCH  12   6
TORSDOF 4
ENDMDL
MODEL 9
REMARK VINA RESULT:      -7.0     30.271     32.339
REMARK  Name = 11913347
REMARK  4 active torsions:
REMARK  status: ('A' for Active; 'I' for Inactive)
REMARK    1  A    between atoms: N_5  and  C_11
REMARK    2  A    between atoms: N_6  and  C_12
REMARK    3  A    between atoms: C_16  and  C_17
REMARK    4  A    between atoms: C_18  and  C_23
REMARK                            x       y       z     vdW  Elec       q    Type
REMARK                         _______ _______ _______ _____ _____    ______ ____
ROOT
ATOM      2  O   UNL     1      -7.246  11.049  37.881  0.00  0.00    -0.370 OA
ATOM      3  O   UNL     1      -7.696   8.151  36.802  0.00  0.00    -0.370 OA
ATOM      9  C   UNL     1      -6.809   9.217  36.425  0.00  0.00    +0.171 C 
ATOM     10  C   UNL     1      -7.574  10.517  36.586  0.00  0.00    +0.171 C 
ATOM     11  C   UNL     1      -5.675   9.331  37.416  0.00  0.00    +0.130 C 
ATOM     12  C   UNL     1      -9.024  10.100  36.546  0.00  0.00    +0.130 C 
ATOM     13  C   UNL     1      -6.271  10.203  38.506  0.00  0.00    +0.185 C 
ATOM     14  C   UNL     1      -8.985   8.697  37.117  0.00  0.00    +0.185 C 
ENDROOT
BRANCH  11   5
ATOM      5  N   UNL     1      -4.547   9.997  36.804  0.00  0.00    -0.306 N 
ATOM      7  N   UNL     1      -3.006   8.512  37.768  0.00  0.00    -0.214 NA
ATOM      8  N   UNL     1      -2.267  10.308  36.341  0.00  0.00    -0.223 NA
ATOM     15  C   UNL     1      -3.234   9.594  36.976  0.00  0.00    +0.216 A 
ATOM     18  C   UNL     1      -1.716   8.148  37.915  0.00  0.00    +0.076 A 
ATOM     21  C   UNL     1      -0.999   9.888  36.531  0.00  0.00    +0.116 A 
ATOM     22  C   UNL     1      -0.660   8.804  37.314  0.00  0.00    +0.048 A 
ATOM     32  H   UNL     1      -4.709  10.770  36.170  0.00  0.00    +0.149 HD
BRANCH  18  23
ATOM      1  F   UNL     1       1.038   4.451  39.354  0.00  0.00    -0.205 F 
ATOM     23  C   UNL     1      -1.495   6.997  38.759  0.00  0.00    +0.003 A 
ATOM     27  C   UNL     1      -0.311   6.265  38.647  0.00  0.00    +0.048 A 
ATOM     28  C   UNL     1      -2.464   6.614  39.688  0.00  0.00    +0.010 A 
ATOM     29  C   UNL     1      -0.097   5.152  39.462  0.00  0.00    +0.124 A 
ATOM     30  C   UNL     1      -2.250   5.502  40.504  0.00  0.00    +0.003 A 
ATOM     31  C   UNL     1      -1.066   4.772  40.391  0.00  0.00    +0.038 A 
ENDBRANCH  18  23
ENDBRANCH  11   5
BRANCH  12   6
ATOM      4  O   UNL     1     -11.734  10.428  35.580  0.00  0.00    -0.270 OA
ATOM      6  N   UNL     1      -9.489  10.051  35.138  0.00  0.00    -0.304 N 
ATOM     16  C   UNL     1     -10.820  10.223  34.786  0.00  0.00    +0.244 C 
ATOM     33  H   UNL     1      -8.806   9.771  34.443  0.00  0.00    +0.149 HD
BRANCH  16  17
ATOM     17  C   UNL     1     -11.127  10.118  33.336  0.00  0.00    +0.037 A 
ATOM     19  C   UNL     1     -11.710   8.962  32.859  0.00  0.00    +0.013 A 
ATOM     20  C   UNL     1     -10.824  11.182  32.513  0.00  0.00    +0.013 A 
ATOM     24  C   UNL     1     -12.001   8.865  31.499  0.00  0.00    +0.001 A 
ATOM     25  C   UNL     1     -11.114  11.086  31.152  0.00  0.00    +0.001 A 
ATOM     26  C   UNL     1     -11.702   9.928  30.645  0.00  0.00    +0.000 A 
ENDBRANCH  16  17
ENDBRANCH  12   6
TORSDOF 4
ENDMDL
MODEL 10
REMARK VINA RESULT:      -7.0     24.892     27.649
REMARK  Name = 11913347
REMARK  4 active torsions:
REMARK  status: ('A' for Active; 'I' for Inactive)
REMARK    1  A    between atoms: N_5  and  C_11
REMARK    2  A    between atoms: N_6  and  C_12
REMARK    3  A    between atoms: C_16  and  C_17
REMARK    4  A    between atoms: C_18  and  C_23
REMARK                            x       y       z     vdW  Elec       q    Type
REMARK                         _______ _______ _______ _____ _____    ______ ____
ROOT
ATOM      2  O   UNL     1      -7.109 -12.168  39.360  0.00  0.00    -0.370 OA
ATOM      3  O   UNL     1      -6.758 -10.664  36.643  0.00  0.00    -0.370 OA
ATOM      9  C   UNL     1      -7.461 -10.356  37.858  0.00  0.00    +0.171 C 
ATOM     10  C   UNL     1      -8.036 -11.655  38.389  0.00  0.00    +0.171 C 
ATOM     11  C   UNL     1      -6.490  -9.916  38.928  0.00  0.00    +0.130 C 
ATOM     12  C   UNL     1      -8.079 -12.560  37.181  0.00  0.00    +0.130 C 
ATOM     13  C   UNL     1      -6.031 -11.235  39.522  0.00  0.00    +0.185 C 
ATOM     14  C   UNL     1      -6.920 -12.059  36.344  0.00  0.00    +0.185 C 
ENDROOT
BRANCH  11   5
ATOM      5  N   UNL     1      -7.178  -9.130  39.929  0.00  0.00    -0.306 N 
ATOM      7  N   UNL     1      -5.332  -7.716  40.245  0.00  0.00    -0.214 NA
ATOM      8  N   UNL     1      -7.367  -7.393  41.495  0.00  0.00    -0.223 NA
ATOM     15  C   UNL     1      -6.609  -8.047  40.576  0.00  0.00    +0.216 A 
ATOM     18  C   UNL     1      -4.809  -6.657  40.896  0.00  0.00    +0.076 A 
ATOM     21  C   UNL     1      -6.781  -6.343  42.107  0.00  0.00    +0.116 A 
ATOM     22  C   UNL     1      -5.492  -5.925  41.845  0.00  0.00    +0.048 A 
ATOM     32  H   UNL     1      -8.146  -9.335  40.144  0.00  0.00    +0.149 HD
BRANCH  18  23
ATOM      1  F   UNL     1      -1.594  -5.056  37.666  0.00  0.00    -0.205 F 
ATOM     23  C   UNL     1      -3.452  -6.321  40.530  0.00  0.00    +0.003 A 
ATOM     27  C   UNL     1      -3.172  -5.840  39.249  0.00  0.00    +0.048 A 
ATOM     28  C   UNL     1      -2.418  -6.476  41.455  0.00  0.00    +0.010 A 
ATOM     29  C   UNL     1      -1.862  -5.516  38.895  0.00  0.00    +0.124 A 
ATOM     30  C   UNL     1      -1.109  -6.151  41.102  0.00  0.00    +0.003 A 
ATOM     31  C   UNL     1      -0.830  -5.671  39.821  0.00  0.00    +0.038 A 
ENDBRANCH  18  23
ENDBRANCH  11   5
BRANCH  12   6
ATOM      4  O   UNL     1     -10.074 -14.551  36.516  0.00  0.00    -0.270 OA
ATOM      6  N   UNL     1      -9.351 -12.348  36.446  0.00  0.00    -0.304 N 
ATOM     16  C   UNL     1     -10.239 -13.381  36.181  0.00  0.00    +0.244 C 
ATOM     33  H   UNL     1      -9.494 -11.430  36.041  0.00  0.00    +0.149 HD
BRANCH  16  17
ATOM     17  C   UNL     1     -11.454 -13.010  35.411  0.00  0.00    +0.037 A 
ATOM     19  C   UNL     1     -12.123 -11.849  35.738  0.00  0.00    +0.013 A 
ATOM     20  C   UNL     1     -11.873 -13.838  34.390  0.00  0.00    +0.013 A 
ATOM     24  C   UNL     1     -13.262 -11.501  35.013  0.00  0.00    +0.001 A 
ATOM     25  C   UNL     1     -13.012 -13.490  33.664  0.00  0.00    +0.001 A 
ATOM     26  C   UNL     1     -13.707 -12.322  33.976  0.00  0.00    +0.000 A 
ENDBRANCH  16  17
ENDBRANCH  12   6
TORSDOF 4
ENDMDL
