MODEL 1
REMARK VINA RESULT:      -8.5      0.000      0.000
REMARK  Name = 56774592
REMARK  7 active torsions:
REMARK  status: ('A' for Active; 'I' for Inactive)
REMARK    1  A    between atoms: O_2  and  C_8
REMARK    2  A    between atoms: N_5  and  C_10
REMARK    3  A    between atoms: N_6  and  C_21
REMARK    4  A    between atoms: C_7  and  C_8
REMARK    5  A    between atoms: C_8  and  C_12
REMARK    6  A    between atoms: C_10  and  C_14
REMARK    7  A    between atoms: C_25  and  C_26
REMARK                            x       y       z     vdW  Elec       q    Type
REMARK                         _______ _______ _______ _____ _____    ______ ____
ROOT
ATOM      8  C   UNL     1      14.099   6.756  19.935  0.00  0.00    +0.167 C 
ENDROOT
BRANCH   8   7
ATOM      1  O   UNL     1      14.284   8.394  17.507  0.00  0.00    -0.369 OA
ATOM      3  O   UNL     1      10.689   8.453  17.848  0.00  0.00    -0.273 OA
ATOM      5  N   UNL     1      12.320   8.410  19.508  0.00  0.00    -0.287 N 
ATOM      7  C   UNL     1      13.742   8.241  19.830  0.00  0.00    +0.135 C 
ATOM      9  C   UNL     1      14.601   8.939  18.782  0.00  0.00    +0.185 C 
ATOM     11  C   UNL     1      11.872   8.484  18.191  0.00  0.00    +0.242 C 
ATOM     13  C   UNL     1      12.958   8.701  17.141  0.00  0.00    +0.255 C 
BRANCH   5  10
ATOM     10  C   UNL     1      11.366   8.315  20.604  0.00  0.00    +0.143 C 
BRANCH  10  14
ATOM     14  C   UNL     1      11.340   9.562  21.438  0.00  0.00    -0.030 A 
ATOM     19  C   UNL     1      11.715  10.784  20.878  0.00  0.00    +0.005 A 
ATOM     20  C   UNL     1      10.942   9.500  22.773  0.00  0.00    +0.005 A 
ATOM     22  C   UNL     1      11.690  11.944  21.654  0.00  0.00    +0.000 A 
ATOM     23  C   UNL     1      10.918  10.659  23.549  0.00  0.00    +0.000 A 
ATOM     24  C   UNL     1      11.292  11.881  22.990  0.00  0.00    +0.000 A 
ENDBRANCH  10  14
ENDBRANCH   5  10
ENDBRANCH   8   7
BRANCH   8  12
ATOM     12  C   UNL     1      15.590   6.541  20.003  0.00  0.00    -0.017 A 
ATOM     15  C   UNL     1      16.271   6.026  18.900  0.00  0.00    +0.008 A 
ATOM     16  C   UNL     1      16.288   6.858  21.168  0.00  0.00    +0.008 A 
ATOM     17  C   UNL     1      17.651   5.828  18.962  0.00  0.00    +0.023 A 
ATOM     18  C   UNL     1      17.667   6.660  21.231  0.00  0.00    +0.023 A 
ATOM     21  C   UNL     1      18.349   6.145  20.128  0.00  0.00    +0.034 A 
BRANCH  21   6
ATOM      4  O   UNL     1      20.550   8.050  20.842  0.00  0.00    -0.270 OA
ATOM      6  N   UNL     1      19.728   5.946  20.191  0.00  0.00    -0.282 N 
ATOM     25  C   UNL     1      20.719   6.876  20.532  0.00  0.00    +0.248 C 
ATOM     33  H   UNL     1      20.013   4.990  19.999  0.00  0.00    +0.155 HD
BRANCH  25  26
ATOM     26  C   UNL     1      22.110   6.353  20.538  0.00  0.00    +0.037 A 
ATOM     27  C   UNL     1      22.340   4.979  20.465  0.00  0.00    +0.013 A 
ATOM     28  C   UNL     1      23.186   7.237  20.616  0.00  0.00    +0.013 A 
ATOM     29  C   UNL     1      23.646   4.489  20.468  0.00  0.00    +0.001 A 
ATOM     30  C   UNL     1      24.492   6.747  20.619  0.00  0.00    +0.001 A 
ATOM     31  C   UNL     1      24.722   5.373  20.545  0.00  0.00    +0.000 A 
ENDBRANCH  25  26
ENDBRANCH  21   6
ENDBRANCH   8  12
BRANCH   8   2
ATOM      2  O   UNL     1      13.487   6.205  21.095  0.00  0.00    -0.385 OA
ATOM     32  H   UNL     1      12.527   6.348  21.049  0.00  0.00    +0.210 HD
ENDBRANCH   8   2
TORSDOF 7
ENDMDL
MODEL 2
REMARK VINA RESULT:      -7.8      4.000      7.641
REMARK  Name = 56774592
REMARK  7 active torsions:
REMARK  status: ('A' for Active; 'I' for Inactive)
REMARK    1  A    between atoms: O_2  and  C_8
REMARK    2  A    between atoms: N_5  and  C_10
REMARK    3  A    between atoms: N_6  and  C_21
REMARK    4  A    between atoms: C_7  and  C_8
REMARK    5  A    between atoms: C_8  and  C_12
REMARK    6  A    between atoms: C_10  and  C_14
REMARK    7  A    between atoms: C_25  and  C_26
REMARK                            x       y       z     vdW  Elec       q    Type
REMARK                         _______ _______ _______ _____ _____    ______ ____
ROOT
ATOM      8  C   UNL     1      11.866   9.487  19.433  0.00  0.00    +0.167 C 
ENDROOT
BRANCH   8   7
ATOM      1  O   UNL     1      10.791   9.121  22.139  0.00  0.00    -0.369 OA
ATOM      3  O   UNL     1      11.008   5.631  21.238  0.00  0.00    -0.273 OA
ATOM      5  N   UNL     1      12.398   7.394  20.624  0.00  0.00    -0.287 N 
ATOM      7  C   UNL     1      12.607   8.847  20.609  0.00  0.00    +0.135 C 
ATOM      9  C   UNL     1      12.160   9.452  21.935  0.00  0.00    +0.185 C 
ATOM     11  C   UNL     1      11.340   6.815  21.322  0.00  0.00    +0.242 C 
ATOM     13  C   UNL     1      10.626   7.732  22.309  0.00  0.00    +0.255 C 
BRANCH   5  10
ATOM     10  C   UNL     1      13.223   6.586  19.736  0.00  0.00    +0.143 C 
BRANCH  10  14
ATOM     14  C   UNL     1      14.676   6.647  20.108  0.00  0.00    -0.030 A 
ATOM     19  C   UNL     1      15.051   6.718  21.450  0.00  0.00    +0.005 A 
ATOM     20  C   UNL     1      15.651   6.632  19.111  0.00  0.00    +0.005 A 
ATOM     22  C   UNL     1      16.401   6.774  21.795  0.00  0.00    +0.000 A 
ATOM     23  C   UNL     1      17.002   6.688  19.456  0.00  0.00    +0.000 A 
ATOM     24  C   UNL     1      17.378   6.760  20.798  0.00  0.00    +0.000 A 
ENDBRANCH  10  14
ENDBRANCH   5  10
ENDBRANCH   8   7
BRANCH   8  12
ATOM     12  C   UNL     1      12.813   9.917  18.341  0.00  0.00    -0.017 A 
ATOM     15  C   UNL     1      12.975   9.123  17.205  0.00  0.00    +0.008 A 
ATOM     16  C   UNL     1      13.526  11.109  18.466  0.00  0.00    +0.008 A 
ATOM     17  C   UNL     1      13.850   9.521  16.195  0.00  0.00    +0.023 A 
ATOM     18  C   UNL     1      14.402  11.507  17.456  0.00  0.00    +0.023 A 
ATOM     21  C   UNL     1      14.564  10.713  16.320  0.00  0.00    +0.034 A 
BRANCH  21   6
ATOM      4  O   UNL     1      14.001  11.708  13.549  0.00  0.00    -0.270 OA
ATOM      6  N   UNL     1      15.440  11.111  15.310  0.00  0.00    -0.282 N 
ATOM     25  C   UNL     1      15.122  11.571  14.025  0.00  0.00    +0.248 C 
ATOM     33  H   UNL     1      16.417  11.091  15.585  0.00  0.00    +0.155 HD
BRANCH  25  26
ATOM     26  C   UNL     1      16.284  11.950  13.178  0.00  0.00    +0.037 A 
ATOM     27  C   UNL     1      17.523  12.201  13.766  0.00  0.00    +0.013 A 
ATOM     28  C   UNL     1      16.133  12.054  11.795  0.00  0.00    +0.013 A 
ATOM     29  C   UNL     1      18.613  12.555  12.970  0.00  0.00    +0.001 A 
ATOM     30  C   UNL     1      17.223  12.408  11.000  0.00  0.00    +0.001 A 
ATOM     31  C   UNL     1      18.463  12.659  11.587  0.00  0.00    +0.000 A 
ENDBRANCH  25  26
ENDBRANCH  21   6
ENDBRANCH   8  12
BRANCH   8   2
ATOM      2  O   UNL     1      10.925   8.558  18.907  0.00  0.00    -0.385 OA
ATOM     32  H   UNL     1      11.169   8.338  17.992  0.00  0.00    +0.210 HD
ENDBRANCH   8   2
TORSDOF 7
ENDMDL
MODEL 3
REMARK VINA RESULT:      -7.2     27.141     30.618
REMARK  Name = 56774592
REMARK  7 active torsions:
REMARK  status: ('A' for Active; 'I' for Inactive)
REMARK    1  A    between atoms: O_2  and  C_8
REMARK    2  A    between atoms: N_5  and  C_10
REMARK    3  A    between atoms: N_6  and  C_21
REMARK    4  A    between atoms: C_7  and  C_8
REMARK    5  A    between atoms: C_8  and  C_12
REMARK    6  A    between atoms: C_10  and  C_14
REMARK    7  A    between atoms: C_25  and  C_26
REMARK                            x       y       z     vdW  Elec       q    Type
REMARK                         _______ _______ _______ _____ _____    ______ ____
ROOT
ATOM      8  C   UNL     1     -11.091   9.723  19.706  0.00  0.00    +0.167 C 
ENDROOT
BRANCH   8   7
ATOM      1  O   UNL     1     -10.109  11.866  17.959  0.00  0.00    -0.369 OA
ATOM      3  O   UNL     1     -10.324   9.273  15.456  0.00  0.00    -0.273 OA
ATOM      5  N   UNL     1     -11.679   9.635  17.313  0.00  0.00    -0.287 N 
ATOM      7  C   UNL     1     -11.876  10.375  18.565  0.00  0.00    +0.135 C 
ATOM      9  C   UNL     1     -11.468  11.832  18.380  0.00  0.00    +0.185 C 
ATOM     11  C   UNL     1     -10.649   9.953  16.429  0.00  0.00    +0.242 C 
ATOM     13  C   UNL     1      -9.961  11.291  16.681  0.00  0.00    +0.255 C 
BRANCH   5  10
ATOM     10  C   UNL     1     -12.481   8.437  17.106  0.00  0.00    +0.143 C 
BRANCH  10  14
ATOM     14  C   UNL     1     -13.949   8.710  17.248  0.00  0.00    -0.030 A 
ATOM     19  C   UNL     1     -14.698   8.023  18.203  0.00  0.00    +0.005 A 
ATOM     20  C   UNL     1     -14.565   9.653  16.425  0.00  0.00    +0.005 A 
ATOM     22  C   UNL     1     -16.063   8.278  18.336  0.00  0.00    +0.000 A 
ATOM     23  C   UNL     1     -15.931   9.908  16.557  0.00  0.00    +0.000 A 
ATOM     24  C   UNL     1     -16.680   9.221  17.513  0.00  0.00    +0.000 A 
ENDBRANCH  10  14
ENDBRANCH   5  10
ENDBRANCH   8   7
BRANCH   8  12
ATOM     12  C   UNL     1     -11.926   8.718  20.459  0.00  0.00    -0.017 A 
ATOM     15  C   UNL     1     -11.565   7.370  20.458  0.00  0.00    +0.008 A 
ATOM     16  C   UNL     1     -13.060   9.136  21.156  0.00  0.00    +0.008 A 
ATOM     17  C   UNL     1     -12.337   6.441  21.154  0.00  0.00    +0.023 A 
ATOM     18  C   UNL     1     -13.832   8.206  21.852  0.00  0.00    +0.023 A 
ATOM     21  C   UNL     1     -13.471   6.858  21.851  0.00  0.00    +0.034 A 
BRANCH  21   6
ATOM      4  O   UNL     1     -15.770   5.171  20.927  0.00  0.00    -0.270 OA
ATOM      6  N   UNL     1     -14.244   5.928  22.547  0.00  0.00    -0.282 N 
ATOM     25  C   UNL     1     -15.313   5.162  22.065  0.00  0.00    +0.248 C 
ATOM     33  H   UNL     1     -13.943   5.783  23.506  0.00  0.00    +0.155 HD
BRANCH  25  26
ATOM     26  C   UNL     1     -15.924   4.230  23.048  0.00  0.00    +0.037 A 
ATOM     27  C   UNL     1     -17.101   3.553  22.731  0.00  0.00    +0.013 A 
ATOM     28  C   UNL     1     -15.318   4.032  24.289  0.00  0.00    +0.013 A 
ATOM     29  C   UNL     1     -17.672   2.677  23.654  0.00  0.00    +0.001 A 
ATOM     30  C   UNL     1     -15.890   3.156  25.212  0.00  0.00    +0.001 A 
ATOM     31  C   UNL     1     -17.066   2.478  24.894  0.00  0.00    +0.000 A 
ENDBRANCH  25  26
ENDBRANCH  21   6
ENDBRANCH   8  12
BRANCH   8   2
ATOM      2  O   UNL     1      -9.937   9.080  19.178  0.00  0.00    -0.385 OA
ATOM     32  H   UNL     1      -9.422   8.696  19.906  0.00  0.00    +0.210 HD
ENDBRANCH   8   2
TORSDOF 7
ENDMDL
MODEL 4
REMARK VINA RESULT:      -7.2     29.244     32.888
REMARK  Name = 56774592
REMARK  7 active torsions:
REMARK  status: ('A' for Active; 'I' for Inactive)
REMARK    1  A    between atoms: O_2  and  C_8
REMARK    2  A    between atoms: N_5  and  C_10
REMARK    3  A    between atoms: N_6  and  C_21
REMARK    4  A    between atoms: C_7  and  C_8
REMARK    5  A    between atoms: C_8  and  C_12
REMARK    6  A    between atoms: C_10  and  C_14
REMARK    7  A    between atoms: C_25  and  C_26
REMARK                            x       y       z     vdW  Elec       q    Type
REMARK                         _______ _______ _______ _____ _____    ______ ____
ROOT
ATOM      8  C   UNL     1     -17.923   4.930  22.090  0.00  0.00    +0.167 C 
ENDROOT
BRANCH   8   7
ATOM      1  O   UNL     1     -18.363   5.623  19.272  0.00  0.00    -0.369 OA
ATOM      3  O   UNL     1     -17.099   8.826  20.357  0.00  0.00    -0.273 OA
ATOM      5  N   UNL     1     -16.519   6.696  21.092  0.00  0.00    -0.287 N 
ATOM      7  C   UNL     1     -16.829   5.261  21.070  0.00  0.00    +0.135 C 
ATOM      9  C   UNL     1     -17.243   4.837  19.666  0.00  0.00    +0.185 C 
ATOM     11  C   UNL     1     -17.187   7.601  20.270  0.00  0.00    +0.242 C 
ATOM     13  C   UNL     1     -18.008   6.981  19.144  0.00  0.00    +0.255 C 
BRANCH   5  10
ATOM     10  C   UNL     1     -15.617   7.173  22.131  0.00  0.00    +0.143 C 
BRANCH  10  14
ATOM     14  C   UNL     1     -14.197   7.250  21.652  0.00  0.00    -0.030 A 
ATOM     19  C   UNL     1     -13.406   6.101  21.626  0.00  0.00    +0.005 A 
ATOM     20  C   UNL     1     -13.668   8.470  21.233  0.00  0.00    +0.005 A 
ATOM     22  C   UNL     1     -12.086   6.172  21.180  0.00  0.00    +0.000 A 
ATOM     23  C   UNL     1     -12.347   8.542  20.787  0.00  0.00    +0.000 A 
ATOM     24  C   UNL     1     -11.556   7.393  20.761  0.00  0.00    +0.000 A 
ENDBRANCH  10  14
ENDBRANCH   5  10
ENDBRANCH   8   7
BRANCH   8  12
ATOM     12  C   UNL     1     -17.343   4.522  23.420  0.00  0.00    -0.017 A 
ATOM     15  C   UNL     1     -16.294   3.604  23.472  0.00  0.00    +0.008 A 
ATOM     16  C   UNL     1     -17.856   5.062  24.600  0.00  0.00    +0.008 A 
ATOM     17  C   UNL     1     -15.757   3.227  24.703  0.00  0.00    +0.023 A 
ATOM     18  C   UNL     1     -17.319   4.685  25.831  0.00  0.00    +0.023 A 
ATOM     21  C   UNL     1     -16.270   3.767  25.883  0.00  0.00    +0.034 A 
BRANCH  21   6
ATOM      4  O   UNL     1     -17.119   1.611  27.785  0.00  0.00    -0.270 OA
ATOM      6  N   UNL     1     -15.734   3.389  27.114  0.00  0.00    -0.282 N 
ATOM     25  C   UNL     1     -16.171   2.368  27.968  0.00  0.00    +0.248 C 
ATOM     33  H   UNL     1     -14.902   3.909  27.375  0.00  0.00    +0.155 HD
BRANCH  25  26
ATOM     26  C   UNL     1     -15.370   2.186  29.206  0.00  0.00    +0.037 A 
ATOM     27  C   UNL     1     -15.330   0.943  29.836  0.00  0.00    +0.013 A 
ATOM     28  C   UNL     1     -14.658   3.261  29.739  0.00  0.00    +0.013 A 
ATOM     29  C   UNL     1     -14.576   0.773  30.998  0.00  0.00    +0.001 A 
ATOM     30  C   UNL     1     -13.904   3.091  30.901  0.00  0.00    +0.001 A 
ATOM     31  C   UNL     1     -13.863   1.847  31.530  0.00  0.00    +0.000 A 
ENDBRANCH  25  26
ENDBRANCH  21   6
ENDBRANCH   8  12
BRANCH   8   2
ATOM      2  O   UNL     1     -18.762   6.066  22.266  0.00  0.00    -0.385 OA
ATOM     32  H   UNL     1     -18.368   6.829  21.811  0.00  0.00    +0.210 HD
ENDBRANCH   8   2
TORSDOF 7
ENDMDL
MODEL 5
REMARK VINA RESULT:      -7.1      2.484      9.413
REMARK  Name = 56774592
REMARK  7 active torsions:
REMARK  status: ('A' for Active; 'I' for Inactive)
REMARK    1  A    between atoms: O_2  and  C_8
REMARK    2  A    between atoms: N_5  and  C_10
REMARK    3  A    between atoms: N_6  and  C_21
REMARK    4  A    between atoms: C_7  and  C_8
REMARK    5  A    between atoms: C_8  and  C_12
REMARK    6  A    between atoms: C_10  and  C_14
REMARK    7  A    between atoms: C_25  and  C_26
REMARK                            x       y       z     vdW  Elec       q    Type
REMARK                         _______ _______ _______ _____ _____    ______ ____
ROOT
ATOM      8  C   UNL     1      20.718   5.169  20.895  0.00  0.00    +0.167 C 
ENDROOT
BRANCH   8   7
ATOM      1  O   UNL     1      23.076   4.577  22.538  0.00  0.00    -0.369 OA
ATOM      3  O   UNL     1      24.645   6.918  20.281  0.00  0.00    -0.273 OA
ATOM      5  N   UNL     1      22.464   6.900  21.092  0.00  0.00    -0.287 N 
ATOM      7  C   UNL     1      21.430   6.156  21.823  0.00  0.00    +0.135 C 
ATOM      9  C   UNL     1      22.049   5.438  23.017  0.00  0.00    +0.185 C 
ATOM     11  C   UNL     1      23.777   6.440  21.013  0.00  0.00    +0.242 C 
ATOM     13  C   UNL     1      24.137   5.317  21.979  0.00  0.00    +0.255 C 
BRANCH   5  10
ATOM     10  C   UNL     1      22.036   8.042  20.297  0.00  0.00    +0.143 C 
BRANCH  10  14
ATOM     14  C   UNL     1      21.674   9.220  21.153  0.00  0.00    -0.030 A 
ATOM     19  C   UNL     1      22.603   9.739  22.056  0.00  0.00    +0.005 A 
ATOM     20  C   UNL     1      20.409   9.797  21.046  0.00  0.00    +0.005 A 
ATOM     22  C   UNL     1      22.266  10.834  22.851  0.00  0.00    +0.000 A 
ATOM     23  C   UNL     1      20.072  10.893  21.841  0.00  0.00    +0.000 A 
ATOM     24  C   UNL     1      21.000  11.411  22.744  0.00  0.00    +0.000 A 
ENDBRANCH  10  14
ENDBRANCH   5  10
ENDBRANCH   8   7
BRANCH   8  12
ATOM     12  C   UNL     1      19.361   5.674  20.474  0.00  0.00    -0.017 A 
ATOM     15  C   UNL     1      18.723   6.665  21.221  0.00  0.00    +0.008 A 
ATOM     16  C   UNL     1      18.744   5.152  19.338  0.00  0.00    +0.008 A 
ATOM     17  C   UNL     1      17.468   7.133  20.832  0.00  0.00    +0.023 A 
ATOM     18  C   UNL     1      17.489   5.620  18.948  0.00  0.00    +0.023 A 
ATOM     21  C   UNL     1      16.851   6.610  19.695  0.00  0.00    +0.034 A 
BRANCH  21   6
ATOM      4  O   UNL     1      14.232   6.570  21.153  0.00  0.00    -0.270 OA
ATOM      6  N   UNL     1      15.595   7.078  19.306  0.00  0.00    -0.282 N 
ATOM     25  C   UNL     1      14.396   7.034  20.030  0.00  0.00    +0.248 C 
ATOM     33  H   UNL     1      15.592   7.537  18.400  0.00  0.00    +0.155 HD
BRANCH  25  26
ATOM     26  C   UNL     1      13.222   7.645  19.355  0.00  0.00    +0.037 A 
ATOM     27  C   UNL     1      12.077   7.953  20.089  0.00  0.00    +0.013 A 
ATOM     28  C   UNL     1      13.265   7.910  17.986  0.00  0.00    +0.013 A 
ATOM     29  C   UNL     1      10.975   8.527  19.455  0.00  0.00    +0.001 A 
ATOM     30  C   UNL     1      12.164   8.485  17.352  0.00  0.00    +0.001 A 
ATOM     31  C   UNL     1      11.018   8.794  18.086  0.00  0.00    +0.000 A 
ENDBRANCH  25  26
ENDBRANCH  21   6
ENDBRANCH   8  12
BRANCH   8   2
ATOM      2  O   UNL     1      21.520   4.944  19.741  0.00  0.00    -0.385 OA
ATOM     32  H   UNL     1      20.942   4.798  18.973  0.00  0.00    +0.210 HD
ENDBRANCH   8   2
TORSDOF 7
ENDMDL
MODEL 6
REMARK VINA RESULT:      -6.9      2.623      3.784
REMARK  Name = 56774592
REMARK  7 active torsions:
REMARK  status: ('A' for Active; 'I' for Inactive)
REMARK    1  A    between atoms: O_2  and  C_8
REMARK    2  A    between atoms: N_5  and  C_10
REMARK    3  A    between atoms: N_6  and  C_21
REMARK    4  A    between atoms: C_7  and  C_8
REMARK    5  A    between atoms: C_8  and  C_12
REMARK    6  A    between atoms: C_10  and  C_14
REMARK    7  A    between atoms: C_25  and  C_26
REMARK                            x       y       z     vdW  Elec       q    Type
REMARK                         _______ _______ _______ _____ _____    ______ ____
ROOT
ATOM      8  C   UNL     1      15.636  10.437  20.771  0.00  0.00    +0.167 C 
ENDROOT
BRANCH   8   7
ATOM      1  O   UNL     1      14.795  12.113  23.029  0.00  0.00    -0.369 OA
ATOM      3  O   UNL     1      11.903  12.652  20.936  0.00  0.00    -0.273 OA
ATOM      5  N   UNL     1      13.219  10.745  21.157  0.00  0.00    -0.287 N 
ATOM      7  C   UNL     1      14.450  10.157  21.698  0.00  0.00    +0.135 C 
ATOM      9  C   UNL     1      14.712  10.694  23.101  0.00  0.00    +0.185 C 
ATOM     11  C   UNL     1      12.823  12.041  21.482  0.00  0.00    +0.242 C 
ATOM     13  C   UNL     1      13.557  12.674  22.660  0.00  0.00    +0.255 C 
BRANCH   5  10
ATOM     10  C   UNL     1      12.515   9.999  20.123  0.00  0.00    +0.143 C 
BRANCH  10  14
ATOM     14  C   UNL     1      11.992   8.688  20.632  0.00  0.00    -0.030 A 
ATOM     19  C   UNL     1      10.932   8.665  21.539  0.00  0.00    +0.005 A 
ATOM     20  C   UNL     1      12.564   7.493  20.198  0.00  0.00    +0.005 A 
ATOM     22  C   UNL     1      10.445   7.446  22.013  0.00  0.00    +0.000 A 
ATOM     23  C   UNL     1      12.078   6.274  20.672  0.00  0.00    +0.000 A 
ATOM     24  C   UNL     1      11.018   6.250  21.579  0.00  0.00    +0.000 A 
ENDBRANCH  10  14
ENDBRANCH   5  10
ENDBRANCH   8   7
BRANCH   8  12
ATOM     12  C   UNL     1      16.720   9.401  20.918  0.00  0.00    -0.017 A 
ATOM     15  C   UNL     1      16.413   8.046  20.790  0.00  0.00    +0.008 A 
ATOM     16  C   UNL     1      18.032   9.797  21.183  0.00  0.00    +0.008 A 
ATOM     17  C   UNL     1      17.416   7.087  20.926  0.00  0.00    +0.023 A 
ATOM     18  C   UNL     1      19.035   8.837  21.319  0.00  0.00    +0.023 A 
ATOM     21  C   UNL     1      18.728   7.483  21.191  0.00  0.00    +0.034 A 
BRANCH  21   6
ATOM      4  O   UNL     1      20.192   6.545  23.633  0.00  0.00    -0.270 OA
ATOM      6  N   UNL     1      19.731   6.523  21.327  0.00  0.00    -0.282 N 
ATOM     25  C   UNL     1      20.386   6.121  22.499  0.00  0.00    +0.248 C 
ATOM     33  H   UNL     1      19.965   6.049  20.460  0.00  0.00    +0.155 HD
BRANCH  25  26
ATOM     26  C   UNL     1      21.398   5.047  22.327  0.00  0.00    +0.037 A 
ATOM     27  C   UNL     1      21.348   4.211  21.211  0.00  0.00    +0.013 A 
ATOM     28  C   UNL     1      22.400   4.874  23.283  0.00  0.00    +0.013 A 
ATOM     29  C   UNL     1      22.299   3.204  21.050  0.00  0.00    +0.001 A 
ATOM     30  C   UNL     1      23.352   3.867  23.121  0.00  0.00    +0.001 A 
ATOM     31  C   UNL     1      23.301   3.032  22.005  0.00  0.00    +0.000 A 
ENDBRANCH  25  26
ENDBRANCH  21   6
ENDBRANCH   8  12
BRANCH   8   2
ATOM      2  O   UNL     1      15.183  10.462  19.422  0.00  0.00    -0.385 OA
ATOM     32  H   UNL     1      14.869  11.356  19.205  0.00  0.00    +0.210 HD
ENDBRANCH   8   2
TORSDOF 7
ENDMDL
MODEL 7
REMARK VINA RESULT:      -6.9     13.942     16.708
REMARK  Name = 56774592
REMARK  7 active torsions:
REMARK  status: ('A' for Active; 'I' for Inactive)
REMARK    1  A    between atoms: O_2  and  C_8
REMARK    2  A    between atoms: N_5  and  C_10
REMARK    3  A    between atoms: N_6  and  C_21
REMARK    4  A    between atoms: C_7  and  C_8
REMARK    5  A    between atoms: C_8  and  C_12
REMARK    6  A    between atoms: C_10  and  C_14
REMARK    7  A    between atoms: C_25  and  C_26
REMARK                            x       y       z     vdW  Elec       q    Type
REMARK                         _______ _______ _______ _____ _____    ______ ____
ROOT
ATOM      8  C   UNL     1      18.693  -7.119  25.378  0.00  0.00    +0.167 C 
ENDROOT
BRANCH   8   7
ATOM      1  O   UNL     1      21.386  -6.494  24.394  0.00  0.00    -0.369 OA
ATOM      3  O   UNL     1      19.597  -5.850  21.324  0.00  0.00    -0.273 OA
ATOM      5  N   UNL     1      18.910  -5.510  23.522  0.00  0.00    -0.287 N 
ATOM      7  C   UNL     1      19.187  -5.736  24.945  0.00  0.00    +0.135 C 
ATOM      9  C   UNL     1      20.678  -5.576  25.219  0.00  0.00    +0.185 C 
ATOM     11  C   UNL     1      19.830  -5.853  22.534  0.00  0.00    +0.242 C 
ATOM     13  C   UNL     1      21.238  -6.167  23.031  0.00  0.00    +0.255 C 
BRANCH   5  10
ATOM     10  C   UNL     1      17.566  -5.083  23.157  0.00  0.00    +0.143 C 
BRANCH  10  14
ATOM     14  C   UNL     1      17.339  -3.629  23.450  0.00  0.00    -0.030 A 
ATOM     19  C   UNL     1      17.751  -2.659  22.535  0.00  0.00    +0.005 A 
ATOM     20  C   UNL     1      16.715  -3.246  24.637  0.00  0.00    +0.005 A 
ATOM     22  C   UNL     1      17.539  -1.308  22.807  0.00  0.00    +0.000 A 
ATOM     23  C   UNL     1      16.503  -1.894  24.910  0.00  0.00    +0.000 A 
ATOM     24  C   UNL     1      16.915  -0.925  23.995  0.00  0.00    +0.000 A 
ENDBRANCH  10  14
ENDBRANCH   5  10
ENDBRANCH   8   7
BRANCH   8  12
ATOM     12  C   UNL     1      17.612  -7.026  26.425  0.00  0.00    -0.017 A 
ATOM     15  C   UNL     1      17.950  -7.033  27.779  0.00  0.00    +0.008 A 
ATOM     16  C   UNL     1      16.274  -6.933  26.040  0.00  0.00    +0.008 A 
ATOM     17  C   UNL     1      16.950  -6.946  28.748  0.00  0.00    +0.023 A 
ATOM     18  C   UNL     1      15.275  -6.846  27.009  0.00  0.00    +0.023 A 
ATOM     21  C   UNL     1      15.612  -6.853  28.363  0.00  0.00    +0.034 A 
BRANCH  21   6
ATOM      4  O   UNL     1      15.128  -4.774  30.467  0.00  0.00    -0.270 OA
ATOM      6  N   UNL     1      14.612  -6.767  29.332  0.00  0.00    -0.282 N 
ATOM     25  C   UNL     1      14.430  -5.768  30.297  0.00  0.00    +0.248 C 
ATOM     33  H   UNL     1      13.926  -7.513  29.279  0.00  0.00    +0.155 HD
BRANCH  25  26
ATOM     26  C   UNL     1      13.246  -5.940  31.178  0.00  0.00    +0.037 A 
ATOM     27  C   UNL     1      12.442  -7.073  31.054  0.00  0.00    +0.013 A 
ATOM     28  C   UNL     1      12.938  -4.968  32.130  0.00  0.00    +0.013 A 
ATOM     29  C   UNL     1      11.332  -7.235  31.882  0.00  0.00    +0.001 A 
ATOM     30  C   UNL     1      11.827  -5.129  32.958  0.00  0.00    +0.001 A 
ATOM     31  C   UNL     1      11.024  -6.263  32.834  0.00  0.00    +0.000 A 
ENDBRANCH  25  26
ENDBRANCH  21   6
ENDBRANCH   8  12
BRANCH   8   2
ATOM      2  O   UNL     1      18.195  -7.818  24.243  0.00  0.00    -0.385 OA
ATOM     32  H   UNL     1      18.569  -8.715  24.230  0.00  0.00    +0.210 HD
ENDBRANCH   8   2
TORSDOF 7
ENDMDL
MODEL 8
REMARK VINA RESULT:      -6.9      4.894      7.596
REMARK  Name = 56774592
REMARK  7 active torsions:
REMARK  status: ('A' for Active; 'I' for Inactive)
REMARK    1  A    between atoms: O_2  and  C_8
REMARK    2  A    between atoms: N_5  and  C_10
REMARK    3  A    between atoms: N_6  and  C_21
REMARK    4  A    between atoms: C_7  and  C_8
REMARK    5  A    between atoms: C_8  and  C_12
REMARK    6  A    between atoms: C_10  and  C_14
REMARK    7  A    between atoms: C_25  and  C_26
REMARK                            x       y       z     vdW  Elec       q    Type
REMARK                         _______ _______ _______ _____ _____    ______ ____
ROOT
ATOM      8  C   UNL     1      12.277   8.576  17.867  0.00  0.00    +0.167 C 
ENDROOT
BRANCH   8   7
ATOM      1  O   UNL     1      11.173   7.303  20.270  0.00  0.00    -0.369 OA
ATOM      3  O   UNL     1      14.601   6.255  20.708  0.00  0.00    -0.273 OA
ATOM      5  N   UNL     1      13.776   8.230  19.795  0.00  0.00    -0.287 N 
ATOM      7  C   UNL     1      12.600   8.964  19.312  0.00  0.00    +0.135 C 
ATOM      9  C   UNL     1      11.411   8.705  20.230  0.00  0.00    +0.185 C 
ATOM     11  C   UNL     1      13.657   6.998  20.434  0.00  0.00    +0.242 C 
ATOM     13  C   UNL     1      12.247   6.625  20.881  0.00  0.00    +0.255 C 
BRANCH   5  10
ATOM     10  C   UNL     1      15.088   8.741  19.422  0.00  0.00    +0.143 C 
BRANCH  10  14
ATOM     14  C   UNL     1      15.458   9.967  20.205  0.00  0.00    -0.030 A 
ATOM     19  C   UNL     1      15.853  11.128  19.540  0.00  0.00    +0.005 A 
ATOM     20  C   UNL     1      15.406   9.945  21.599  0.00  0.00    +0.005 A 
ATOM     22  C   UNL     1      16.197  12.267  20.269  0.00  0.00    +0.000 A 
ATOM     23  C   UNL     1      15.750  11.084  22.328  0.00  0.00    +0.000 A 
ATOM     24  C   UNL     1      16.145  12.245  21.663  0.00  0.00    +0.000 A 
ENDBRANCH  10  14
ENDBRANCH   5  10
ENDBRANCH   8   7
BRANCH   8  12
ATOM     12  C   UNL     1      13.226   9.219  16.888  0.00  0.00    -0.017 A 
ATOM     15  C   UNL     1      13.409  10.602  16.899  0.00  0.00    +0.008 A 
ATOM     16  C   UNL     1      13.922   8.431  15.971  0.00  0.00    +0.008 A 
ATOM     17  C   UNL     1      14.288  11.197  15.994  0.00  0.00    +0.023 A 
ATOM     18  C   UNL     1      14.801   9.026  15.066  0.00  0.00    +0.023 A 
ATOM     21  C   UNL     1      14.984  10.409  15.077  0.00  0.00    +0.034 A 
BRANCH  21   6
ATOM      4  O   UNL     1      14.443  11.755  12.454  0.00  0.00    -0.270 OA
ATOM      6  N   UNL     1      15.862  11.004  14.171  0.00  0.00    -0.282 N 
ATOM     25  C   UNL     1      15.555  11.623  12.952  0.00  0.00    +0.248 C 
ATOM     33  H   UNL     1      16.829  11.008  14.481  0.00  0.00    +0.155 HD
BRANCH  25  26
ATOM     26  C   UNL     1      16.714  12.194  12.218  0.00  0.00    +0.037 A 
ATOM     27  C   UNL     1      16.611  12.467  10.854  0.00  0.00    +0.013 A 
ATOM     28  C   UNL     1      17.906  12.457  12.894  0.00  0.00    +0.013 A 
ATOM     29  C   UNL     1      17.699  13.005  10.166  0.00  0.00    +0.001 A 
ATOM     30  C   UNL     1      18.994  12.995  12.206  0.00  0.00    +0.001 A 
ATOM     31  C   UNL     1      18.891  13.269  10.842  0.00  0.00    +0.000 A 
ENDBRANCH  25  26
ENDBRANCH  21   6
ENDBRANCH   8  12
BRANCH   8   2
ATOM      2  O   UNL     1      12.343   7.161  17.733  0.00  0.00    -0.385 OA
ATOM     32  H   UNL     1      12.725   6.939  16.868  0.00  0.00    +0.210 HD
ENDBRANCH   8   2
TORSDOF 7
ENDMDL
MODEL 9
REMARK VINA RESULT:      -6.9     28.316     31.686
REMARK  Name = 56774592
REMARK  7 active torsions:
REMARK  status: ('A' for Active; 'I' for Inactive)
REMARK    1  A    between atoms: O_2  and  C_8
REMARK    2  A    between atoms: N_5  and  C_10
REMARK    3  A    between atoms: N_6  and  C_21
REMARK    4  A    between atoms: C_7  and  C_8
REMARK    5  A    between atoms: C_8  and  C_12
REMARK    6  A    between atoms: C_10  and  C_14
REMARK    7  A    between atoms: C_25  and  C_26
REMARK                            x       y       z     vdW  Elec       q    Type
REMARK                         _______ _______ _______ _____ _____    ______ ____
ROOT
ATOM      8  C   UNL     1     -13.270  -7.412  15.064  0.00  0.00    +0.167 C 
ENDROOT
BRANCH   8   7
ATOM      1  O   UNL     1     -15.881  -7.461  13.725  0.00  0.00    -0.369 OA
ATOM      3  O   UNL     1     -15.024  -4.034  12.973  0.00  0.00    -0.273 OA
ATOM      5  N   UNL     1     -13.630  -5.888  13.158  0.00  0.00    -0.287 N 
ATOM      7  C   UNL     1     -13.502  -7.296  13.555  0.00  0.00    +0.135 C 
ATOM      9  C   UNL     1     -14.742  -8.073  13.129  0.00  0.00    +0.185 C 
ATOM     11  C   UNL     1     -14.866  -5.246  13.128  0.00  0.00    +0.242 C 
ATOM     13  C   UNL     1     -16.082  -6.162  13.215  0.00  0.00    +0.255 C 
BRANCH   5  10
ATOM     10  C   UNL     1     -12.402  -5.128  12.972  0.00  0.00    +0.143 C 
BRANCH  10  14
ATOM     14  C   UNL     1     -12.092  -4.905  11.521  0.00  0.00    -0.030 A 
ATOM     19  C   UNL     1     -11.933  -3.608  11.032  0.00  0.00    +0.005 A 
ATOM     20  C   UNL     1     -11.963  -5.995  10.661  0.00  0.00    +0.005 A 
ATOM     22  C   UNL     1     -11.645  -3.401   9.683  0.00  0.00    +0.000 A 
ATOM     23  C   UNL     1     -11.675  -5.788   9.311  0.00  0.00    +0.000 A 
ATOM     24  C   UNL     1     -11.516  -4.491   8.822  0.00  0.00    +0.000 A 
ENDBRANCH  10  14
ENDBRANCH   5  10
ENDBRANCH   8   7
BRANCH   8  12
ATOM     12  C   UNL     1     -11.882  -7.909  15.381  0.00  0.00    -0.017 A 
ATOM     15  C   UNL     1     -11.354  -8.997  14.685  0.00  0.00    +0.008 A 
ATOM     16  C   UNL     1     -11.125  -7.281  16.370  0.00  0.00    +0.008 A 
ATOM     17  C   UNL     1     -10.070  -9.456  14.977  0.00  0.00    +0.023 A 
ATOM     18  C   UNL     1      -9.841  -7.740  16.663  0.00  0.00    +0.023 A 
ATOM     21  C   UNL     1      -9.313  -8.827  15.966  0.00  0.00    +0.034 A 
BRANCH  21   6
ATOM      4  O   UNL     1      -8.285 -10.305  18.363  0.00  0.00    -0.270 OA
ATOM      6  N   UNL     1      -8.029  -9.287  16.259  0.00  0.00    -0.282 N 
ATOM     25  C   UNL     1      -7.600  -9.977  17.401  0.00  0.00    +0.248 C 
ATOM     33  H   UNL     1      -7.356  -9.122  15.517  0.00  0.00    +0.155 HD
BRANCH  25  26
ATOM     26  C   UNL     1      -6.164 -10.362  17.411  0.00  0.00    +0.037 A 
ATOM     27  C   UNL     1      -5.649 -11.110  18.469  0.00  0.00    +0.013 A 
ATOM     28  C   UNL     1      -5.332  -9.974  16.360  0.00  0.00    +0.013 A 
ATOM     29  C   UNL     1      -4.302 -11.472  18.476  0.00  0.00    +0.001 A 
ATOM     30  C   UNL     1      -3.985 -10.337  16.367  0.00  0.00    +0.001 A 
ATOM     31  C   UNL     1      -3.470 -11.086  17.425  0.00  0.00    +0.000 A 
ENDBRANCH  25  26
ENDBRANCH  21   6
ENDBRANCH   8  12
BRANCH   8   2
ATOM      2  O   UNL     1     -13.469  -6.141  15.671  0.00  0.00    -0.385 OA
ATOM     32  H   UNL     1     -13.993  -6.252  16.483  0.00  0.00    +0.210 HD
ENDBRANCH   8   2
TORSDOF 7
ENDMDL
MODEL 10
REMARK VINA RESULT:      -6.8     24.724     28.343
REMARK  Name = 56774592
REMARK  7 active torsions:
REMARK  status: ('A' for Active; 'I' for Inactive)
REMARK    1  A    between atoms: O_2  and  C_8
REMARK    2  A    between atoms: N_5  and  C_10
REMARK    3  A    between atoms: N_6  and  C_21
REMARK    4  A    between atoms: C_7  and  C_8
REMARK    5  A    between atoms: C_8  and  C_12
REMARK    6  A    between atoms: C_10  and  C_14
REMARK    7  A    between atoms: C_25  and  C_26
REMARK                            x       y       z     vdW  Elec       q    Type
REMARK                         _______ _______ _______ _____ _____    ______ ____
ROOT
ATOM      8  C   UNL     1      -1.649  10.431   3.546  0.00  0.00    +0.167 C 
ENDROOT
BRANCH   8   7
ATOM      1  O   UNL     1       0.095  12.705   2.915  0.00  0.00    -0.369 OA
ATOM      3  O   UNL     1       1.567  10.328   0.630  0.00  0.00    -0.273 OA
ATOM      5  N   UNL     1      -0.653  10.544   1.292  0.00  0.00    -0.287 N 
ATOM      7  C   UNL     1      -1.606  11.180   2.211  0.00  0.00    +0.135 C 
ATOM      9  C   UNL     1      -1.236  12.644   2.415  0.00  0.00    +0.185 C 
ATOM     11  C   UNL     1       0.685  10.928   1.246  0.00  0.00    +0.242 C 
ATOM     13  C   UNL     1       1.016  12.237   1.957  0.00  0.00    +0.255 C 
BRANCH   5  10
ATOM     10  C   UNL     1      -1.108   9.372   0.557  0.00  0.00    +0.143 C 
BRANCH  10  14
ATOM     14  C   UNL     1      -1.907   9.744  -0.657  0.00  0.00    -0.030 A 
ATOM     19  C   UNL     1      -1.271  10.298  -1.769  0.00  0.00    +0.005 A 
ATOM     20  C   UNL     1      -3.285   9.536  -0.675  0.00  0.00    +0.005 A 
ATOM     22  C   UNL     1      -2.014  10.644  -2.898  0.00  0.00    +0.000 A 
ATOM     23  C   UNL     1      -4.029   9.882  -1.804  0.00  0.00    +0.000 A 
ATOM     24  C   UNL     1      -3.394  10.436  -2.915  0.00  0.00    +0.000 A 
ENDBRANCH  10  14
ENDBRANCH   5  10
ENDBRANCH   8   7
BRANCH   8  12
ATOM     12  C   UNL     1      -2.934   9.661   3.715  0.00  0.00    -0.017 A 
ATOM     15  C   UNL     1      -3.010   8.626   4.647  0.00  0.00    +0.008 A 
ATOM     16  C   UNL     1      -4.048   9.983   2.939  0.00  0.00    +0.008 A 
ATOM     17  C   UNL     1      -4.199   7.913   4.804  0.00  0.00    +0.023 A 
ATOM     18  C   UNL     1      -5.237   9.271   3.096  0.00  0.00    +0.023 A 
ATOM     21  C   UNL     1      -5.312   8.235   4.028  0.00  0.00    +0.034 A 
BRANCH  21   6
ATOM      4  O   UNL     1      -7.614   8.692   5.894  0.00  0.00    -0.270 OA
ATOM      6  N   UNL     1      -6.501   7.522   4.185  0.00  0.00    -0.282 N 
ATOM     25  C   UNL     1      -7.550   7.780   5.077  0.00  0.00    +0.248 C 
ATOM     33  H   UNL     1      -6.606   6.754   3.529  0.00  0.00    +0.155 HD
BRANCH  25  26
ATOM     26  C   UNL     1      -8.707   6.852   4.985  0.00  0.00    +0.037 A 
ATOM     27  C   UNL     1      -9.966   7.260   5.424  0.00  0.00    +0.013 A 
ATOM     28  C   UNL     1      -8.533   5.571   4.461  0.00  0.00    +0.013 A 
ATOM     29  C   UNL     1     -11.052   6.388   5.336  0.00  0.00    +0.001 A 
ATOM     30  C   UNL     1      -9.618   4.699   4.373  0.00  0.00    +0.001 A 
ATOM     31  C   UNL     1     -10.878   5.108   4.810  0.00  0.00    +0.000 A 
ENDBRANCH  25  26
ENDBRANCH  21   6
ENDBRANCH   8  12
BRANCH   8   2
ATOM      2  O   UNL     1      -0.546   9.536   3.621  0.00  0.00    -0.385 OA
ATOM     32  H   UNL     1       0.174   9.867   3.057  0.00  0.00    +0.210 HD
ENDBRANCH   8   2
TORSDOF 7
ENDMDL
