REMARK  Name = 40780323
REMARK  8 active torsions:
REMARK  status: ('A' for Active; 'I' for Inactive)
REMARK    1  A    between atoms: O_4  and  C_22
REMARK    2  A    between atoms: O_4  and  C_34
REMARK    3  A    between atoms: N_8  and  C_13
REMARK    4  A    between atoms: N_8  and  C_23
REMARK    5  A    between atoms: C_11  and  C_19
REMARK    6  A    between atoms: C_15  and  C_22
REMARK    7  A    between atoms: C_23  and  C_31
REMARK    8  A    between atoms: C_33  and  C_36
REMARK                            x       y       z     vdW  Elec       q    Type
REMARK                         _______ _______ _______ _____ _____    ______ ____
ROOT
ATOM      6  N   UNL     1       0.830  -0.135   0.115  0.00  0.00    -0.274 NA
ATOM      7  N   UNL     1       2.498   3.223  -0.103  0.00  0.00    -0.356 N 
ATOM     10  C   UNL     1       0.914   1.306   0.506  0.00  0.00    +0.106 C 
ATOM     11  C   UNL     1      -0.402  -0.780   0.635  0.00  0.00    +0.090 C 
ATOM     12  C   UNL     1      -0.312   2.079  -0.003  0.00  0.00    +0.044 C 
ATOM     13  C   UNL     1      -1.598   1.469   0.554  0.00  0.00    +0.058 C 
ATOM     14  C   UNL     1      -1.667  -0.011   0.181  0.00  0.00    +0.042 C 
ATOM     15  C   UNL     1       2.088  -0.883   0.386  0.00  0.00    +0.172 C 
ATOM     16  C   UNL     1       2.193   1.894  -0.011  0.00  0.00    +0.038 A 
ATOM     17  C   UNL     1       3.298  -0.316  -0.398  0.00  0.00    +0.068 C 
ATOM     18  C   UNL     1       3.297   1.173  -0.410  0.00  0.00    -0.016 A 
ATOM     20  C   UNL     1       4.305   2.098  -0.796  0.00  0.00    +0.003 A 
ATOM     21  C   UNL     1       3.777   3.377  -0.594  0.00  0.00    +0.047 A 
ATOM     26  C   UNL     1       5.618   1.977  -1.293  0.00  0.00    +0.010 A 
ATOM     27  C   UNL     1       4.501   4.543  -0.868  0.00  0.00    +0.026 A 
ATOM     30  C   UNL     1       6.352   3.135  -1.573  0.00  0.00    +0.001 A 
ATOM     32  C   UNL     1       5.800   4.397  -1.363  0.00  0.00    +0.002 A 
ATOM     40  H   UNL     1       1.883   3.986   0.147  0.00  0.00    +0.166 HD
ENDROOT
BRANCH  11  19
ATOM     19  C   UNL     1      -0.571  -2.237   0.209  0.00  0.00    -0.030 A 
ATOM     24  C   UNL     1      -0.659  -3.239   1.175  0.00  0.00    +0.006 A 
ATOM     25  C   UNL     1      -0.637  -2.565  -1.145  0.00  0.00    +0.006 A 
ATOM     28  C   UNL     1      -0.813  -4.570   0.787  0.00  0.00    +0.013 A 
ATOM     29  C   UNL     1      -0.791  -3.896  -1.533  0.00  0.00    +0.013 A 
ATOM     33  C   UNL     1      -0.879  -4.898  -0.567  0.00  0.00    +0.055 A 
BRANCH  33  36
ATOM      1  F   UNL     1      -2.179  -6.549  -1.711  0.00  0.00    -0.166 F 
ATOM      2  F   UNL     1      -1.119  -7.173   0.082  0.00  0.00    -0.166 F 
ATOM      3  F   UNL     1      -0.025  -6.789  -1.757  0.00  0.00    -0.166 F 
ATOM     36  C   UNL     1      -1.047  -6.321  -0.982  0.00  0.00    +0.417 C 
ENDBRANCH  33  36
ENDBRANCH  11  19
BRANCH  15  22
ATOM      5  O   UNL     1       1.664  -0.390   2.708  0.00  0.00    -0.249 OA
ATOM     22  C   UNL     1       2.373  -0.917   1.861  0.00  0.00    +0.325 C 
BRANCH  22   4
ATOM      4  O   UNL     1       3.522  -1.614   2.088  0.00  0.00    -0.467 OA
ATOM     34  C   UNL     1       3.914  -1.725   3.460  0.00  0.00    +0.280 C 
ENDBRANCH  22   4
ENDBRANCH  15  22
BRANCH  13   8
ATOM      8  N   UNL     1      -2.761   2.191   0.039  0.00  0.00    -0.309 NA
ATOM     41  H   UNL     1      -2.551   3.189   0.010  0.00  0.00    +0.123 HD
BRANCH   8  23
ATOM     23  C   UNL     1      -3.918   1.981   0.895  0.00  0.00    +0.118 C 
BRANCH  23  31
ATOM      9  N   UNL     1      -7.265   2.631  -0.750  0.00  0.00    -0.263 NA
ATOM     31  C   UNL     1      -5.132   2.711   0.385  0.00  0.00    -0.015 A 
ATOM     35  C   UNL     1      -5.265   4.085   0.553  0.00  0.00    +0.008 A 
ATOM     37  C   UNL     1      -6.151   2.036  -0.267  0.00  0.00    +0.115 A 
ATOM     38  C   UNL     1      -6.396   4.733   0.070  0.00  0.00    +0.020 A 
ATOM     39  C   UNL     1      -7.359   3.967  -0.568  0.00  0.00    +0.111 A 
ENDBRANCH  23  31
ENDBRANCH   8  23
ENDBRANCH  13   8
TORSDOF 7
