MODEL 1
REMARK VINA RESULT:      -7.2      0.000      0.000
REMARK  Name = 75536102
REMARK  8 active torsions:
REMARK  status: ('A' for Active; 'I' for Inactive)
REMARK    1  A    between atoms: O_2  and  C_8
REMARK    2  A    between atoms: O_3  and  C_10
REMARK    3  A    between atoms: O_4  and  C_18
REMARK    4  A    between atoms: O_4  and  C_24
REMARK    5  A    between atoms: N_5  and  C_6
REMARK    6  A    between atoms: N_5  and  C_12
REMARK    7  A    between atoms: C_7  and  C_11
REMARK    8  A    between atoms: C_12  and  C_15
REMARK                            x       y       z     vdW  Elec       q    Type
REMARK                         _______ _______ _______ _____ _____    ______ ____
ROOT
ATOM      6  C   UNL     1      12.869   7.149  20.762  0.00  0.00    +0.092 C 
ATOM      7  C   UNL     1      13.063   8.463  21.552  0.00  0.00    +0.041 C 
ATOM      8  C   UNL     1      11.724   6.462  21.507  0.00  0.00    +0.160 C 
ATOM      9  C   UNL     1      11.688   8.758  22.210  0.00  0.00    +0.043 C 
ATOM     10  C   UNL     1      10.765   7.615  21.783  0.00  0.00    +0.145 C 
ENDROOT
BRANCH   7  11
ATOM     11  C   UNL     1      13.598   9.596  20.702  0.00  0.00    -0.042 A 
ATOM     13  C   UNL     1      14.808  10.205  21.032  0.00  0.00    +0.007 A 
ATOM     14  C   UNL     1      12.881  10.030  19.587  0.00  0.00    +0.007 A 
ATOM     16  C   UNL     1      15.301  11.249  20.248  0.00  0.00    +0.046 A 
ATOM     17  C   UNL     1      13.373  11.073  18.804  0.00  0.00    +0.046 A 
ATOM     18  C   UNL     1      14.583  11.683  19.134  0.00  0.00    +0.120 A 
BRANCH  18   4
ATOM      4  O   UNL     1      15.065  12.700  18.369  0.00  0.00    -0.495 OA
ATOM     24  C   UNL     1      15.221  12.444  16.974  0.00  0.00    +0.277 C 
ENDBRANCH  18   4
ENDBRANCH   7  11
BRANCH   8   2
ATOM      2  O   UNL     1      11.125   5.448  20.722  0.00  0.00    -0.388 OA
ATOM     26  H   UNL     1      11.832   5.025  20.205  0.00  0.00    +0.210 HD
ENDBRANCH   8   2
BRANCH  10   3
ATOM      3  O   UNL     1      10.078   7.980  20.589  0.00  0.00    -0.389 OA
ATOM     27  H   UNL     1       9.546   7.214  20.314  0.00  0.00    +0.210 HD
ENDBRANCH  10   3
BRANCH   6   5
ATOM      5  N   UNL     1      14.077   6.331  20.753  0.00  0.00    -0.306 NA
ATOM     25  H   UNL     1      14.606   6.509  21.608  0.00  0.00    +0.123 HD
BRANCH   5  12
ATOM     12  C   UNL     1      14.917   6.658  19.609  0.00  0.00    +0.116 C 
BRANCH  12  15
ATOM      1 CL   UNL     1      20.759   5.893  20.826  0.00  0.00    -0.084 Cl
ATOM     15  C   UNL     1      16.379   6.466  19.915  0.00  0.00    -0.033 A 
ATOM     19  C   UNL     1      17.182   5.729  19.045  0.00  0.00    +0.006 A 
ATOM     20  C   UNL     1      16.930   7.027  21.067  0.00  0.00    +0.006 A 
ATOM     21  C   UNL     1      18.535   5.550  19.327  0.00  0.00    +0.020 A 
ATOM     22  C   UNL     1      18.285   6.848  21.350  0.00  0.00    +0.020 A 
ATOM     23  C   UNL     1      19.088   6.110  20.480  0.00  0.00    +0.041 A 
ENDBRANCH  12  15
ENDBRANCH   5  12
ENDBRANCH   6   5
TORSDOF 7
ENDMDL
MODEL 2
REMARK VINA RESULT:      -6.9      3.651      6.224
REMARK  Name = 75536102
REMARK  8 active torsions:
REMARK  status: ('A' for Active; 'I' for Inactive)
REMARK    1  A    between atoms: O_2  and  C_8
REMARK    2  A    between atoms: O_3  and  C_10
REMARK    3  A    between atoms: O_4  and  C_18
REMARK    4  A    between atoms: O_4  and  C_24
REMARK    5  A    between atoms: N_5  and  C_6
REMARK    6  A    between atoms: N_5  and  C_12
REMARK    7  A    between atoms: C_7  and  C_11
REMARK    8  A    between atoms: C_12  and  C_15
REMARK                            x       y       z     vdW  Elec       q    Type
REMARK                         _______ _______ _______ _____ _____    ______ ____
ROOT
ATOM      6  C   UNL     1      13.004   7.711  18.968  0.00  0.00    +0.092 C 
ATOM      7  C   UNL     1      14.104   8.778  19.166  0.00  0.00    +0.041 C 
ATOM      8  C   UNL     1      12.233   8.229  17.753  0.00  0.00    +0.160 C 
ATOM      9  C   UNL     1      14.321   9.414  17.766  0.00  0.00    +0.043 C 
ATOM     10  C   UNL     1      13.349   8.701  16.826  0.00  0.00    +0.145 C 
ENDROOT
BRANCH   7  11
ATOM     11  C   UNL     1      15.364   8.225  19.798  0.00  0.00    -0.042 A 
ATOM     13  C   UNL     1      16.090   9.000  20.700  0.00  0.00    +0.007 A 
ATOM     14  C   UNL     1      15.797   6.939  19.477  0.00  0.00    +0.007 A 
ATOM     16  C   UNL     1      17.251   8.490  21.283  0.00  0.00    +0.046 A 
ATOM     17  C   UNL     1      16.958   6.428  20.059  0.00  0.00    +0.046 A 
ATOM     18  C   UNL     1      17.685   7.204  20.962  0.00  0.00    +0.120 A 
BRANCH  18   4
ATOM      4  O   UNL     1      18.816   6.706  21.531  0.00  0.00    -0.495 OA
ATOM     24  C   UNL     1      19.751   6.066  20.663  0.00  0.00    +0.277 C 
ENDBRANCH  18   4
ENDBRANCH   7  11
BRANCH   8   2
ATOM      2  O   UNL     1      11.446   7.211  17.162  0.00  0.00    -0.388 OA
ATOM     26  H   UNL     1      10.515   7.476  17.250  0.00  0.00    +0.210 HD
ENDBRANCH   8   2
BRANCH  10   3
ATOM      3  O   UNL     1      13.999   7.582  16.229  0.00  0.00    -0.389 OA
ATOM     27  H   UNL     1      14.845   7.456  16.692  0.00  0.00    +0.210 HD
ENDBRANCH  10   3
BRANCH   6   5
ATOM      5  N   UNL     1      12.144   7.585  20.139  0.00  0.00    -0.306 NA
ATOM     25  H   UNL     1      11.705   6.663  20.133  0.00  0.00    +0.123 HD
BRANCH   5  12
ATOM     12  C   UNL     1      11.097   8.597  20.126  0.00  0.00    +0.116 C 
BRANCH  12  15
ATOM      1 CL   UNL     1      11.920  12.735  24.415  0.00  0.00    -0.084 Cl
ATOM     15  C   UNL     1      11.303   9.632  21.200  0.00  0.00    -0.033 A 
ATOM     19  C   UNL     1      11.949  10.831  20.898  0.00  0.00    +0.006 A 
ATOM     20  C   UNL     1      10.848   9.392  22.496  0.00  0.00    +0.006 A 
ATOM     21  C   UNL     1      12.141  11.789  21.892  0.00  0.00    +0.020 A 
ATOM     22  C   UNL     1      11.040  10.351  23.491  0.00  0.00    +0.020 A 
ATOM     23  C   UNL     1      11.686  11.550  23.189  0.00  0.00    +0.041 A 
ENDBRANCH  12  15
ENDBRANCH   5  12
ENDBRANCH   6   5
TORSDOF 7
ENDMDL
MODEL 3
REMARK VINA RESULT:      -6.5     27.079     29.526
REMARK  Name = 75536102
REMARK  8 active torsions:
REMARK  status: ('A' for Active; 'I' for Inactive)
REMARK    1  A    between atoms: O_2  and  C_8
REMARK    2  A    between atoms: O_3  and  C_10
REMARK    3  A    between atoms: O_4  and  C_18
REMARK    4  A    between atoms: O_4  and  C_24
REMARK    5  A    between atoms: N_5  and  C_6
REMARK    6  A    between atoms: N_5  and  C_12
REMARK    7  A    between atoms: C_7  and  C_11
REMARK    8  A    between atoms: C_12  and  C_15
REMARK                            x       y       z     vdW  Elec       q    Type
REMARK                         _______ _______ _______ _____ _____    ______ ____
ROOT
ATOM      6  C   UNL     1      -4.822 -10.631  15.172  0.00  0.00    +0.092 C 
ATOM      7  C   UNL     1      -4.341 -10.422  16.625  0.00  0.00    +0.041 C 
ATOM      8  C   UNL     1      -3.518 -10.643  14.372  0.00  0.00    +0.160 C 
ATOM      9  C   UNL     1      -2.891 -10.979  16.666  0.00  0.00    +0.043 C 
ATOM     10  C   UNL     1      -2.595 -11.480  15.251  0.00  0.00    +0.145 C 
ENDROOT
BRANCH   7  11
ATOM     11  C   UNL     1      -5.268 -11.032  17.654  0.00  0.00    -0.042 A 
ATOM     13  C   UNL     1      -5.689 -10.279  18.748  0.00  0.00    +0.007 A 
ATOM     14  C   UNL     1      -5.702 -12.350  17.506  0.00  0.00    +0.007 A 
ATOM     16  C   UNL     1      -6.544 -10.842  19.696  0.00  0.00    +0.046 A 
ATOM     17  C   UNL     1      -6.556 -12.913  18.453  0.00  0.00    +0.046 A 
ATOM     18  C   UNL     1      -6.978 -12.159  19.549  0.00  0.00    +0.120 A 
BRANCH  18   4
ATOM      4  O   UNL     1      -7.813 -12.708  20.472  0.00  0.00    -0.495 OA
ATOM     24  C   UNL     1      -8.891 -13.504  19.981  0.00  0.00    +0.277 C 
ENDBRANCH  18   4
ENDBRANCH   7  11
BRANCH   8   2
ATOM      2  O   UNL     1      -3.697 -11.216  13.091  0.00  0.00    -0.388 OA
ATOM     26  H   UNL     1      -2.981 -10.887  12.522  0.00  0.00    +0.210 HD
ENDBRANCH   8   2
BRANCH  10   3
ATOM      3  O   UNL     1      -2.938 -12.859  15.153  0.00  0.00    -0.389 OA
ATOM     27  H   UNL     1      -3.045 -13.066  14.208  0.00  0.00    +0.210 HD
ENDBRANCH  10   3
BRANCH   6   5
ATOM      5  N   UNL     1      -5.716  -9.566  14.731  0.00  0.00    -0.306 NA
ATOM     25  H   UNL     1      -5.848  -8.903  15.497  0.00  0.00    +0.123 HD
BRANCH   5  12
ATOM     12  C   UNL     1      -7.017 -10.104  14.355  0.00  0.00    +0.116 C 
BRANCH  12  15
ATOM      1 CL   UNL     1     -10.772 -10.373  19.048  0.00  0.00    -0.084 Cl
ATOM     15  C   UNL     1      -7.957 -10.170  15.529  0.00  0.00    -0.033 A 
ATOM     19  C   UNL     1      -8.664 -11.344  15.791  0.00  0.00    +0.006 A 
ATOM     20  C   UNL     1      -8.121  -9.058  16.355  0.00  0.00    +0.006 A 
ATOM     21  C   UNL     1      -9.534 -11.407  16.878  0.00  0.00    +0.020 A 
ATOM     22  C   UNL     1      -8.993  -9.121  17.443  0.00  0.00    +0.020 A 
ATOM     23  C   UNL     1      -9.699 -10.295  17.704  0.00  0.00    +0.041 A 
ENDBRANCH  12  15
ENDBRANCH   5  12
ENDBRANCH   6   5
TORSDOF 7
ENDMDL
MODEL 4
REMARK VINA RESULT:      -6.4      3.293      4.155
REMARK  Name = 75536102
REMARK  8 active torsions:
REMARK  status: ('A' for Active; 'I' for Inactive)
REMARK    1  A    between atoms: O_2  and  C_8
REMARK    2  A    between atoms: O_3  and  C_10
REMARK    3  A    between atoms: O_4  and  C_18
REMARK    4  A    between atoms: O_4  and  C_24
REMARK    5  A    between atoms: N_5  and  C_6
REMARK    6  A    between atoms: N_5  and  C_12
REMARK    7  A    between atoms: C_7  and  C_11
REMARK    8  A    between atoms: C_12  and  C_15
REMARK                            x       y       z     vdW  Elec       q    Type
REMARK                         _______ _______ _______ _____ _____    ______ ____
ROOT
ATOM      6  C   UNL     1      11.938   9.613  21.824  0.00  0.00    +0.092 C 
ATOM      7  C   UNL     1      13.223  10.450  22.013  0.00  0.00    +0.041 C 
ATOM      8  C   UNL     1      11.110   9.963  23.061  0.00  0.00    +0.160 C 
ATOM      9  C   UNL     1      12.806  11.656  22.898  0.00  0.00    +0.043 C 
ATOM     10  C   UNL     1      11.315  11.469  23.184  0.00  0.00    +0.145 C 
ENDROOT
BRANCH   7  11
ATOM     11  C   UNL     1      13.879  10.839  20.705  0.00  0.00    -0.042 A 
ATOM     13  C   UNL     1      15.214  10.515  20.470  0.00  0.00    +0.007 A 
ATOM     14  C   UNL     1      13.146  11.523  19.734  0.00  0.00    +0.007 A 
ATOM     16  C   UNL     1      15.817  10.874  19.264  0.00  0.00    +0.046 A 
ATOM     17  C   UNL     1      13.749  11.882  18.529  0.00  0.00    +0.046 A 
ATOM     18  C   UNL     1      15.085  11.557  18.294  0.00  0.00    +0.120 A 
BRANCH  18   4
ATOM      4  O   UNL     1      15.673  11.906  17.118  0.00  0.00    -0.495 OA
ATOM     24  C   UNL     1      14.813  12.349  16.068  0.00  0.00    +0.277 C 
ENDBRANCH  18   4
ENDBRANCH   7  11
BRANCH   8   2
ATOM      2  O   UNL     1       9.747   9.624  22.890  0.00  0.00    -0.388 OA
ATOM     26  H   UNL     1       9.677   9.107  22.069  0.00  0.00    +0.210 HD
ENDBRANCH   8   2
BRANCH  10   3
ATOM      3  O   UNL     1      10.551  12.153  22.195  0.00  0.00    -0.389 OA
ATOM     27  H   UNL     1       9.784  12.550  22.642  0.00  0.00    +0.210 HD
ENDBRANCH  10   3
BRANCH   6   5
ATOM      5  N   UNL     1      12.220   8.184  21.749  0.00  0.00    -0.306 NA
ATOM     25  H   UNL     1      13.226   8.048  21.644  0.00  0.00    +0.123 HD
BRANCH   5  12
ATOM     12  C   UNL     1      11.548   7.582  20.605  0.00  0.00    +0.116 C 
BRANCH  12  15
ATOM      1 CL   UNL     1      14.404   8.775  15.446  0.00  0.00    -0.084 Cl
ATOM     15  C   UNL     1      12.263   7.881  19.314  0.00  0.00    -0.033 A 
ATOM     19  C   UNL     1      13.586   7.476  19.139  0.00  0.00    +0.006 A 
ATOM     20  C   UNL     1      11.602   8.563  18.293  0.00  0.00    +0.006 A 
ATOM     21  C   UNL     1      14.249   7.753  17.944  0.00  0.00    +0.020 A 
ATOM     22  C   UNL     1      12.264   8.841  17.097  0.00  0.00    +0.020 A 
ATOM     23  C   UNL     1      13.588   8.436  16.922  0.00  0.00    +0.041 A 
ENDBRANCH  12  15
ENDBRANCH   5  12
ENDBRANCH   6   5
TORSDOF 7
ENDMDL
MODEL 5
REMARK VINA RESULT:      -6.3      2.201      2.962
REMARK  Name = 75536102
REMARK  8 active torsions:
REMARK  status: ('A' for Active; 'I' for Inactive)
REMARK    1  A    between atoms: O_2  and  C_8
REMARK    2  A    between atoms: O_3  and  C_10
REMARK    3  A    between atoms: O_4  and  C_18
REMARK    4  A    between atoms: O_4  and  C_24
REMARK    5  A    between atoms: N_5  and  C_6
REMARK    6  A    between atoms: N_5  and  C_12
REMARK    7  A    between atoms: C_7  and  C_11
REMARK    8  A    between atoms: C_12  and  C_15
REMARK                            x       y       z     vdW  Elec       q    Type
REMARK                         _______ _______ _______ _____ _____    ______ ____
ROOT
ATOM      6  C   UNL     1      13.390   8.258  19.800  0.00  0.00    +0.092 C 
ATOM      7  C   UNL     1      13.504   8.343  21.338  0.00  0.00    +0.041 C 
ATOM      8  C   UNL     1      12.615   6.959  19.580  0.00  0.00    +0.160 C 
ATOM      9  C   UNL     1      12.296   7.538  21.888  0.00  0.00    +0.043 C 
ATOM     10  C   UNL     1      11.541   7.023  20.661  0.00  0.00    +0.145 C 
ENDROOT
BRANCH   7  11
ATOM     11  C   UNL     1      13.587   9.765  21.852  0.00  0.00    -0.042 A 
ATOM     13  C   UNL     1      12.616  10.697  21.487  0.00  0.00    +0.007 A 
ATOM     14  C   UNL     1      14.635  10.142  22.692  0.00  0.00    +0.007 A 
ATOM     16  C   UNL     1      12.693  12.007  21.961  0.00  0.00    +0.046 A 
ATOM     17  C   UNL     1      14.712  11.451  23.166  0.00  0.00    +0.046 A 
ATOM     18  C   UNL     1      13.741  12.384  22.801  0.00  0.00    +0.120 A 
BRANCH  18   4
ATOM      4  O   UNL     1      13.815  13.661  23.265  0.00  0.00    -0.495 OA
ATOM     24  C   UNL     1      14.136  13.832  24.645  0.00  0.00    +0.277 C 
ENDBRANCH  18   4
ENDBRANCH   7  11
BRANCH   8   2
ATOM      2  O   UNL     1      12.059   6.897  18.280  0.00  0.00    -0.388 OA
ATOM     26  H   UNL     1      11.209   7.369  18.305  0.00  0.00    +0.210 HD
ENDBRANCH   8   2
BRANCH  10   3
ATOM      3  O   UNL     1      10.531   7.959  20.296  0.00  0.00    -0.389 OA
ATOM     27  H   UNL     1       9.869   7.965  21.008  0.00  0.00    +0.210 HD
ENDBRANCH  10   3
BRANCH   6   5
ATOM      5  N   UNL     1      14.698   8.223  19.154  0.00  0.00    -0.306 NA
ATOM     25  H   UNL     1      14.585   8.434  18.161  0.00  0.00    +0.123 HD
BRANCH   5  12
ATOM     12  C   UNL     1      15.305   6.906  19.282  0.00  0.00    +0.116 C 
BRANCH  12  15
ATOM      1 CL   UNL     1      20.755   7.190  21.815  0.00  0.00    -0.084 Cl
ATOM     15  C   UNL     1      16.669   6.977  19.915  0.00  0.00    -0.033 A 
ATOM     19  C   UNL     1      16.984   8.027  20.777  0.00  0.00    +0.006 A 
ATOM     20  C   UNL     1      17.618   5.992  19.640  0.00  0.00    +0.006 A 
ATOM     21  C   UNL     1      18.247   8.094  21.364  0.00  0.00    +0.020 A 
ATOM     22  C   UNL     1      18.882   6.059  20.227  0.00  0.00    +0.020 A 
ATOM     23  C   UNL     1      19.197   7.109  21.089  0.00  0.00    +0.041 A 
ENDBRANCH  12  15
ENDBRANCH   5  12
ENDBRANCH   6   5
TORSDOF 7
ENDMDL
MODEL 6
REMARK VINA RESULT:      -6.3     16.518     18.137
REMARK  Name = 75536102
REMARK  8 active torsions:
REMARK  status: ('A' for Active; 'I' for Inactive)
REMARK    1  A    between atoms: O_2  and  C_8
REMARK    2  A    between atoms: O_3  and  C_10
REMARK    3  A    between atoms: O_4  and  C_18
REMARK    4  A    between atoms: O_4  and  C_24
REMARK    5  A    between atoms: N_5  and  C_6
REMARK    6  A    between atoms: N_5  and  C_12
REMARK    7  A    between atoms: C_7  and  C_11
REMARK    8  A    between atoms: C_12  and  C_15
REMARK                            x       y       z     vdW  Elec       q    Type
REMARK                         _______ _______ _______ _____ _____    ______ ____
ROOT
ATOM      6  C   UNL     1      11.330   6.353   5.486  0.00  0.00    +0.092 C 
ATOM      7  C   UNL     1      10.022   6.403   4.667  0.00  0.00    +0.041 C 
ATOM      8  C   UNL     1      10.833   6.281   6.931  0.00  0.00    +0.160 C 
ATOM      9  C   UNL     1       8.951   5.711   5.553  0.00  0.00    +0.043 C 
ATOM     10  C   UNL     1       9.674   5.295   6.836  0.00  0.00    +0.145 C 
ENDROOT
BRANCH   7  11
ATOM     11  C   UNL     1      10.162   5.805   3.283  0.00  0.00    -0.042 A 
ATOM     13  C   UNL     1      10.658   4.512   3.129  0.00  0.00    +0.007 A 
ATOM     14  C   UNL     1       9.793   6.548   2.162  0.00  0.00    +0.007 A 
ATOM     16  C   UNL     1      10.787   3.961   1.853  0.00  0.00    +0.046 A 
ATOM     17  C   UNL     1       9.922   5.998   0.887  0.00  0.00    +0.046 A 
ATOM     18  C   UNL     1      10.419   4.704   0.733  0.00  0.00    +0.120 A 
BRANCH  18   4
ATOM      4  O   UNL     1      10.543   4.166  -0.511  0.00  0.00    -0.495 OA
ATOM     24  C   UNL     1      11.830   3.670  -0.879  0.00  0.00    +0.277 C 
ENDBRANCH  18   4
ENDBRANCH   7  11
BRANCH   8   2
ATOM      2  O   UNL     1      11.847   5.828   7.809  0.00  0.00    -0.388 OA
ATOM     26  H   UNL     1      12.666   5.750   7.292  0.00  0.00    +0.210 HD
ENDBRANCH   8   2
BRANCH  10   3
ATOM      3  O   UNL     1      10.168   3.966   6.695  0.00  0.00    -0.389 OA
ATOM     27  H   UNL     1       9.402   3.367   6.718  0.00  0.00    +0.210 HD
ENDBRANCH  10   3
BRANCH   6   5
ATOM      5  N   UNL     1      12.164   7.529   5.260  0.00  0.00    -0.306 NA
ATOM     25  H   UNL     1      11.689   8.154   4.608  0.00  0.00    +0.123 HD
BRANCH   5  12
ATOM     12  C   UNL     1      13.450   7.151   4.688  0.00  0.00    +0.116 C 
BRANCH  12  15
ATOM      1 CL   UNL     1      13.333   7.227  -1.327  0.00  0.00    -0.084 Cl
ATOM     15  C   UNL     1      13.421   7.171   3.183  0.00  0.00    -0.033 A 
ATOM     19  C   UNL     1      13.882   6.070   2.463  0.00  0.00    +0.006 A 
ATOM     20  C   UNL     1      12.932   8.290   2.509  0.00  0.00    +0.006 A 
ATOM     21  C   UNL     1      13.856   6.087   1.069  0.00  0.00    +0.020 A 
ATOM     22  C   UNL     1      12.907   8.308   1.115  0.00  0.00    +0.020 A 
ATOM     23  C   UNL     1      13.368   7.207   0.394  0.00  0.00    +0.041 A 
ENDBRANCH  12  15
ENDBRANCH   5  12
ENDBRANCH   6   5
TORSDOF 7
ENDMDL
MODEL 7
REMARK VINA RESULT:      -6.3     26.342     28.865
REMARK  Name = 75536102
REMARK  8 active torsions:
REMARK  status: ('A' for Active; 'I' for Inactive)
REMARK    1  A    between atoms: O_2  and  C_8
REMARK    2  A    between atoms: O_3  and  C_10
REMARK    3  A    between atoms: O_4  and  C_18
REMARK    4  A    between atoms: O_4  and  C_24
REMARK    5  A    between atoms: N_5  and  C_6
REMARK    6  A    between atoms: N_5  and  C_12
REMARK    7  A    between atoms: C_7  and  C_11
REMARK    8  A    between atoms: C_12  and  C_15
REMARK                            x       y       z     vdW  Elec       q    Type
REMARK                         _______ _______ _______ _____ _____    ______ ____
ROOT
ATOM      6  C   UNL     1      -3.041 -10.909  14.534  0.00  0.00    +0.092 C 
ATOM      7  C   UNL     1      -4.493 -10.380  14.524  0.00  0.00    +0.041 C 
ATOM      8  C   UNL     1      -2.557 -10.568  15.944  0.00  0.00    +0.160 C 
ATOM      9  C   UNL     1      -4.952 -10.399  16.008  0.00  0.00    +0.043 C 
ATOM     10  C   UNL     1      -3.761 -10.930  16.807  0.00  0.00    +0.145 C 
ENDROOT
BRANCH   7  11
ATOM     11  C   UNL     1      -5.400 -11.146  13.585  0.00  0.00    -0.042 A 
ATOM     13  C   UNL     1      -5.444 -12.538  13.637  0.00  0.00    +0.007 A 
ATOM     14  C   UNL     1      -6.193 -10.457  12.666  0.00  0.00    +0.007 A 
ATOM     16  C   UNL     1      -6.280 -13.243  12.771  0.00  0.00    +0.046 A 
ATOM     17  C   UNL     1      -7.029 -11.162  11.800  0.00  0.00    +0.046 A 
ATOM     18  C   UNL     1      -7.072 -12.556  11.853  0.00  0.00    +0.120 A 
BRANCH  18   4
ATOM      4  O   UNL     1      -7.889 -13.243  11.010  0.00  0.00    -0.495 OA
ATOM     24  C   UNL     1      -7.262 -14.061  10.021  0.00  0.00    +0.277 C 
ENDBRANCH  18   4
ENDBRANCH   7  11
BRANCH   8   2
ATOM      2  O   UNL     1      -1.406 -11.313  16.295  0.00  0.00    -0.388 OA
ATOM     26  H   UNL     1      -1.369 -12.085  15.705  0.00  0.00    +0.210 HD
ENDBRANCH   8   2
BRANCH  10   3
ATOM      3  O   UNL     1      -3.866 -12.346  16.935  0.00  0.00    -0.389 OA
ATOM     27  H   UNL     1      -3.379 -12.742  16.193  0.00  0.00    +0.210 HD
ENDBRANCH  10   3
BRANCH   6   5
ATOM      5  N   UNL     1      -2.218 -10.273  13.511  0.00  0.00    -0.306 NA
ATOM     25  H   UNL     1      -2.714  -9.460  13.143  0.00  0.00    +0.123 HD
BRANCH   5  12
ATOM     12  C   UNL     1      -1.953 -11.192  12.413  0.00  0.00    +0.116 C 
BRANCH  12  15
ATOM      1 CL   UNL     1      -5.328  -9.952   7.590  0.00  0.00    -0.084 Cl
ATOM     15  C   UNL     1      -2.798 -10.882  11.207  0.00  0.00    -0.033 A 
ATOM     19  C   UNL     1      -2.920  -9.567  10.760  0.00  0.00    +0.006 A 
ATOM     20  C   UNL     1      -3.459 -11.911  10.535  0.00  0.00    +0.006 A 
ATOM     21  C   UNL     1      -3.703  -9.279   9.642  0.00  0.00    +0.020 A 
ATOM     22  C   UNL     1      -4.243 -11.623   9.417  0.00  0.00    +0.020 A 
ATOM     23  C   UNL     1      -4.364 -10.307   8.970  0.00  0.00    +0.041 A 
ENDBRANCH  12  15
ENDBRANCH   5  12
ENDBRANCH   6   5
TORSDOF 7
ENDMDL
MODEL 8
REMARK VINA RESULT:      -6.1     18.551     21.286
REMARK  Name = 75536102
REMARK  8 active torsions:
REMARK  status: ('A' for Active; 'I' for Inactive)
REMARK    1  A    between atoms: O_2  and  C_8
REMARK    2  A    between atoms: O_3  and  C_10
REMARK    3  A    between atoms: O_4  and  C_18
REMARK    4  A    between atoms: O_4  and  C_24
REMARK    5  A    between atoms: N_5  and  C_6
REMARK    6  A    between atoms: N_5  and  C_12
REMARK    7  A    between atoms: C_7  and  C_11
REMARK    8  A    between atoms: C_12  and  C_15
REMARK                            x       y       z     vdW  Elec       q    Type
REMARK                         _______ _______ _______ _____ _____    ______ ____
ROOT
ATOM      6  C   UNL     1       7.970  -5.571  34.181  0.00  0.00    +0.092 C 
ATOM      7  C   UNL     1       9.174  -6.497  34.465  0.00  0.00    +0.041 C 
ATOM      8  C   UNL     1       7.489  -5.187  35.580  0.00  0.00    +0.160 C 
ATOM      9  C   UNL     1       9.705  -6.070  35.861  0.00  0.00    +0.043 C 
ATOM     10  C   UNL     1       8.796  -4.930  36.324  0.00  0.00    +0.145 C 
ENDROOT
BRANCH   7  11
ATOM     11  C   UNL     1      10.219  -6.470  33.370  0.00  0.00    -0.042 A 
ATOM     13  C   UNL     1      11.005  -5.334  33.183  0.00  0.00    +0.007 A 
ATOM     14  C   UNL     1      10.396  -7.583  32.548  0.00  0.00    +0.007 A 
ATOM     16  C   UNL     1      11.968  -5.309  32.174  0.00  0.00    +0.046 A 
ATOM     17  C   UNL     1      11.358  -7.559  31.538  0.00  0.00    +0.046 A 
ATOM     18  C   UNL     1      12.144  -6.421  31.351  0.00  0.00    +0.120 A 
BRANCH  18   4
ATOM      4  O   UNL     1      13.084  -6.398  30.368  0.00  0.00    -0.495 OA
ATOM     24  C   UNL     1      14.272  -5.648  30.623  0.00  0.00    +0.277 C 
ENDBRANCH  18   4
ENDBRANCH   7  11
BRANCH   8   2
ATOM      2  O   UNL     1       6.660  -4.040  35.551  0.00  0.00    -0.388 OA
ATOM     26  H   UNL     1       7.025  -3.401  36.186  0.00  0.00    +0.210 HD
ENDBRANCH   8   2
BRANCH  10   3
ATOM      3  O   UNL     1       9.355  -3.682  35.920  0.00  0.00    -0.389 OA
ATOM     27  H   UNL     1       8.648  -3.017  35.973  0.00  0.00    +0.210 HD
ENDBRANCH  10   3
BRANCH   6   5
ATOM      5  N   UNL     1       6.927  -6.247  33.418  0.00  0.00    -0.306 NA
ATOM     25  H   UNL     1       6.064  -5.704  33.479  0.00  0.00    +0.123 HD
BRANCH   5  12
ATOM     12  C   UNL     1       6.674  -7.579  33.950  0.00  0.00    +0.116 C 
BRANCH  12  15
ATOM      1 CL   UNL     1       7.008 -11.798  29.674  0.00  0.00    -0.084 Cl
ATOM     15  C   UNL     1       6.757  -8.635  32.881  0.00  0.00    -0.033 A 
ATOM     19  C   UNL     1       6.799  -8.264  31.537  0.00  0.00    +0.006 A 
ATOM     20  C   UNL     1       6.792  -9.984  33.233  0.00  0.00    +0.006 A 
ATOM     21  C   UNL     1       6.876  -9.241  30.545  0.00  0.00    +0.020 A 
ATOM     22  C   UNL     1       6.868 -10.962  32.241  0.00  0.00    +0.020 A 
ATOM     23  C   UNL     1       6.910 -10.591  30.897  0.00  0.00    +0.041 A 
ENDBRANCH  12  15
ENDBRANCH   5  12
ENDBRANCH   6   5
TORSDOF 7
ENDMDL
MODEL 9
REMARK VINA RESULT:      -6.0     27.183     28.502
REMARK  Name = 75536102
REMARK  8 active torsions:
REMARK  status: ('A' for Active; 'I' for Inactive)
REMARK    1  A    between atoms: O_2  and  C_8
REMARK    2  A    between atoms: O_3  and  C_10
REMARK    3  A    between atoms: O_4  and  C_18
REMARK    4  A    between atoms: O_4  and  C_24
REMARK    5  A    between atoms: N_5  and  C_6
REMARK    6  A    between atoms: N_5  and  C_12
REMARK    7  A    between atoms: C_7  and  C_11
REMARK    8  A    between atoms: C_12  and  C_15
REMARK                            x       y       z     vdW  Elec       q    Type
REMARK                         _______ _______ _______ _____ _____    ______ ____
ROOT
ATOM      6  C   UNL     1      -4.983  -9.976  11.562  0.00  0.00    +0.092 C 
ATOM      7  C   UNL     1      -3.464  -9.944  11.845  0.00  0.00    +0.041 C 
ATOM      8  C   UNL     1      -5.141  -8.994  10.401  0.00  0.00    +0.160 C 
ATOM      9  C   UNL     1      -2.801  -9.526  10.504  0.00  0.00    +0.043 C 
ATOM     10  C   UNL     1      -3.949  -9.333   9.511  0.00  0.00    +0.145 C 
ENDROOT
BRANCH   7  11
ATOM     11  C   UNL     1      -2.937 -11.242  12.419  0.00  0.00    -0.042 A 
ATOM     13  C   UNL     1      -3.184 -12.446  11.762  0.00  0.00    +0.007 A 
ATOM     14  C   UNL     1      -2.202 -11.232  13.605  0.00  0.00    +0.007 A 
ATOM     16  C   UNL     1      -2.698 -13.642  12.292  0.00  0.00    +0.046 A 
ATOM     17  C   UNL     1      -1.716 -12.427  14.134  0.00  0.00    +0.046 A 
ATOM     18  C   UNL     1      -1.964 -13.633  13.477  0.00  0.00    +0.120 A 
BRANCH  18   4
ATOM      4  O   UNL     1      -1.488 -14.798  13.993  0.00  0.00    -0.495 OA
ATOM     24  C   UNL     1      -0.446 -15.451  13.268  0.00  0.00    +0.277 C 
ENDBRANCH  18   4
ENDBRANCH   7  11
BRANCH   8   2
ATOM      2  O   UNL     1      -6.374  -9.173   9.729  0.00  0.00    -0.388 OA
ATOM     26  H   UNL     1      -6.782  -8.296   9.631  0.00  0.00    +0.210 HD
ENDBRANCH   8   2
BRANCH  10   3
ATOM      3  O   UNL     1      -4.186 -10.554   8.815  0.00  0.00    -0.389 OA
ATOM     27  H   UNL     1      -3.321 -10.963   8.644  0.00  0.00    +0.210 HD
ENDBRANCH  10   3
BRANCH   6   5
ATOM      5  N   UNL     1      -5.766  -9.571  12.723  0.00  0.00    -0.306 NA
ATOM     25  H   UNL     1      -5.154  -9.098  13.390  0.00  0.00    +0.123 HD
BRANCH   5  12
ATOM     12  C   UNL     1      -6.360 -10.728  13.379  0.00  0.00    +0.116 C 
BRANCH  12  15
ATOM      1 CL   UNL     1      -3.822 -11.826  18.721  0.00  0.00    -0.084 Cl
ATOM     15  C   UNL     1      -5.726 -11.002  14.716  0.00  0.00    -0.033 A 
ATOM     19  C   UNL     1      -5.412 -12.311  15.083  0.00  0.00    +0.006 A 
ATOM     20  C   UNL     1      -5.452  -9.948  15.587  0.00  0.00    +0.006 A 
ATOM     21  C   UNL     1      -4.824 -12.566  16.321  0.00  0.00    +0.020 A 
ATOM     22  C   UNL     1      -4.864 -10.203  16.826  0.00  0.00    +0.020 A 
ATOM     23  C   UNL     1      -4.550 -11.512  17.194  0.00  0.00    +0.041 A 
ENDBRANCH  12  15
ENDBRANCH   5  12
ENDBRANCH   6   5
TORSDOF 7
ENDMDL
MODEL 10
REMARK VINA RESULT:      -6.0     14.728     16.173
REMARK  Name = 75536102
REMARK  8 active torsions:
REMARK  status: ('A' for Active; 'I' for Inactive)
REMARK    1  A    between atoms: O_2  and  C_8
REMARK    2  A    between atoms: O_3  and  C_10
REMARK    3  A    between atoms: O_4  and  C_18
REMARK    4  A    between atoms: O_4  and  C_24
REMARK    5  A    between atoms: N_5  and  C_6
REMARK    6  A    between atoms: N_5  and  C_12
REMARK    7  A    between atoms: C_7  and  C_11
REMARK    8  A    between atoms: C_12  and  C_15
REMARK                            x       y       z     vdW  Elec       q    Type
REMARK                         _______ _______ _______ _____ _____    ______ ____
ROOT
ATOM      6  C   UNL     1      10.083   6.251   5.544  0.00  0.00    +0.092 C 
ATOM      7  C   UNL     1      11.086   6.414   6.707  0.00  0.00    +0.041 C 
ATOM      8  C   UNL     1       8.731   6.200   6.256  0.00  0.00    +0.160 C 
ATOM      9  C   UNL     1      10.287   7.092   7.852  0.00  0.00    +0.043 C 
ATOM     10  C   UNL     1       8.869   7.290   7.314  0.00  0.00    +0.145 C 
ENDROOT
BRANCH   7  11
ATOM     11  C   UNL     1      12.346   7.153   6.309  0.00  0.00    -0.042 A 
ATOM     13  C   UNL     1      12.281   8.196   5.386  0.00  0.00    +0.007 A 
ATOM     14  C   UNL     1      13.572   6.790   6.866  0.00  0.00    +0.007 A 
ATOM     16  C   UNL     1      13.442   8.877   5.019  0.00  0.00    +0.046 A 
ATOM     17  C   UNL     1      14.733   7.471   6.499  0.00  0.00    +0.046 A 
ATOM     18  C   UNL     1      14.668   8.514   5.575  0.00  0.00    +0.120 A 
BRANCH  18   4
ATOM      4  O   UNL     1      15.800   9.179   5.219  0.00  0.00    -0.495 OA
ATOM     24  C   UNL     1      17.018   8.767   5.839  0.00  0.00    +0.277 C 
ENDBRANCH  18   4
ENDBRANCH   7  11
BRANCH   8   2
ATOM      2  O   UNL     1       7.661   6.456   5.365  0.00  0.00    -0.388 OA
ATOM     26  H   UNL     1       7.979   6.262   4.467  0.00  0.00    +0.210 HD
ENDBRANCH   8   2
BRANCH  10   3
ATOM      3  O   UNL     1       8.764   8.577   6.711  0.00  0.00    -0.389 OA
ATOM     27  H   UNL     1       8.170   9.111   7.266  0.00  0.00    +0.210 HD
ENDBRANCH  10   3
BRANCH   6   5
ATOM      5  N   UNL     1      10.332   5.040   4.770  0.00  0.00    -0.306 NA
ATOM     25  H   UNL     1      11.245   4.662   5.026  0.00  0.00    +0.123 HD
BRANCH   5  12
ATOM     12  C   UNL     1      10.333   5.327   3.342  0.00  0.00    +0.116 C 
BRANCH  12  15
ATOM      1 CL   UNL     1      15.530   3.765   0.744  0.00  0.00    -0.084 Cl
ATOM     15  C   UNL     1      11.634   4.937   2.692  0.00  0.00    -0.033 A 
ATOM     19  C   UNL     1      11.818   3.635   2.228  0.00  0.00    +0.006 A 
ATOM     20  C   UNL     1      12.654   5.877   2.554  0.00  0.00    +0.006 A 
ATOM     21  C   UNL     1      13.022   3.272   1.627  0.00  0.00    +0.020 A 
ATOM     22  C   UNL     1      13.860   5.515   1.953  0.00  0.00    +0.020 A 
ATOM     23  C   UNL     1      14.044   4.212   1.489  0.00  0.00    +0.041 A 
ENDBRANCH  12  15
ENDBRANCH   5  12
ENDBRANCH   6   5
TORSDOF 7
ENDMDL
