MODEL 1
REMARK VINA RESULT:      -7.0      0.000      0.000
REMARK  Name = 51137785
REMARK  5 active torsions:
REMARK  status: ('A' for Active; 'I' for Inactive)
REMARK    1  A    between atoms: O_3  and  C_25
REMARK    2  A    between atoms: O_3  and  C_26
REMARK    3  A    between atoms: C_7  and  C_11
REMARK    4  A    between atoms: C_12  and  C_13
REMARK    5  A    between atoms: C_14  and  C_17
REMARK                            x       y       z     vdW  Elec       q    Type
REMARK                         _______ _______ _______ _____ _____    ______ ____
ROOT
ATOM      2  O   UNL     1      -6.012 -12.681  11.548  0.00  0.00    -0.270 OA
ATOM      4  N   UNL     1      -3.782 -12.469  12.160  0.00  0.00    -0.297 N 
ATOM      7  C   UNL     1      -1.744 -12.381  13.385  0.00  0.00    +0.095 C 
ATOM      8  C   UNL     1      -2.278 -13.822  13.374  0.00  0.00    +0.033 C 
ATOM      9  C   UNL     1      -2.507 -11.750  12.213  0.00  0.00    +0.121 C 
ATOM     10  C   UNL     1      -3.742 -13.666  12.985  0.00  0.00    +0.109 C 
ATOM     12  C   UNL     1      -4.939 -12.081  11.504  0.00  0.00    +0.247 C 
ENDROOT
BRANCH  12  13
ATOM     13  C   UNL     1      -4.887 -10.847  10.705  0.00  0.00    +0.037 A 
ATOM     15  C   UNL     1      -4.532 -10.902   9.357  0.00  0.00    +0.013 A 
ATOM     16  C   UNL     1      -5.191  -9.620  11.297  0.00  0.00    +0.013 A 
ATOM     18  C   UNL     1      -4.481  -9.731   8.601  0.00  0.00    +0.001 A 
ATOM     19  C   UNL     1      -5.140  -8.449  10.540  0.00  0.00    +0.001 A 
ATOM     22  C   UNL     1      -4.786  -8.504   9.192  0.00  0.00    +0.000 A 
ENDBRANCH  12  13
BRANCH   7  11
ATOM      1  O   UNL     1      -3.153 -11.834  15.319  0.00  0.00    -0.420 OA
ATOM      5  N   UNL     1      -1.062 -11.055  15.470  0.00  0.00    -0.112 NA
ATOM      6  N   UNL     1      -1.740 -10.680  16.614  0.00  0.00    -0.107 NA
ATOM     11  C   UNL     1      -1.925 -11.727  14.744  0.00  0.00    +0.222 A 
ATOM     14  C   UNL     1      -2.957 -11.156  16.483  0.00  0.00    +0.248 A 
BRANCH  14  17
ATOM     17  C   UNL     1      -4.089 -11.073  17.360  0.00  0.00    +0.039 A 
ATOM     20  C   UNL     1      -4.062 -11.719  18.596  0.00  0.00    +0.017 A 
ATOM     21  C   UNL     1      -5.216 -10.348  16.977  0.00  0.00    +0.017 A 
ATOM     23  C   UNL     1      -5.162 -11.638  19.450  0.00  0.00    +0.046 A 
ATOM     24  C   UNL     1      -6.318 -10.268  17.829  0.00  0.00    +0.046 A 
ATOM     25  C   UNL     1      -6.290 -10.912  19.066  0.00  0.00    +0.120 A 
BRANCH  25   3
ATOM      3  O   UNL     1      -7.364 -10.832  19.899  0.00  0.00    -0.495 OA
ATOM     26  C   UNL     1      -8.649 -11.059  19.323  0.00  0.00    +0.277 C 
ENDBRANCH  25   3
ENDBRANCH  14  17
ENDBRANCH   7  11
TORSDOF 4
ENDMDL
MODEL 2
REMARK VINA RESULT:      -6.9     28.292     30.236
REMARK  Name = 51137785
REMARK  5 active torsions:
REMARK  status: ('A' for Active; 'I' for Inactive)
REMARK    1  A    between atoms: O_3  and  C_25
REMARK    2  A    between atoms: O_3  and  C_26
REMARK    3  A    between atoms: C_7  and  C_11
REMARK    4  A    between atoms: C_12  and  C_13
REMARK    5  A    between atoms: C_14  and  C_17
REMARK                            x       y       z     vdW  Elec       q    Type
REMARK                         _______ _______ _______ _____ _____    ______ ____
ROOT
ATOM      2  O   UNL     1      22.079   4.209  23.903  0.00  0.00    -0.270 OA
ATOM      4  N   UNL     1      21.467   5.804  22.330  0.00  0.00    -0.297 N 
ATOM      7  C   UNL     1      20.235   7.234  20.882  0.00  0.00    +0.095 C 
ATOM      8  C   UNL     1      19.981   7.637  22.343  0.00  0.00    +0.033 C 
ATOM      9  C   UNL     1      21.524   6.410  20.998  0.00  0.00    +0.121 C 
ATOM     10  C   UNL     1      20.427   6.418  23.140  0.00  0.00    +0.109 C 
ATOM     12  C   UNL     1      22.212   4.734  22.799  0.00  0.00    +0.247 C 
ENDROOT
BRANCH  12  13
ATOM     13  C   UNL     1      23.232   4.169  21.901  0.00  0.00    +0.037 A 
ATOM     15  C   UNL     1      24.403   4.880  21.639  0.00  0.00    +0.013 A 
ATOM     16  C   UNL     1      23.026   2.922  21.310  0.00  0.00    +0.013 A 
ATOM     18  C   UNL     1      25.368   4.345  20.785  0.00  0.00    +0.001 A 
ATOM     19  C   UNL     1      23.992   2.387  20.457  0.00  0.00    +0.001 A 
ATOM     22  C   UNL     1      25.163   3.098  20.195  0.00  0.00    +0.000 A 
ENDBRANCH  12  13
BRANCH   7  11
ATOM      1  O   UNL     1      17.839   7.182  20.351  0.00  0.00    -0.420 OA
ATOM      5  N   UNL     1      18.957   5.365  19.681  0.00  0.00    -0.112 NA
ATOM      6  N   UNL     1      17.632   5.206  19.322  0.00  0.00    -0.107 NA
ATOM     11  C   UNL     1      19.032   6.532  20.278  0.00  0.00    +0.222 A 
ATOM     14  C   UNL     1      17.016   6.291  19.734  0.00  0.00    +0.248 A 
BRANCH  14  17
ATOM     17  C   UNL     1      15.637   6.673  19.634  0.00  0.00    +0.039 A 
ATOM     20  C   UNL     1      14.807   6.585  20.751  0.00  0.00    +0.017 A 
ATOM     21  C   UNL     1      15.127   7.133  18.421  0.00  0.00    +0.017 A 
ATOM     23  C   UNL     1      13.466   6.957  20.656  0.00  0.00    +0.046 A 
ATOM     24  C   UNL     1      13.785   7.505  18.324  0.00  0.00    +0.046 A 
ATOM     25  C   UNL     1      12.955   7.418  19.442  0.00  0.00    +0.120 A 
BRANCH  25   3
ATOM      3  O   UNL     1      11.648   7.783  19.349  0.00  0.00    -0.495 OA
ATOM     26  C   UNL     1      11.103   8.527  20.437  0.00  0.00    +0.277 C 
ENDBRANCH  25   3
ENDBRANCH  14  17
ENDBRANCH   7  11
TORSDOF 4
ENDMDL
MODEL 3
REMARK VINA RESULT:      -6.6      1.333      1.984
REMARK  Name = 51137785
REMARK  5 active torsions:
REMARK  status: ('A' for Active; 'I' for Inactive)
REMARK    1  A    between atoms: O_3  and  C_25
REMARK    2  A    between atoms: O_3  and  C_26
REMARK    3  A    between atoms: C_7  and  C_11
REMARK    4  A    between atoms: C_12  and  C_13
REMARK    5  A    between atoms: C_14  and  C_17
REMARK                            x       y       z     vdW  Elec       q    Type
REMARK                         _______ _______ _______ _____ _____    ______ ____
ROOT
ATOM      2  O   UNL     1      -5.044 -12.971  10.952  0.00  0.00    -0.270 OA
ATOM      4  N   UNL     1      -3.246 -11.981  12.039  0.00  0.00    -0.297 N 
ATOM      7  C   UNL     1      -1.646 -11.306  13.666  0.00  0.00    +0.095 C 
ATOM      8  C   UNL     1      -1.474 -12.803  13.362  0.00  0.00    +0.033 C 
ATOM      9  C   UNL     1      -2.446 -10.825  12.448  0.00  0.00    +0.121 C 
ATOM     10  C   UNL     1      -2.787 -13.194  12.698  0.00  0.00    +0.109 C 
ATOM     12  C   UNL     1      -4.356 -11.984  11.210  0.00  0.00    +0.247 C 
ENDROOT
BRANCH  12  13
ATOM     13  C   UNL     1      -4.754 -10.705  10.600  0.00  0.00    +0.037 A 
ATOM     15  C   UNL     1      -5.788  -9.956  11.161  0.00  0.00    +0.013 A 
ATOM     16  C   UNL     1      -4.095 -10.243   9.460  0.00  0.00    +0.013 A 
ATOM     18  C   UNL     1      -6.166  -8.745  10.581  0.00  0.00    +0.001 A 
ATOM     19  C   UNL     1      -4.473  -9.031   8.881  0.00  0.00    +0.001 A 
ATOM     22  C   UNL     1      -5.508  -8.282   9.441  0.00  0.00    +0.000 A 
ENDBRANCH  12  13
BRANCH   7  11
ATOM      1  O   UNL     1      -3.609 -10.794  15.047  0.00  0.00    -0.420 OA
ATOM      5  N   UNL     1      -1.732 -11.114  16.220  0.00  0.00    -0.112 NA
ATOM      6  N   UNL     1      -2.750 -10.837  17.112  0.00  0.00    -0.107 NA
ATOM     11  C   UNL     1      -2.279 -11.079  15.027  0.00  0.00    +0.222 A 
ATOM     14  C   UNL     1      -3.828 -10.657  16.383  0.00  0.00    +0.248 A 
BRANCH  14  17
ATOM     17  C   UNL     1      -5.173 -10.345  16.771  0.00  0.00    +0.039 A 
ATOM     20  C   UNL     1      -6.056  -9.795  15.842  0.00  0.00    +0.017 A 
ATOM     21  C   UNL     1      -5.598 -10.590  18.075  0.00  0.00    +0.017 A 
ATOM     23  C   UNL     1      -7.365  -9.491  16.217  0.00  0.00    +0.046 A 
ATOM     24  C   UNL     1      -6.906 -10.285  18.453  0.00  0.00    +0.046 A 
ATOM     25  C   UNL     1      -7.790  -9.736  17.523  0.00  0.00    +0.120 A 
BRANCH  25   3
ATOM      3  O   UNL     1      -9.067  -9.442  17.890  0.00  0.00    -0.495 OA
ATOM     26  C   UNL     1      -9.644  -8.260  17.337  0.00  0.00    +0.277 C 
ENDBRANCH  25   3
ENDBRANCH  14  17
ENDBRANCH   7  11
TORSDOF 4
ENDMDL
MODEL 4
REMARK VINA RESULT:      -6.6      3.861      5.929
REMARK  Name = 51137785
REMARK  5 active torsions:
REMARK  status: ('A' for Active; 'I' for Inactive)
REMARK    1  A    between atoms: O_3  and  C_25
REMARK    2  A    between atoms: O_3  and  C_26
REMARK    3  A    between atoms: C_7  and  C_11
REMARK    4  A    between atoms: C_12  and  C_13
REMARK    5  A    between atoms: C_14  and  C_17
REMARK                            x       y       z     vdW  Elec       q    Type
REMARK                         _______ _______ _______ _____ _____    ______ ____
ROOT
ATOM      2  O   UNL     1      -4.443 -14.011  15.525  0.00  0.00    -0.270 OA
ATOM      4  N   UNL     1      -4.634 -12.201  16.967  0.00  0.00    -0.297 N 
ATOM      7  C   UNL     1      -5.331 -10.704  18.680  0.00  0.00    +0.095 C 
ATOM      8  C   UNL     1      -4.745 -11.975  19.312  0.00  0.00    +0.033 C 
ATOM      9  C   UNL     1      -4.770 -10.771  17.252  0.00  0.00    +0.121 C 
ATOM     10  C   UNL     1      -4.770 -12.992  18.180  0.00  0.00    +0.109 C 
ATOM     12  C   UNL     1      -4.480 -12.799  15.726  0.00  0.00    +0.247 C 
ENDROOT
BRANCH  12  13
ATOM     13  C   UNL     1      -4.366 -11.916  14.555  0.00  0.00    +0.037 A 
ATOM     15  C   UNL     1      -3.116 -11.444  14.155  0.00  0.00    +0.013 A 
ATOM     16  C   UNL     1      -5.510 -11.550  13.844  0.00  0.00    +0.013 A 
ATOM     18  C   UNL     1      -3.010 -10.605  13.045  0.00  0.00    +0.001 A 
ATOM     19  C   UNL     1      -5.403 -10.711  12.734  0.00  0.00    +0.001 A 
ATOM     22  C   UNL     1      -4.153 -10.239  12.334  0.00  0.00    +0.000 A 
ENDBRANCH  12  13
BRANCH   7  11
ATOM      1  O   UNL     1      -7.503  -9.767  18.024  0.00  0.00    -0.420 OA
ATOM      5  N   UNL     1      -7.635 -11.356  19.592  0.00  0.00    -0.112 NA
ATOM      6  N   UNL     1      -8.918 -10.919  19.319  0.00  0.00    -0.107 NA
ATOM     11  C   UNL     1      -6.843 -10.657  18.814  0.00  0.00    +0.222 A 
ATOM     14  C   UNL     1      -8.793  -9.992  18.398  0.00  0.00    +0.248 A 
BRANCH  14  17
ATOM     17  C   UNL     1      -9.785  -9.195  17.738  0.00  0.00    +0.039 A 
ATOM     20  C   UNL     1      -9.397  -8.138  16.914  0.00  0.00    +0.017 A 
ATOM     21  C   UNL     1     -11.139  -9.475  17.920  0.00  0.00    +0.017 A 
ATOM     23  C   UNL     1     -10.362  -7.362  16.271  0.00  0.00    +0.046 A 
ATOM     24  C   UNL     1     -12.105  -8.699  17.278  0.00  0.00    +0.046 A 
ATOM     25  C   UNL     1     -11.716  -7.643  16.454  0.00  0.00    +0.120 A 
BRANCH  25   3
ATOM      3  O   UNL     1     -12.658  -6.888  15.826  0.00  0.00    -0.495 OA
ATOM     26  C   UNL     1     -12.190  -5.868  14.946  0.00  0.00    +0.277 C 
ENDBRANCH  25   3
ENDBRANCH  14  17
ENDBRANCH   7  11
TORSDOF 4
ENDMDL
MODEL 5
REMARK VINA RESULT:      -6.5     23.720     28.264
REMARK  Name = 51137785
REMARK  5 active torsions:
REMARK  status: ('A' for Active; 'I' for Inactive)
REMARK    1  A    between atoms: O_3  and  C_25
REMARK    2  A    between atoms: O_3  and  C_26
REMARK    3  A    between atoms: C_7  and  C_11
REMARK    4  A    between atoms: C_12  and  C_13
REMARK    5  A    between atoms: C_14  and  C_17
REMARK                            x       y       z     vdW  Elec       q    Type
REMARK                         _______ _______ _______ _____ _____    ______ ____
ROOT
ATOM      2  O   UNL     1     -12.658  10.453  36.689  0.00  0.00    -0.270 OA
ATOM      4  N   UNL     1     -12.668   9.336  34.653  0.00  0.00    -0.297 N 
ATOM      7  C   UNL     1     -13.233   7.936  32.814  0.00  0.00    +0.095 C 
ATOM      8  C   UNL     1     -14.262   9.070  32.934  0.00  0.00    +0.033 C 
ATOM      9  C   UNL     1     -12.055   8.487  33.629  0.00  0.00    +0.121 C 
ATOM     10  C   UNL     1     -14.068   9.591  34.352  0.00  0.00    +0.109 C 
ATOM     12  C   UNL     1     -12.082   9.801  35.819  0.00  0.00    +0.247 C 
ENDROOT
BRANCH  12  13
ATOM     13  C   UNL     1     -10.664   9.479  36.044  0.00  0.00    +0.037 A 
ATOM     15  C   UNL     1      -9.670  10.221  35.406  0.00  0.00    +0.013 A 
ATOM     16  C   UNL     1     -10.314   8.430  36.895  0.00  0.00    +0.013 A 
ATOM     18  C   UNL     1      -8.326   9.914  35.618  0.00  0.00    +0.001 A 
ATOM     19  C   UNL     1      -8.970   8.124  37.107  0.00  0.00    +0.001 A 
ATOM     22  C   UNL     1      -7.975   8.866  36.469  0.00  0.00    +0.000 A 
ENDBRANCH  12  13
BRANCH   7  11
ATOM      1  O   UNL     1     -13.661   5.551  32.421  0.00  0.00    -0.420 OA
ATOM      5  N   UNL     1     -14.446   6.305  34.375  0.00  0.00    -0.112 NA
ATOM      6  N   UNL     1     -14.752   4.960  34.283  0.00  0.00    -0.107 NA
ATOM     11  C   UNL     1     -13.809   6.606  33.267  0.00  0.00    +0.222 A 
ATOM     14  C   UNL     1     -14.275   4.561  33.126  0.00  0.00    +0.248 A 
BRANCH  14  17
ATOM     17  C   UNL     1     -14.302   3.270  32.504  0.00  0.00    +0.039 A 
ATOM     20  C   UNL     1     -14.832   2.176  33.188  0.00  0.00    +0.017 A 
ATOM     21  C   UNL     1     -13.797   3.107  31.215  0.00  0.00    +0.017 A 
ATOM     23  C   UNL     1     -14.858   0.920  32.583  0.00  0.00    +0.046 A 
ATOM     24  C   UNL     1     -13.822   1.850  30.609  0.00  0.00    +0.046 A 
ATOM     25  C   UNL     1     -14.353   0.757  31.293  0.00  0.00    +0.120 A 
BRANCH  25   3
ATOM      3  O   UNL     1     -14.380  -0.468  30.701  0.00  0.00    -0.495 OA
ATOM     26  C   UNL     1     -13.618  -0.628  29.506  0.00  0.00    +0.277 C 
ENDBRANCH  25   3
ENDBRANCH  14  17
ENDBRANCH   7  11
TORSDOF 4
ENDMDL
MODEL 6
REMARK VINA RESULT:      -6.5     20.719     22.635
REMARK  Name = 51137785
REMARK  5 active torsions:
REMARK  status: ('A' for Active; 'I' for Inactive)
REMARK    1  A    between atoms: O_3  and  C_25
REMARK    2  A    between atoms: O_3  and  C_26
REMARK    3  A    between atoms: C_7  and  C_11
REMARK    4  A    between atoms: C_12  and  C_13
REMARK    5  A    between atoms: C_14  and  C_17
REMARK                            x       y       z     vdW  Elec       q    Type
REMARK                         _______ _______ _______ _____ _____    ______ ____
ROOT
ATOM      2  O   UNL     1     -11.102  11.850  14.640  0.00  0.00    -0.270 OA
ATOM      4  N   UNL     1     -10.361  10.441  16.331  0.00  0.00    -0.297 N 
ATOM      7  C   UNL     1     -10.231   8.803  18.053  0.00  0.00    +0.095 C 
ATOM      8  C   UNL     1     -10.486   8.115  16.703  0.00  0.00    +0.033 C 
ATOM      9  C   UNL     1      -9.706  10.177  17.614  0.00  0.00    +0.121 C 
ATOM     10  C   UNL     1     -10.991   9.239  15.808  0.00  0.00    +0.109 C 
ATOM     12  C   UNL     1     -10.478  11.660  15.683  0.00  0.00    +0.247 C 
ENDROOT
BRANCH  12  13
ATOM     13  C   UNL     1      -9.819  12.824  16.296  0.00  0.00    +0.037 A 
ATOM     15  C   UNL     1      -8.474  13.083  16.033  0.00  0.00    +0.013 A 
ATOM     16  C   UNL     1     -10.540  13.667  17.143  0.00  0.00    +0.013 A 
ATOM     18  C   UNL     1      -7.849  14.185  16.617  0.00  0.00    +0.001 A 
ATOM     19  C   UNL     1      -9.914  14.769  17.726  0.00  0.00    +0.001 A 
ATOM     22  C   UNL     1      -8.569  15.029  17.463  0.00  0.00    +0.000 A 
ENDBRANCH  12  13
BRANCH   7  11
ATOM      1  O   UNL     1     -11.832   7.607  19.478  0.00  0.00    -0.420 OA
ATOM      5  N   UNL     1     -12.276   9.786  19.244  0.00  0.00    -0.112 NA
ATOM      6  N   UNL     1     -13.246   9.239  20.063  0.00  0.00    -0.107 NA
ATOM     11  C   UNL     1     -11.473   8.798  18.927  0.00  0.00    +0.222 A 
ATOM     14  C   UNL     1     -12.947   7.965  20.172  0.00  0.00    +0.248 A 
BRANCH  14  17
ATOM     17  C   UNL     1     -13.601   6.914  20.896  0.00  0.00    +0.039 A 
ATOM     20  C   UNL     1     -14.991   6.807  20.866  0.00  0.00    +0.017 A 
ATOM     21  C   UNL     1     -12.848   5.998  21.629  0.00  0.00    +0.017 A 
ATOM     23  C   UNL     1     -15.629   5.785  21.569  0.00  0.00    +0.046 A 
ATOM     24  C   UNL     1     -13.484   4.975  22.333  0.00  0.00    +0.046 A 
ATOM     25  C   UNL     1     -14.874   4.868  22.302  0.00  0.00    +0.120 A 
BRANCH  25   3
ATOM      3  O   UNL     1     -15.495   3.869  22.987  0.00  0.00    -0.495 OA
ATOM     26  C   UNL     1     -15.572   4.005  24.404  0.00  0.00    +0.277 C 
ENDBRANCH  25   3
ENDBRANCH  14  17
ENDBRANCH   7  11
TORSDOF 4
ENDMDL
MODEL 7
REMARK VINA RESULT:      -6.4      3.816      4.878
REMARK  Name = 51137785
REMARK  5 active torsions:
REMARK  status: ('A' for Active; 'I' for Inactive)
REMARK    1  A    between atoms: O_3  and  C_25
REMARK    2  A    between atoms: O_3  and  C_26
REMARK    3  A    between atoms: C_7  and  C_11
REMARK    4  A    between atoms: C_12  and  C_13
REMARK    5  A    between atoms: C_14  and  C_17
REMARK                            x       y       z     vdW  Elec       q    Type
REMARK                         _______ _______ _______ _____ _____    ______ ____
ROOT
ATOM      2  O   UNL     1      -4.845 -13.085  12.916  0.00  0.00    -0.270 OA
ATOM      4  N   UNL     1      -4.376 -11.648  14.679  0.00  0.00    -0.297 N 
ATOM      7  C   UNL     1      -4.410 -10.488  16.757  0.00  0.00    +0.095 C 
ATOM      8  C   UNL     1      -4.002 -11.951  16.989  0.00  0.00    +0.033 C 
ATOM      9  C   UNL     1      -4.149 -10.320  15.254  0.00  0.00    +0.121 C 
ATOM     10  C   UNL     1      -4.452 -12.662  15.720  0.00  0.00    +0.109 C 
ATOM     12  C   UNL     1      -4.584 -11.963  13.346  0.00  0.00    +0.247 C 
ENDROOT
BRANCH  12  13
ATOM     13  C   UNL     1      -4.501 -10.867  12.368  0.00  0.00    +0.037 A 
ATOM     15  C   UNL     1      -5.598 -10.029  12.163  0.00  0.00    +0.013 A 
ATOM     16  C   UNL     1      -3.326 -10.668  11.643  0.00  0.00    +0.013 A 
ATOM     18  C   UNL     1      -5.519  -8.992  11.234  0.00  0.00    +0.001 A 
ATOM     19  C   UNL     1      -3.248  -9.630  10.713  0.00  0.00    +0.001 A 
ATOM     22  C   UNL     1      -4.344  -8.792  10.509  0.00  0.00    +0.000 A 
ENDBRANCH  12  13
BRANCH   7  11
ATOM      1  O   UNL     1      -6.663  -9.600  16.358  0.00  0.00    -0.420 OA
ATOM      5  N   UNL     1      -6.385 -10.492  18.389  0.00  0.00    -0.112 NA
ATOM      6  N   UNL     1      -7.686 -10.034  18.299  0.00  0.00    -0.107 NA
ATOM     11  C   UNL     1      -5.825 -10.218  17.234  0.00  0.00    +0.222 A 
ATOM     14  C   UNL     1      -7.804  -9.521  17.096  0.00  0.00    +0.248 A 
BRANCH  14  17
ATOM     17  C   UNL     1      -8.926  -8.903  16.453  0.00  0.00    +0.039 A 
ATOM     20  C   UNL     1      -9.659  -7.922  17.121  0.00  0.00    +0.017 A 
ATOM     21  C   UNL     1      -9.286  -9.282  15.161  0.00  0.00    +0.017 A 
ATOM     23  C   UNL     1     -10.751  -7.319  16.496  0.00  0.00    +0.046 A 
ATOM     24  C   UNL     1     -10.379  -8.681  14.535  0.00  0.00    +0.046 A 
ATOM     25  C   UNL     1     -11.111  -7.699  15.203  0.00  0.00    +0.120 A 
BRANCH  25   3
ATOM      3  O   UNL     1     -12.175  -7.111  14.592  0.00  0.00    -0.495 OA
ATOM     26  C   UNL     1     -12.388  -5.724  14.854  0.00  0.00    +0.277 C 
ENDBRANCH  25   3
ENDBRANCH  14  17
ENDBRANCH   7  11
TORSDOF 4
ENDMDL
MODEL 8
REMARK VINA RESULT:      -6.4      8.430     12.539
REMARK  Name = 51137785
REMARK  5 active torsions:
REMARK  status: ('A' for Active; 'I' for Inactive)
REMARK    1  A    between atoms: O_3  and  C_25
REMARK    2  A    between atoms: O_3  and  C_26
REMARK    3  A    between atoms: C_7  and  C_11
REMARK    4  A    between atoms: C_12  and  C_13
REMARK    5  A    between atoms: C_14  and  C_17
REMARK                            x       y       z     vdW  Elec       q    Type
REMARK                         _______ _______ _______ _____ _____    ______ ____
ROOT
ATOM      2  O   UNL     1     -14.840  -6.845  14.692  0.00  0.00    -0.270 OA
ATOM      4  N   UNL     1     -13.744  -5.108  13.609  0.00  0.00    -0.297 N 
ATOM      7  C   UNL     1     -13.006  -3.519  11.999  0.00  0.00    +0.095 C 
ATOM      8  C   UNL     1     -14.462  -3.220  12.389  0.00  0.00    +0.033 C 
ATOM      9  C   UNL     1     -12.539  -4.404  13.163  0.00  0.00    +0.121 C 
ATOM     10  C   UNL     1     -14.940  -4.515  13.032  0.00  0.00    +0.109 C 
ATOM     12  C   UNL     1     -13.808  -6.242  14.402  0.00  0.00    +0.247 C 
ENDROOT
BRANCH  12  13
ATOM     13  C   UNL     1     -12.543  -6.778  14.927  0.00  0.00    +0.037 A 
ATOM     15  C   UNL     1     -11.884  -7.805  14.250  0.00  0.00    +0.013 A 
ATOM     16  C   UNL     1     -12.002  -6.260  16.105  0.00  0.00    +0.013 A 
ATOM     18  C   UNL     1     -10.686  -8.314  14.750  0.00  0.00    +0.001 A 
ATOM     19  C   UNL     1     -10.803  -6.769  16.604  0.00  0.00    +0.001 A 
ATOM     22  C   UNL     1     -10.145  -7.796  15.927  0.00  0.00    +0.000 A 
ENDBRANCH  12  13
BRANCH   7  11
ATOM      1  O   UNL     1     -11.706  -4.637  10.242  0.00  0.00    -0.420 OA
ATOM      5  N   UNL     1     -13.829  -4.223   9.677  0.00  0.00    -0.112 NA
ATOM      6  N   UNL     1     -13.218  -4.849   8.607  0.00  0.00    -0.107 NA
ATOM     11  C   UNL     1     -12.910  -4.120  10.608  0.00  0.00    +0.222 A 
ATOM     14  C   UNL     1     -11.979  -5.072   8.982  0.00  0.00    +0.248 A 
BRANCH  14  17
ATOM     17  C   UNL     1     -10.891  -5.691   8.281  0.00  0.00    +0.039 A 
ATOM     20  C   UNL     1     -11.148  -6.540   7.205  0.00  0.00    +0.017 A 
ATOM     21  C   UNL     1      -9.577  -5.444   8.676  0.00  0.00    +0.017 A 
ATOM     23  C   UNL     1     -10.091  -7.143   6.523  0.00  0.00    +0.046 A 
ATOM     24  C   UNL     1      -8.519  -6.045   7.995  0.00  0.00    +0.046 A 
ATOM     25  C   UNL     1      -8.776  -6.895   6.918  0.00  0.00    +0.120 A 
BRANCH  25   3
ATOM      3  O   UNL     1      -7.743  -7.480   6.252  0.00  0.00    -0.495 OA
ATOM     26  C   UNL     1      -8.062  -8.574   5.395  0.00  0.00    +0.277 C 
ENDBRANCH  25   3
ENDBRANCH  14  17
ENDBRANCH   7  11
TORSDOF 4
ENDMDL
MODEL 9
REMARK VINA RESULT:      -6.2      2.895      5.071
REMARK  Name = 51137785
REMARK  5 active torsions:
REMARK  status: ('A' for Active; 'I' for Inactive)
REMARK    1  A    between atoms: O_3  and  C_25
REMARK    2  A    between atoms: O_3  and  C_26
REMARK    3  A    between atoms: C_7  and  C_11
REMARK    4  A    between atoms: C_12  and  C_13
REMARK    5  A    between atoms: C_14  and  C_17
REMARK                            x       y       z     vdW  Elec       q    Type
REMARK                         _______ _______ _______ _____ _____    ______ ____
ROOT
ATOM      2  O   UNL     1      -4.395 -13.882  14.326  0.00  0.00    -0.270 OA
ATOM      4  N   UNL     1      -4.352 -12.128  15.847  0.00  0.00    -0.297 N 
ATOM      7  C   UNL     1      -4.909 -10.561  17.549  0.00  0.00    +0.095 C 
ATOM      8  C   UNL     1      -4.742 -11.958  18.168  0.00  0.00    +0.033 C 
ATOM      9  C   UNL     1      -4.182 -10.718  16.207  0.00  0.00    +0.121 C 
ATOM     10  C   UNL     1      -4.847 -12.900  16.976  0.00  0.00    +0.109 C 
ATOM     12  C   UNL     1      -4.168 -12.704  14.601  0.00  0.00    +0.247 C 
ENDROOT
BRANCH  12  13
ATOM     13  C   UNL     1      -3.679 -11.839  13.516  0.00  0.00    +0.037 A 
ATOM     15  C   UNL     1      -4.581 -11.093  12.757  0.00  0.00    +0.013 A 
ATOM     16  C   UNL     1      -2.312 -11.767  13.246  0.00  0.00    +0.013 A 
ATOM     18  C   UNL     1      -4.116 -10.275  11.727  0.00  0.00    +0.001 A 
ATOM     19  C   UNL     1      -1.848 -10.948  12.216  0.00  0.00    +0.001 A 
ATOM     22  C   UNL     1      -2.749 -10.202  11.457  0.00  0.00    +0.000 A 
ENDBRANCH  12  13
BRANCH   7  11
ATOM      1  O   UNL     1      -7.214 -10.736  18.375  0.00  0.00    -0.420 OA
ATOM      5  N   UNL     1      -6.961  -9.290  16.688  0.00  0.00    -0.112 NA
ATOM      6  N   UNL     1      -8.294  -9.291  17.052  0.00  0.00    -0.107 NA
ATOM     11  C   UNL     1      -6.369 -10.147  17.486  0.00  0.00    +0.222 A 
ATOM     14  C   UNL     1      -8.396 -10.149  18.041  0.00  0.00    +0.248 A 
BRANCH  14  17
ATOM     17  C   UNL     1      -9.538 -10.556  18.807  0.00  0.00    +0.039 A 
ATOM     20  C   UNL     1     -10.696  -9.779  18.799  0.00  0.00    +0.017 A 
ATOM     21  C   UNL     1      -9.490 -11.728  19.561  0.00  0.00    +0.017 A 
ATOM     23  C   UNL     1     -11.807 -10.173  19.544  0.00  0.00    +0.046 A 
ATOM     24  C   UNL     1     -10.601 -12.123  20.307  0.00  0.00    +0.046 A 
ATOM     25  C   UNL     1     -11.760 -11.347  20.298  0.00  0.00    +0.120 A 
BRANCH  25   3
ATOM      3  O   UNL     1     -12.844 -11.734  21.024  0.00  0.00    -0.495 OA
ATOM     26  C   UNL     1     -14.128 -11.484  20.454  0.00  0.00    +0.277 C 
ENDBRANCH  25   3
ENDBRANCH  14  17
ENDBRANCH   7  11
TORSDOF 4
ENDMDL
MODEL 10
REMARK VINA RESULT:      -6.2     24.310     27.470
REMARK  Name = 51137785
REMARK  5 active torsions:
REMARK  status: ('A' for Active; 'I' for Inactive)
REMARK    1  A    between atoms: O_3  and  C_25
REMARK    2  A    between atoms: O_3  and  C_26
REMARK    3  A    between atoms: C_7  and  C_11
REMARK    4  A    between atoms: C_12  and  C_13
REMARK    5  A    between atoms: C_14  and  C_17
REMARK                            x       y       z     vdW  Elec       q    Type
REMARK                         _______ _______ _______ _____ _____    ______ ____
ROOT
ATOM      2  O   UNL     1      12.470   7.596   3.693  0.00  0.00    -0.270 OA
ATOM      4  N   UNL     1      12.025   5.480   2.844  0.00  0.00    -0.297 N 
ATOM      7  C   UNL     1      11.692   3.617   1.402  0.00  0.00    +0.095 C 
ATOM      8  C   UNL     1      13.175   4.019   1.392  0.00  0.00    +0.033 C 
ATOM      9  C   UNL     1      11.189   4.288   2.687  0.00  0.00    +0.121 C 
ATOM     10  C   UNL     1      13.174   5.435   1.952  0.00  0.00    +0.109 C 
ATOM     12  C   UNL     1      11.776   6.581   3.648  0.00  0.00    +0.247 C 
ENDROOT
BRANCH  12  13
ATOM     13  C   UNL     1      10.581   6.542   4.504  0.00  0.00    +0.037 A 
ATOM     15  C   UNL     1       9.381   7.092   4.055  0.00  0.00    +0.013 A 
ATOM     16  C   UNL     1      10.649   5.954   5.768  0.00  0.00    +0.013 A 
ATOM     18  C   UNL     1       8.248   7.056   4.869  0.00  0.00    +0.001 A 
ATOM     19  C   UNL     1       9.516   5.917   6.582  0.00  0.00    +0.001 A 
ATOM     22  C   UNL     1       8.316   6.468   6.132  0.00  0.00    +0.000 A 
ENDBRANCH  12  13
BRANCH   7  11
ATOM      1  O   UNL     1      11.451   3.439  -1.035  0.00  0.00    -0.420 OA
ATOM      5  N   UNL     1       9.998   4.845  -0.078  0.00  0.00    -0.112 NA
ATOM      6  N   UNL     1       9.754   4.840  -1.439  0.00  0.00    -0.107 NA
ATOM     11  C   UNL     1      10.995   4.013   0.112  0.00  0.00    +0.222 A 
ATOM     14  C   UNL     1      10.625   4.006  -1.957  0.00  0.00    +0.248 A 
BRANCH  14  17
ATOM     17  C   UNL     1      10.837   3.607  -3.318  0.00  0.00    +0.039 A 
ATOM     20  C   UNL     1       9.751   3.254  -4.119  0.00  0.00    +0.017 A 
ATOM     21  C   UNL     1      12.129   3.571  -3.841  0.00  0.00    +0.017 A 
ATOM     23  C   UNL     1       9.956   2.867  -5.443  0.00  0.00    +0.046 A 
ATOM     24  C   UNL     1      12.335   3.183  -5.166  0.00  0.00    +0.046 A 
ATOM     25  C   UNL     1      11.248   2.831  -5.966  0.00  0.00    +0.120 A 
BRANCH  25   3
ATOM      3  O   UNL     1      11.449   2.455  -7.259  0.00  0.00    -0.495 OA
ATOM     26  C   UNL     1      10.327   1.924  -7.961  0.00  0.00    +0.277 C 
ENDBRANCH  25   3
ENDBRANCH  14  17
ENDBRANCH   7  11
TORSDOF 4
ENDMDL
