REMARK  Name = 26761840
REMARK  4 active torsions:
REMARK  status: ('A' for Active; 'I' for Inactive)
REMARK    1  A    between atoms: O_2  and  C_17
REMARK    2  A    between atoms: O_2  and  C_19
REMARK    3  A    between atoms: N_4  and  C_7
REMARK    4  A    between atoms: C_8  and  C_17
REMARK                            x       y       z     vdW  Elec       q    Type
REMARK                         _______ _______ _______ _____ _____    ______ ____
ROOT
ATOM      4  N   UNL     1      -0.356   0.502  -0.287  0.00  0.00    -0.281 NA
ATOM      5  N   UNL     1       2.846   2.070   0.809  0.00  0.00    -0.347 N 
ATOM      6  N   UNL     1       3.770   0.764  -0.753  0.00  0.00    -0.240 NA
ATOM      8  C   UNL     1       0.270  -0.751  -0.779  0.00  0.00    +0.173 C 
ATOM     11  C   UNL     1       0.428   1.226   0.740  0.00  0.00    +0.140 C 
ATOM     12  C   UNL     1       1.680  -0.526  -1.399  0.00  0.00    +0.087 C 
ATOM     13  C   UNL     1       1.849   1.276   0.330  0.00  0.00    +0.053 A 
ATOM     14  C   UNL     1       2.440   0.482  -0.622  0.00  0.00    +0.065 A 
ATOM     18  C   UNL     1       3.985   1.725   0.124  0.00  0.00    +0.197 A 
ATOM     20  H   UNL     1       2.769   2.776   1.529  0.00  0.00    +0.167 HD
ENDROOT
BRANCH   4   7
ATOM      1  O   UNL     1      -4.541   0.829  -0.357  0.00  0.00    -0.380 OA
ATOM      7  C   UNL     1      -1.747   0.332   0.126  0.00  0.00    +0.062 C 
ATOM      9  C   UNL     1      -2.395   1.694   0.387  0.00  0.00    +0.047 C 
ATOM     10  C   UNL     1      -2.546  -0.435  -0.932  0.00  0.00    +0.047 C 
ATOM     15  C   UNL     1      -3.878   1.524   0.699  0.00  0.00    +0.161 C 
ATOM     16  C   UNL     1      -4.021  -0.487  -0.547  0.00  0.00    +0.161 C 
ENDBRANCH   4   7
BRANCH   8  17
ATOM      3  O   UNL     1      -0.033  -1.557   1.474  0.00  0.00    -0.249 OA
ATOM     17  C   UNL     1       0.344  -1.765   0.328  0.00  0.00    +0.325 C 
BRANCH  17   2
ATOM      2  O   UNL     1       0.887  -2.921  -0.148  0.00  0.00    -0.467 OA
ATOM     19  C   UNL     1       1.017  -3.979   0.808  0.00  0.00    +0.280 C 
ENDBRANCH  17   2
ENDBRANCH   8  17
TORSDOF 3
