REMARK  Name = 38028801
REMARK  9 active torsions:
REMARK  status: ('A' for Active; 'I' for Inactive)
REMARK    1  A    between atoms: N_4  and  C_15
REMARK    2  A    between atoms: C_7  and  C_11
REMARK    3  A    between atoms: C_9  and  C_15
REMARK    4  A    between atoms: C_10  and  C_14
REMARK    5  A    between atoms: C_11  and  C_16
REMARK    6  A    between atoms: C_11  and  C_17
REMARK    7  A    between atoms: C_12  and  C_19
REMARK    8  A    between atoms: C_14  and  C_18
REMARK    9  A    between atoms: C_24  and  C_25
REMARK                            x       y       z     vdW  Elec       q    Type
REMARK                         _______ _______ _______ _____ _____    ______ ____
ROOT
ATOM      7  C   UNL     1       0.133   2.291  -0.593  0.00  0.00    +0.000 C 
ATOM      8  C   UNL     1      -1.348   2.415  -0.203  0.00  0.00    +0.012 C 
ATOM      9  C   UNL     1       1.037   2.837   0.540  0.00  0.00    +0.032 C 
ATOM     10  C   UNL     1      -1.676   1.651   1.094  0.00  0.00    +0.023 C 
ATOM     12  C   UNL     1      -0.663   1.934   2.185  0.00  0.00    -0.073 C 
ATOM     13  C   UNL     1       0.539   2.477   1.920  0.00  0.00    -0.022 C 
ATOM     19  C   UNL     1      -1.082   1.621   3.594  0.00  0.00    +0.039 C 
ENDROOT
BRANCH   7  11
ATOM     11  C   UNL     1       0.383   3.015  -1.919  0.00  0.00    -0.013 C 
ATOM     16  C   UNL     1      -0.022   2.129  -3.094  0.00  0.00    +0.007 C 
ATOM     17  C   UNL     1      -0.375   4.338  -1.954  0.00  0.00    +0.007 C 
ENDBRANCH   7  11
BRANCH  10  14
ATOM     14  C   UNL     1      -1.795   0.146   0.833  0.00  0.00    +0.103 C 
BRANCH  14  18
ATOM      1  O   UNL     1      -3.887   0.757  -0.129  0.00  0.00    -0.276 OA
ATOM      3  N   UNL     1      -3.321  -1.483  -0.169  0.00  0.00    -0.301 N 
ATOM     18  C   UNL     1      -3.097  -0.152   0.134  0.00  0.00    +0.216 C 
ATOM     20  C   UNL     1      -4.533  -1.935  -0.837  0.00  0.00    +0.108 C 
ATOM     21  C   UNL     1      -2.428  -2.603   0.111  0.00  0.00    +0.108 C 
ATOM     22  C   UNL     1      -4.225  -3.364  -1.257  0.00  0.00    +0.020 C 
ATOM     23  C   UNL     1      -3.272  -3.839  -0.168  0.00  0.00    +0.020 C 
ENDBRANCH  14  18
ENDBRANCH  10  14
BRANCH   9  15
ATOM     15  C   UNL     1       2.482   2.351   0.377  0.00  0.00    +0.112 C 
BRANCH  15   4
ATOM      2  O   UNL     1       3.411   0.446  -1.560  0.00  0.00    -0.268 OA
ATOM      4  N   UNL     1       2.564   0.934   0.545  0.00  0.00    -0.309 N 
ATOM     24  C   UNL     1       3.029   0.078  -0.452  0.00  0.00    +0.264 C 
ATOM     29  H   UNL     1       2.308   0.537   1.444  0.00  0.00    +0.149 HD
BRANCH  24  25
ATOM      5  N   UNL     1       2.579  -1.719   1.092  0.00  0.00    -0.247 NA
ATOM      6  N   UNL     1       3.470  -3.629  -0.758  0.00  0.00    -0.259 NA
ATOM     25  C   UNL     1       3.027  -1.373  -0.131  0.00  0.00    +0.143 A 
ATOM     26  C   UNL     1       3.465  -2.311  -1.040  0.00  0.00    +0.143 A 
ATOM     27  C   UNL     1       2.584  -3.037   1.374  0.00  0.00    +0.131 A 
ATOM     28  C   UNL     1       3.022  -3.975   0.465  0.00  0.00    +0.130 A 
ENDBRANCH  24  25
ENDBRANCH  15   4
ENDBRANCH   9  15
TORSDOF 6
