MODEL 1
REMARK VINA RESULT:      -7.5      0.000      0.000
REMARK  Name = 7135513
REMARK  5 active torsions:
REMARK  status: ('A' for Active; 'I' for Inactive)
REMARK    1  A    between atoms: N_10  and  C_24
REMARK    2  A    between atoms: C_22  and  C_25
REMARK    3  A    between atoms: C_24  and  C_26
REMARK    4  A    between atoms: C_26  and  C_29
REMARK    5  A    between atoms: C_30  and  C_33
REMARK                            x       y       z     vdW  Elec       q    Type
REMARK                         _______ _______ _______ _____ _____    ______ ____
ROOT
ATOM      4  O   UNL     1      -9.827 -11.713  20.465  0.00  0.00    -0.273 OA
ATOM      5  O   UNL     1      -8.368 -11.973  15.391  0.00  0.00    -0.270 OA
ATOM      6  O   UNL     1     -13.030  -9.561  20.468  0.00  0.00    -0.253 OA
ATOM      7  N   UNL     1      -9.501 -11.149  17.234  0.00  0.00    -0.283 N 
ATOM      8  N   UNL     1     -11.945 -10.597  18.696  0.00  0.00    -0.282 N 
ATOM      9  N   UNL     1      -7.759 -11.833  19.526  0.00  0.00    -0.283 N 
ATOM     10  N   UNL     1     -14.055 -11.348  19.437  0.00  0.00    -0.299 N 
ATOM     11  C   UNL     1      -9.463 -10.393  18.476  0.00  0.00    +0.180 C 
ATOM     12  C   UNL     1     -10.794  -9.692  18.781  0.00  0.00    +0.141 C 
ATOM     13  C   UNL     1     -10.811 -11.359  16.616  0.00  0.00    +0.128 C 
ATOM     14  C   UNL     1     -11.896 -11.625  17.650  0.00  0.00    +0.128 C 
ATOM     15  C   UNL     1      -9.062 -11.385  19.557  0.00  0.00    +0.239 C 
ATOM     16  C   UNL     1      -8.353 -11.503  16.531  0.00  0.00    +0.249 C 
ATOM     17  C   UNL     1      -7.027 -11.340  17.185  0.00  0.00    +0.059 A 
ATOM     18  C   UNL     1      -6.776 -11.596  18.543  0.00  0.00    +0.046 A 
ATOM     19  C   UNL     1     -13.015 -10.436  19.597  0.00  0.00    +0.302 C 
ATOM     20  C   UNL     1      -5.945 -11.081  16.323  0.00  0.00    +0.023 A 
ATOM     21  C   UNL     1      -5.445 -11.658  18.989  0.00  0.00    +0.024 A 
ATOM     22  C   UNL     1      -4.633 -11.098  16.793  0.00  0.00    -0.017 A 
ATOM     23  C   UNL     1      -4.383 -11.400  18.124  0.00  0.00    +0.010 A 
ATOM     34  H   UNL     1      -7.442 -12.311  20.367  0.00  0.00    +0.155 HD
ATOM     35  H   UNL     1     -13.987 -12.084  18.745  0.00  0.00    +0.150 HD
ENDROOT
BRANCH  22  25
ATOM     25  C   UNL     1      -3.535 -10.825  15.892  0.00  0.00    -0.017 A 
ATOM     27  C   UNL     1      -3.763 -10.751  14.518  0.00  0.00    +0.021 A 
ATOM     28  C   UNL     1      -2.248 -10.636  16.396  0.00  0.00    +0.008 A 
ATOM     30  C   UNL     1      -2.705 -10.488  13.648  0.00  0.00    +0.055 A 
ATOM     31  C   UNL     1      -1.189 -10.374  15.527  0.00  0.00    +0.001 A 
ATOM     32  C   UNL     1      -1.418 -10.300  14.153  0.00  0.00    +0.012 A 
BRANCH  30  33
ATOM      1  F   UNL     1      -3.005 -11.626  11.565  0.00  0.00    -0.166 F 
ATOM      2  F   UNL     1      -4.119  -9.788  11.850  0.00  0.00    -0.166 F 
ATOM      3  F   UNL     1      -1.970  -9.714  11.523  0.00  0.00    -0.166 F 
ATOM     33  C   UNL     1      -2.947 -10.408  12.178  0.00  0.00    +0.417 C 
ENDBRANCH  30  33
ENDBRANCH  22  25
BRANCH  10  24
ATOM     24  C   UNL     1     -15.238 -11.356  20.270  0.00  0.00    +0.105 C 
BRANCH  24  26
ATOM     26  C   UNL     1     -15.037 -12.148  21.556  0.00  0.00    +0.015 C 
ATOM     29  C   UNL     1     -15.693 -11.488  22.762  0.00  0.00    +0.005 C 
ENDBRANCH  24  26
ENDBRANCH  10  24
TORSDOF 4
ENDMDL
MODEL 2
REMARK VINA RESULT:      -7.3     28.301     29.515
REMARK  Name = 7135513
REMARK  5 active torsions:
REMARK  status: ('A' for Active; 'I' for Inactive)
REMARK    1  A    between atoms: N_10  and  C_24
REMARK    2  A    between atoms: C_22  and  C_25
REMARK    3  A    between atoms: C_24  and  C_26
REMARK    4  A    between atoms: C_26  and  C_29
REMARK    5  A    between atoms: C_30  and  C_33
REMARK                            x       y       z     vdW  Elec       q    Type
REMARK                         _______ _______ _______ _____ _____    ______ ____
ROOT
ATOM      4  O   UNL     1      10.793   7.132   7.312  0.00  0.00    -0.273 OA
ATOM      5  O   UNL     1       8.183   8.182   2.837  0.00  0.00    -0.270 OA
ATOM      6  O   UNL     1      11.928  10.577   8.630  0.00  0.00    -0.253 OA
ATOM      7  N   UNL     1       9.612   8.603   4.608  0.00  0.00    -0.283 N 
ATOM      8  N   UNL     1      10.352  10.060   7.005  0.00  0.00    -0.282 N 
ATOM      9  N   UNL     1      10.611   5.929   5.390  0.00  0.00    -0.283 N 
ATOM     10  N   UNL     1       9.703  10.972   9.082  0.00  0.00    -0.299 N 
ATOM     11  C   UNL     1      10.901   8.374   5.244  0.00  0.00    +0.180 C 
ATOM     12  C   UNL     1      11.373   9.577   6.070  0.00  0.00    +0.141 C 
ATOM     13  C   UNL     1       8.849   9.774   5.043  0.00  0.00    +0.128 C 
ATOM     14  C   UNL     1       8.960  10.007   6.542  0.00  0.00    +0.128 C 
ATOM     15  C   UNL     1      10.735   7.116   6.082  0.00  0.00    +0.239 C 
ATOM     16  C   UNL     1       9.177   7.880   3.501  0.00  0.00    +0.249 C 
ATOM     17  C   UNL     1       9.924   6.659   3.098  0.00  0.00    +0.059 A 
ATOM     18  C   UNL     1      10.482   5.738   3.999  0.00  0.00    +0.046 A 
ATOM     19  C   UNL     1      10.748  10.543   8.267  0.00  0.00    +0.302 C 
ATOM     20  C   UNL     1       9.897   6.348   1.725  0.00  0.00    +0.023 A 
ATOM     21  C   UNL     1      10.934   4.499   3.513  0.00  0.00    +0.024 A 
ATOM     22  C   UNL     1      10.395   5.134   1.255  0.00  0.00    -0.017 A 
ATOM     23  C   UNL     1      10.901   4.203   2.152  0.00  0.00    +0.010 A 
ATOM     34  H   UNL     1      10.726   5.085   5.947  0.00  0.00    +0.155 HD
ATOM     35  H   UNL     1       8.744  10.883   8.771  0.00  0.00    +0.150 HD
ENDROOT
BRANCH  22  25
ATOM     25  C   UNL     1      10.362   4.835  -0.160  0.00  0.00    -0.017 A 
ATOM     27  C   UNL     1      11.284   3.942  -0.705  0.00  0.00    +0.021 A 
ATOM     28  C   UNL     1       9.408   5.439  -0.980  0.00  0.00    +0.008 A 
ATOM     30  C   UNL     1      11.253   3.652  -2.070  0.00  0.00    +0.055 A 
ATOM     31  C   UNL     1       9.376   5.151  -2.344  0.00  0.00    +0.001 A 
ATOM     32  C   UNL     1      10.299   4.257  -2.889  0.00  0.00    +0.012 A 
BRANCH  30  33
ATOM      1  F   UNL     1      12.101   2.526  -4.002  0.00  0.00    -0.166 F 
ATOM      2  F   UNL     1      13.538   3.072  -2.472  0.00  0.00    -0.166 F 
ATOM      3  F   UNL     1      12.139   1.446  -2.114  0.00  0.00    -0.166 F 
ATOM     33  C   UNL     1      12.237   2.697  -2.654  0.00  0.00    +0.417 C 
ENDBRANCH  30  33
ENDBRANCH  22  25
BRANCH  10  24
ATOM     24  C   UNL     1       9.901  11.491  10.418  0.00  0.00    +0.105 C 
BRANCH  24  26
ATOM     26  C   UNL     1       8.595  11.935  11.067  0.00  0.00    +0.015 C 
ATOM     29  C   UNL     1       7.803  12.901  10.197  0.00  0.00    +0.005 C 
ENDBRANCH  24  26
ENDBRANCH  10  24
TORSDOF 4
ENDMDL
MODEL 3
REMARK VINA RESULT:      -7.2      1.608      2.167
REMARK  Name = 7135513
REMARK  5 active torsions:
REMARK  status: ('A' for Active; 'I' for Inactive)
REMARK    1  A    between atoms: N_10  and  C_24
REMARK    2  A    between atoms: C_22  and  C_25
REMARK    3  A    between atoms: C_24  and  C_26
REMARK    4  A    between atoms: C_26  and  C_29
REMARK    5  A    between atoms: C_30  and  C_33
REMARK                            x       y       z     vdW  Elec       q    Type
REMARK                         _______ _______ _______ _____ _____    ______ ____
ROOT
ATOM      4  O   UNL     1      -8.365 -11.068  20.075  0.00  0.00    -0.273 OA
ATOM      5  O   UNL     1      -8.278 -12.609  15.020  0.00  0.00    -0.270 OA
ATOM      6  O   UNL     1     -11.902  -9.623  20.612  0.00  0.00    -0.253 OA
ATOM      7  N   UNL     1      -9.061 -11.474  16.878  0.00  0.00    -0.283 N 
ATOM      8  N   UNL     1     -11.090 -10.943  18.883  0.00  0.00    -0.282 N 
ATOM      9  N   UNL     1      -6.661 -11.101  18.569  0.00  0.00    -0.283 N 
ATOM     10  N   UNL     1     -12.656 -11.793  20.430  0.00  0.00    -0.299 N 
ATOM     11  C   UNL     1      -8.897 -10.379  17.823  0.00  0.00    +0.180 C 
ATOM     12  C   UNL     1     -10.237  -9.867  18.369  0.00  0.00    +0.141 C 
ATOM     13  C   UNL     1     -10.384 -12.093  16.792  0.00  0.00    +0.128 C 
ATOM     14  C   UNL     1     -11.050 -12.217  18.155  0.00  0.00    +0.128 C 
ATOM     15  C   UNL     1      -7.980 -10.905  18.916  0.00  0.00    +0.239 C 
ATOM     16  C   UNL     1      -8.087 -11.817  15.945  0.00  0.00    +0.249 C 
ATOM     17  C   UNL     1      -6.727 -11.228  16.071  0.00  0.00    +0.059 A 
ATOM     18  C   UNL     1      -6.070 -11.006  17.292  0.00  0.00    +0.046 A 
ATOM     19  C   UNL     1     -11.888 -10.707  20.018  0.00  0.00    +0.302 C 
ATOM     20  C   UNL     1      -6.018 -11.059  14.867  0.00  0.00    +0.023 A 
ATOM     21  C   UNL     1      -4.700 -10.691  17.280  0.00  0.00    +0.024 A 
ATOM     22  C   UNL     1      -4.672 -10.697  14.873  0.00  0.00    -0.017 A 
ATOM     23  C   UNL     1      -4.009 -10.527  16.081  0.00  0.00    +0.010 A 
ATOM     34  H   UNL     1      -6.019 -11.234  19.348  0.00  0.00    +0.155 HD
ATOM     35  H   UNL     1     -12.581 -12.681  19.949  0.00  0.00    +0.150 HD
ENDROOT
BRANCH  22  25
ATOM     25  C   UNL     1      -3.961 -10.524  13.625  0.00  0.00    -0.017 A 
ATOM     27  C   UNL     1      -4.625 -10.013  12.509  0.00  0.00    +0.021 A 
ATOM     28  C   UNL     1      -2.612 -10.867  13.536  0.00  0.00    +0.008 A 
ATOM     30  C   UNL     1      -3.941  -9.845  11.306  0.00  0.00    +0.055 A 
ATOM     31  C   UNL     1      -1.927 -10.700  12.333  0.00  0.00    +0.001 A 
ATOM     32  C   UNL     1      -2.591 -10.190  11.218  0.00  0.00    +0.012 A 
BRANCH  30  33
ATOM      1  F   UNL     1      -4.928  -7.965  10.204  0.00  0.00    -0.166 F 
ATOM      2  F   UNL     1      -3.947  -9.437   8.949  0.00  0.00    -0.166 F 
ATOM      3  F   UNL     1      -5.850  -9.910   9.889  0.00  0.00    -0.166 F 
ATOM     33  C   UNL     1      -4.649  -9.299  10.113  0.00  0.00    +0.417 C 
ENDBRANCH  30  33
ENDBRANCH  22  25
BRANCH  10  24
ATOM     24  C   UNL     1     -13.533 -11.755  21.579  0.00  0.00    +0.105 C 
BRANCH  24  26
ATOM     26  C   UNL     1     -13.318 -12.940  22.513  0.00  0.00    +0.015 C 
ATOM     29  C   UNL     1     -13.754 -12.650  23.943  0.00  0.00    +0.005 C 
ENDBRANCH  24  26
ENDBRANCH  10  24
TORSDOF 4
ENDMDL
MODEL 4
REMARK VINA RESULT:      -7.1     27.067     30.831
REMARK  Name = 7135513
REMARK  5 active torsions:
REMARK  status: ('A' for Active; 'I' for Inactive)
REMARK    1  A    between atoms: N_10  and  C_24
REMARK    2  A    between atoms: C_22  and  C_25
REMARK    3  A    between atoms: C_24  and  C_26
REMARK    4  A    between atoms: C_26  and  C_29
REMARK    5  A    between atoms: C_30  and  C_33
REMARK                            x       y       z     vdW  Elec       q    Type
REMARK                         _______ _______ _______ _____ _____    ______ ____
ROOT
ATOM      4  O   UNL     1      11.842   3.181  -2.151  0.00  0.00    -0.273 OA
ATOM      5  O   UNL     1      10.833   7.771   0.269  0.00  0.00    -0.270 OA
ATOM      6  O   UNL     1       9.868   3.350  -5.462  0.00  0.00    -0.253 OA
ATOM      7  N   UNL     1      10.513   6.063  -1.260  0.00  0.00    -0.283 N 
ATOM      8  N   UNL     1      10.412   5.048  -3.976  0.00  0.00    -0.282 N 
ATOM      9  N   UNL     1      11.662   3.677   0.061  0.00  0.00    -0.283 N 
ATOM     10  N   UNL     1      11.393   4.946  -6.119  0.00  0.00    -0.299 N 
ATOM     11  C   UNL     1      10.074   4.701  -1.524  0.00  0.00    +0.180 C 
ATOM     12  C   UNL     1       9.514   4.527  -2.941  0.00  0.00    +0.141 C 
ATOM     13  C   UNL     1      10.616   6.968  -2.405  0.00  0.00    +0.128 C 
ATOM     14  C   UNL     1      11.159   6.267  -3.643  0.00  0.00    +0.128 C 
ATOM     15  C   UNL     1      11.280   3.815  -1.256  0.00  0.00    +0.239 C 
ATOM     16  C   UNL     1      10.649   6.576   0.027  0.00  0.00    +0.249 C 
ATOM     17  C   UNL     1      10.599   5.644   1.185  0.00  0.00    +0.059 A 
ATOM     18  C   UNL     1      11.162   4.358   1.191  0.00  0.00    +0.046 A 
ATOM     19  C   UNL     1      10.509   4.374  -5.208  0.00  0.00    +0.302 C 
ATOM     20  C   UNL     1      10.103   6.185   2.387  0.00  0.00    +0.023 A 
ATOM     21  C   UNL     1      11.281   3.674   2.413  0.00  0.00    +0.024 A 
ATOM     22  C   UNL     1      10.185   5.471   3.581  0.00  0.00    -0.017 A 
ATOM     23  C   UNL     1      10.788   4.220   3.596  0.00  0.00    +0.010 A 
ATOM     34  H   UNL     1      12.314   2.920   0.250  0.00  0.00    +0.155 HD
ATOM     35  H   UNL     1      11.940   5.758  -5.859  0.00  0.00    +0.150 HD
ENDROOT
BRANCH  22  25
ATOM     25  C   UNL     1       9.667   6.042   4.805  0.00  0.00    -0.017 A 
ATOM     27  C   UNL     1       9.910   5.411   6.025  0.00  0.00    +0.021 A 
ATOM     28  C   UNL     1       8.926   7.222   4.766  0.00  0.00    +0.008 A 
ATOM     30  C   UNL     1       9.411   5.961   7.206  0.00  0.00    +0.055 A 
ATOM     31  C   UNL     1       8.426   7.772   5.946  0.00  0.00    +0.001 A 
ATOM     32  C   UNL     1       8.668   7.142   7.166  0.00  0.00    +0.012 A 
BRANCH  30  33
ATOM      1  F   UNL     1       8.729   5.560   9.464  0.00  0.00    -0.166 F 
ATOM      2  F   UNL     1       9.708   3.926   8.427  0.00  0.00    -0.166 F 
ATOM      3  F   UNL     1      10.865   5.654   9.063  0.00  0.00    -0.166 F 
ATOM     33  C   UNL     1       9.670   5.288   8.512  0.00  0.00    +0.417 C 
ENDBRANCH  30  33
ENDBRANCH  22  25
BRANCH  10  24
ATOM     24  C   UNL     1      11.641   4.399  -7.435  0.00  0.00    +0.105 C 
BRANCH  24  26
ATOM     26  C   UNL     1      12.713   3.315  -7.420  0.00  0.00    +0.015 C 
ATOM     29  C   UNL     1      14.041   3.808  -6.863  0.00  0.00    +0.005 C 
ENDBRANCH  24  26
ENDBRANCH  10  24
TORSDOF 4
ENDMDL
MODEL 5
REMARK VINA RESULT:      -7.1     26.737     31.887
REMARK  Name = 7135513
REMARK  5 active torsions:
REMARK  status: ('A' for Active; 'I' for Inactive)
REMARK    1  A    between atoms: N_10  and  C_24
REMARK    2  A    between atoms: C_22  and  C_25
REMARK    3  A    between atoms: C_24  and  C_26
REMARK    4  A    between atoms: C_26  and  C_29
REMARK    5  A    between atoms: C_30  and  C_33
REMARK                            x       y       z     vdW  Elec       q    Type
REMARK                         _______ _______ _______ _____ _____    ______ ____
ROOT
ATOM      4  O   UNL     1      13.743   4.344  -0.786  0.00  0.00    -0.273 OA
ATOM      5  O   UNL     1      14.368   7.270   3.572  0.00  0.00    -0.270 OA
ATOM      6  O   UNL     1      14.621   6.712  -3.704  0.00  0.00    -0.253 OA
ATOM      7  N   UNL     1      14.098   6.865   1.310  0.00  0.00    -0.283 N 
ATOM      8  N   UNL     1      15.041   6.945  -1.433  0.00  0.00    -0.282 N 
ATOM      9  N   UNL     1      12.634   4.294   1.199  0.00  0.00    -0.283 N 
ATOM     10  N   UNL     1      16.799   6.578  -2.963  0.00  0.00    -0.299 N 
ATOM     11  C   UNL     1      13.220   6.479   0.215  0.00  0.00    +0.180 C 
ATOM     12  C   UNL     1      13.621   7.125  -1.117  0.00  0.00    +0.141 C 
ATOM     13  C   UNL     1      15.340   7.555   0.962  0.00  0.00    +0.128 C 
ATOM     14  C   UNL     1      15.975   6.991  -0.301  0.00  0.00    +0.128 C 
ATOM     15  C   UNL     1      13.258   4.959   0.165  0.00  0.00    +0.239 C 
ATOM     16  C   UNL     1      13.720   6.776   2.647  0.00  0.00    +0.249 C 
ATOM     17  C   UNL     1      12.486   6.025   3.000  0.00  0.00    +0.059 A 
ATOM     18  C   UNL     1      12.075   4.837   2.375  0.00  0.00    +0.046 A 
ATOM     19  C   UNL     1      15.430   6.745  -2.771  0.00  0.00    +0.302 C 
ATOM     20  C   UNL     1      11.807   6.467   4.152  0.00  0.00    +0.023 A 
ATOM     21  C   UNL     1      11.043   4.082   2.959  0.00  0.00    +0.024 A 
ATOM     22  C   UNL     1      10.753   5.731   4.689  0.00  0.00    -0.017 A 
ATOM     23  C   UNL     1      10.380   4.530   4.100  0.00  0.00    +0.010 A 
ATOM     34  H   UNL     1      12.471   3.302   1.045  0.00  0.00    +0.155 HD
ATOM     35  H   UNL     1      17.427   6.561  -2.169  0.00  0.00    +0.150 HD
ENDROOT
BRANCH  22  25
ATOM     25  C   UNL     1      10.066   6.204   5.871  0.00  0.00    -0.017 A 
ATOM     27  C   UNL     1      10.053   5.425   7.028  0.00  0.00    +0.021 A 
ATOM     28  C   UNL     1       9.416   7.438   5.855  0.00  0.00    +0.008 A 
ATOM     30  C   UNL     1       9.391   5.879   8.168  0.00  0.00    +0.055 A 
ATOM     31  C   UNL     1       8.753   7.893   6.994  0.00  0.00    +0.001 A 
ATOM     32  C   UNL     1       8.741   7.114   8.151  0.00  0.00    +0.012 A 
BRANCH  30  33
ATOM      1  F   UNL     1       8.324   5.316  10.234  0.00  0.00    -0.166 F 
ATOM      2  F   UNL     1       9.307   3.706   9.164  0.00  0.00    -0.166 F 
ATOM      3  F   UNL     1      10.496   5.224  10.169  0.00  0.00    -0.166 F 
ATOM     33  C   UNL     1       9.377   5.048   9.407  0.00  0.00    +0.417 C 
ENDBRANCH  30  33
ENDBRANCH  22  25
BRANCH  10  24
ATOM     24  C   UNL     1      17.396   6.351  -4.261  0.00  0.00    +0.105 C 
BRANCH  24  26
ATOM     26  C   UNL     1      17.860   4.911  -4.442  0.00  0.00    +0.015 C 
ATOM     29  C   UNL     1      18.437   4.314  -3.166  0.00  0.00    +0.005 C 
ENDBRANCH  24  26
ENDBRANCH  10  24
TORSDOF 4
ENDMDL
MODEL 6
REMARK VINA RESULT:      -7.1      5.318     10.536
REMARK  Name = 7135513
REMARK  5 active torsions:
REMARK  status: ('A' for Active; 'I' for Inactive)
REMARK    1  A    between atoms: N_10  and  C_24
REMARK    2  A    between atoms: C_22  and  C_25
REMARK    3  A    between atoms: C_24  and  C_26
REMARK    4  A    between atoms: C_26  and  C_29
REMARK    5  A    between atoms: C_30  and  C_33
REMARK                            x       y       z     vdW  Elec       q    Type
REMARK                         _______ _______ _______ _____ _____    ______ ____
ROOT
ATOM      4  O   UNL     1      -6.383  -9.650  15.472  0.00  0.00    -0.273 OA
ATOM      5  O   UNL     1      -9.147 -13.365  18.023  0.00  0.00    -0.270 OA
ATOM      6  O   UNL     1      -2.709 -10.297  16.455  0.00  0.00    -0.253 OA
ATOM      7  N   UNL     1      -7.316 -12.029  17.556  0.00  0.00    -0.283 N 
ATOM      8  N   UNL     1      -4.568 -11.666  16.699  0.00  0.00    -0.282 N 
ATOM      9  N   UNL     1      -8.481  -9.591  16.349  0.00  0.00    -0.283 N 
ATOM     10  N   UNL     1      -2.854 -12.203  15.169  0.00  0.00    -0.299 N 
ATOM     11  C   UNL     1      -6.690 -10.716  17.617  0.00  0.00    +0.180 C 
ATOM     12  C   UNL     1      -5.161 -10.796  17.719  0.00  0.00    +0.141 C 
ATOM     13  C   UNL     1      -6.440 -13.179  17.330  0.00  0.00    +0.128 C 
ATOM     14  C   UNL     1      -5.328 -12.868  16.338  0.00  0.00    +0.128 C 
ATOM     15  C   UNL     1      -7.157  -9.974  16.375  0.00  0.00    +0.239 C 
ATOM     16  C   UNL     1      -8.651 -12.244  17.886  0.00  0.00    +0.249 C 
ATOM     17  C   UNL     1      -9.550 -11.072  18.059  0.00  0.00    +0.059 A 
ATOM     18  C   UNL     1      -9.502  -9.913  17.268  0.00  0.00    +0.046 A 
ATOM     19  C   UNL     1      -3.327 -11.316  16.132  0.00  0.00    +0.302 C 
ATOM     20  C   UNL     1     -10.614 -11.244  18.964  0.00  0.00    +0.023 A 
ATOM     21  C   UNL     1     -10.558  -8.989  17.350  0.00  0.00    +0.024 A 
ATOM     22  C   UNL     1     -11.627 -10.293  19.068  0.00  0.00    -0.017 A 
ATOM     23  C   UNL     1     -11.606  -9.171  18.250  0.00  0.00    +0.010 A 
ATOM     34  H   UNL     1      -8.726  -8.911  15.633  0.00  0.00    +0.155 HD
ATOM     35  H   UNL     1      -3.411 -13.001  14.893  0.00  0.00    +0.150 HD
ENDROOT
BRANCH  22  25
ATOM     25  C   UNL     1     -12.711 -10.485  20.007  0.00  0.00    -0.017 A 
ATOM     27  C   UNL     1     -13.718  -9.527  20.114  0.00  0.00    +0.021 A 
ATOM     28  C   UNL     1     -12.749 -11.629  20.805  0.00  0.00    +0.008 A 
ATOM     30  C   UNL     1     -14.764  -9.712  21.019  0.00  0.00    +0.055 A 
ATOM     31  C   UNL     1     -13.793 -11.814  21.710  0.00  0.00    +0.001 A 
ATOM     32  C   UNL     1     -14.801 -10.856  21.818  0.00  0.00    +0.012 A 
BRANCH  30  33
ATOM      1  F   UNL     1     -16.441  -8.386  19.946  0.00  0.00    -0.166 F 
ATOM      2  F   UNL     1     -16.863  -9.061  21.963  0.00  0.00    -0.166 F 
ATOM      3  F   UNL     1     -15.387  -7.499  21.628  0.00  0.00    -0.166 F 
ATOM     33  C   UNL     1     -15.843  -8.688  21.135  0.00  0.00    +0.417 C 
ENDBRANCH  30  33
ENDBRANCH  22  25
BRANCH  10  24
ATOM     24  C   UNL     1      -1.605 -12.015  14.463  0.00  0.00    +0.105 C 
BRANCH  24  26
ATOM     26  C   UNL     1      -1.781 -12.061  12.950  0.00  0.00    +0.015 C 
ATOM     29  C   UNL     1      -1.976 -10.680  12.338  0.00  0.00    +0.005 C 
ENDBRANCH  24  26
ENDBRANCH  10  24
TORSDOF 4
ENDMDL
MODEL 7
REMARK VINA RESULT:      -7.1     30.324     32.091
REMARK  Name = 7135513
REMARK  5 active torsions:
REMARK  status: ('A' for Active; 'I' for Inactive)
REMARK    1  A    between atoms: N_10  and  C_24
REMARK    2  A    between atoms: C_22  and  C_25
REMARK    3  A    between atoms: C_24  and  C_26
REMARK    4  A    between atoms: C_26  and  C_29
REMARK    5  A    between atoms: C_30  and  C_33
REMARK                            x       y       z     vdW  Elec       q    Type
REMARK                         _______ _______ _______ _____ _____    ______ ____
ROOT
ATOM      4  O   UNL     1      12.554   9.580  21.956  0.00  0.00    -0.273 OA
ATOM      5  O   UNL     1      17.368  11.202  20.496  0.00  0.00    -0.270 OA
ATOM      6  O   UNL     1      11.365  12.195  24.532  0.00  0.00    -0.253 OA
ATOM      7  N   UNL     1      15.477  11.099  21.825  0.00  0.00    -0.283 N 
ATOM      8  N   UNL     1      13.122  12.302  23.018  0.00  0.00    -0.282 N 
ATOM      9  N   UNL     1      14.391   8.389  21.341  0.00  0.00    -0.283 N 
ATOM     10  N   UNL     1      11.206  13.655  22.757  0.00  0.00    -0.299 N 
ATOM     11  C   UNL     1      14.680  10.360  22.794  0.00  0.00    +0.180 C 
ATOM     12  C   UNL     1      13.893  11.282  23.735  0.00  0.00    +0.141 C 
ATOM     13  C   UNL     1      15.221  12.535  21.702  0.00  0.00    +0.128 C 
ATOM     14  C   UNL     1      13.739  12.865  21.811  0.00  0.00    +0.128 C 
ATOM     15  C   UNL     1      13.778   9.445  21.980  0.00  0.00    +0.239 C 
ATOM     16  C   UNL     1      16.572  10.544  21.170  0.00  0.00    +0.249 C 
ATOM     17  C   UNL     1      16.795   9.076  21.253  0.00  0.00    +0.059 A 
ATOM     18  C   UNL     1      15.771   8.117  21.230  0.00  0.00    +0.046 A 
ATOM     19  C   UNL     1      11.860  12.685  23.512  0.00  0.00    +0.302 C 
ATOM     20  C   UNL     1      18.136   8.654  21.170  0.00  0.00    +0.023 A 
ATOM     21  C   UNL     1      16.109   6.764  21.052  0.00  0.00    +0.024 A 
ATOM     22  C   UNL     1      18.456   7.303  21.045  0.00  0.00    -0.017 A 
ATOM     23  C   UNL     1      17.440   6.359  20.971  0.00  0.00    +0.010 A 
ATOM     34  H   UNL     1      13.766   7.666  20.992  0.00  0.00    +0.155 HD
ATOM     35  H   UNL     1      11.621  13.998  21.899  0.00  0.00    +0.150 HD
ENDROOT
BRANCH  22  25
ATOM     25  C   UNL     1      19.839   6.889  20.966  0.00  0.00    -0.017 A 
ATOM     27  C   UNL     1      20.178   5.551  21.168  0.00  0.00    +0.021 A 
ATOM     28  C   UNL     1      20.834   7.825  20.687  0.00  0.00    +0.008 A 
ATOM     30  C   UNL     1      21.512   5.150  21.091  0.00  0.00    +0.055 A 
ATOM     31  C   UNL     1      22.168   7.426  20.611  0.00  0.00    +0.001 A 
ATOM     32  C   UNL     1      22.507   6.088  20.813  0.00  0.00    +0.012 A 
BRANCH  30  33
ATOM      1  F   UNL     1      21.926   3.359  22.622  0.00  0.00    -0.166 F 
ATOM      2  F   UNL     1      21.006   2.841  20.727  0.00  0.00    -0.166 F 
ATOM      3  F   UNL     1      23.104   3.408  20.794  0.00  0.00    -0.166 F 
ATOM     33  C   UNL     1      21.877   3.720  21.306  0.00  0.00    +0.417 C 
ENDBRANCH  30  33
ENDBRANCH  22  25
BRANCH  10  24
ATOM     24  C   UNL     1       9.898  14.173  23.092  0.00  0.00    +0.105 C 
BRANCH  24  26
ATOM     26  C   UNL     1       9.208  14.822  21.898  0.00  0.00    +0.015 C 
ATOM     29  C   UNL     1      10.113  14.923  20.678  0.00  0.00    +0.005 C 
ENDBRANCH  24  26
ENDBRANCH  10  24
TORSDOF 4
ENDMDL
MODEL 8
REMARK VINA RESULT:      -7.1      7.156     10.473
REMARK  Name = 7135513
REMARK  5 active torsions:
REMARK  status: ('A' for Active; 'I' for Inactive)
REMARK    1  A    between atoms: N_10  and  C_24
REMARK    2  A    between atoms: C_22  and  C_25
REMARK    3  A    between atoms: C_24  and  C_26
REMARK    4  A    between atoms: C_26  and  C_29
REMARK    5  A    between atoms: C_30  and  C_33
REMARK                            x       y       z     vdW  Elec       q    Type
REMARK                         _______ _______ _______ _____ _____    ______ ____
ROOT
ATOM      4  O   UNL     1      -6.434 -11.080   6.609  0.00  0.00    -0.273 OA
ATOM      5  O   UNL     1      -5.364  -7.656  10.491  0.00  0.00    -0.270 OA
ATOM      6  O   UNL     1     -10.149 -10.482   5.754  0.00  0.00    -0.253 OA
ATOM      7  N   UNL     1      -6.698  -8.919   9.084  0.00  0.00    -0.283 N 
ATOM      8  N   UNL     1      -8.683  -9.165   6.982  0.00  0.00    -0.282 N 
ATOM      9  N   UNL     1      -5.015 -11.248   8.379  0.00  0.00    -0.283 N 
ATOM     10  N   UNL     1      -9.468  -8.466   4.870  0.00  0.00    -0.299 N 
ATOM     11  C   UNL     1      -7.231 -10.223   8.721  0.00  0.00    +0.180 C 
ATOM     12  C   UNL     1      -8.623 -10.134   8.081  0.00  0.00    +0.141 C 
ATOM     13  C   UNL     1      -7.397  -7.741   8.567  0.00  0.00    +0.128 C 
ATOM     14  C   UNL     1      -7.883  -7.944   7.140  0.00  0.00    +0.128 C 
ATOM     15  C   UNL     1      -6.200 -10.853   7.797  0.00  0.00    +0.239 C 
ATOM     16  C   UNL     1      -5.694  -8.752  10.034  0.00  0.00    +0.249 C 
ATOM     17  C   UNL     1      -4.949  -9.946  10.514  0.00  0.00    +0.059 A 
ATOM     18  C   UNL     1      -4.572 -11.026   9.699  0.00  0.00    +0.046 A 
ATOM     19  C   UNL     1      -9.485  -9.445   5.860  0.00  0.00    +0.302 C 
ATOM     20  C   UNL     1      -4.457  -9.874  11.831  0.00  0.00    +0.023 A 
ATOM     21  C   UNL     1      -3.655 -11.967  10.198  0.00  0.00    +0.024 A 
ATOM     22  C   UNL     1      -3.587 -10.843  12.326  0.00  0.00    -0.017 A 
ATOM     23  C   UNL     1      -3.175 -11.883  11.503  0.00  0.00    +0.010 A 
ATOM     34  H   UNL     1      -4.433 -11.861   7.811  0.00  0.00    +0.155 HD
ATOM     35  H   UNL     1      -8.874  -7.652   4.968  0.00  0.00    +0.150 HD
ENDROOT
BRANCH  22  25
ATOM     25  C   UNL     1      -3.095 -10.753  13.683  0.00  0.00    -0.017 A 
ATOM     27  C   UNL     1      -3.955 -10.998  14.754  0.00  0.00    +0.021 A 
ATOM     28  C   UNL     1      -1.761 -10.422  13.922  0.00  0.00    +0.008 A 
ATOM     30  C   UNL     1      -3.482 -10.912  16.063  0.00  0.00    +0.055 A 
ATOM     31  C   UNL     1      -1.287 -10.335  15.231  0.00  0.00    +0.001 A 
ATOM     32  C   UNL     1      -2.147 -10.580  16.301  0.00  0.00    +0.012 A 
BRANCH  30  33
ATOM      1  F   UNL     1      -3.754 -11.547  18.353  0.00  0.00    -0.166 F 
ATOM      2  F   UNL     1      -5.156 -10.093  17.562  0.00  0.00    -0.166 F 
ATOM      3  F   UNL     1      -5.291 -12.175  16.949  0.00  0.00    -0.166 F 
ATOM     33  C   UNL     1      -4.399 -11.174  17.209  0.00  0.00    +0.417 C 
ENDBRANCH  30  33
ENDBRANCH  22  25
BRANCH  10  24
ATOM     24  C   UNL     1     -10.217  -8.571   3.637  0.00  0.00    +0.105 C 
BRANCH  24  26
ATOM     26  C   UNL     1      -9.316  -8.565   2.408  0.00  0.00    +0.015 C 
ATOM     29  C   UNL     1      -7.929  -8.007   2.698  0.00  0.00    +0.005 C 
ENDBRANCH  24  26
ENDBRANCH  10  24
TORSDOF 4
ENDMDL
MODEL 9
REMARK VINA RESULT:      -7.0     27.179     29.139
REMARK  Name = 7135513
REMARK  5 active torsions:
REMARK  status: ('A' for Active; 'I' for Inactive)
REMARK    1  A    between atoms: N_10  and  C_24
REMARK    2  A    between atoms: C_22  and  C_25
REMARK    3  A    between atoms: C_24  and  C_26
REMARK    4  A    between atoms: C_26  and  C_29
REMARK    5  A    between atoms: C_30  and  C_33
REMARK                            x       y       z     vdW  Elec       q    Type
REMARK                         _______ _______ _______ _____ _____    ______ ____
ROOT
ATOM      4  O   UNL     1       8.687   8.028   8.132  0.00  0.00    -0.273 OA
ATOM      5  O   UNL     1       9.703   8.882   3.015  0.00  0.00    -0.270 OA
ATOM      6  O   UNL     1      10.193  11.072   9.964  0.00  0.00    -0.253 OA
ATOM      7  N   UNL     1       9.931   9.170   5.300  0.00  0.00    -0.283 N 
ATOM      8  N   UNL     1       9.739  10.780   7.706  0.00  0.00    -0.282 N 
ATOM      9  N   UNL     1       9.125   6.564   6.448  0.00  0.00    -0.283 N 
ATOM     10  N   UNL     1       8.493  12.301   9.011  0.00  0.00    -0.299 N 
ATOM     11  C   UNL     1      10.419   8.659   6.572  0.00  0.00    +0.180 C 
ATOM     12  C   UNL     1      10.798   9.778   7.551  0.00  0.00    +0.141 C 
ATOM     13  C   UNL     1       9.618  10.598   5.227  0.00  0.00    +0.128 C 
ATOM     14  C   UNL     1       8.964  11.108   6.503  0.00  0.00    +0.128 C 
ATOM     15  C   UNL     1       9.319   7.757   7.110  0.00  0.00    +0.239 C 
ATOM     16  C   UNL     1       9.932   8.413   4.132  0.00  0.00    +0.249 C 
ATOM     17  C   UNL     1      10.195   6.952   4.220  0.00  0.00    +0.059 A 
ATOM     18  C   UNL     1       9.723   6.122   5.249  0.00  0.00    +0.046 A 
ATOM     19  C   UNL     1       9.525  11.367   8.968  0.00  0.00    +0.302 C 
ATOM     20  C   UNL     1      10.807   6.370   3.093  0.00  0.00    +0.023 A 
ATOM     21  C   UNL     1       9.810   4.728   5.094  0.00  0.00    +0.024 A 
ATOM     22  C   UNL     1      10.931   4.987   2.978  0.00  0.00    -0.017 A 
ATOM     23  C   UNL     1      10.419   4.165   3.973  0.00  0.00    +0.010 A 
ATOM     34  H   UNL     1       8.553   5.880   6.938  0.00  0.00    +0.155 HD
ATOM     35  H   UNL     1       7.933  12.481   8.187  0.00  0.00    +0.150 HD
ENDROOT
BRANCH  22  25
ATOM     25  C   UNL     1      11.567   4.408   1.815  0.00  0.00    -0.017 A 
ATOM     27  C   UNL     1      10.950   4.498   0.567  0.00  0.00    +0.021 A 
ATOM     28  C   UNL     1      12.796   3.761   1.941  0.00  0.00    +0.008 A 
ATOM     30  C   UNL     1      11.563   3.941  -0.556  0.00  0.00    +0.055 A 
ATOM     31  C   UNL     1      13.409   3.203   0.819  0.00  0.00    +0.001 A 
ATOM     32  C   UNL     1      12.793   3.293  -0.429  0.00  0.00    +0.012 A 
BRANCH  30  33
ATOM      1  F   UNL     1       9.715   4.704  -1.869  0.00  0.00    -0.166 F 
ATOM      2  F   UNL     1      11.661   4.685  -2.827  0.00  0.00    -0.166 F 
ATOM      3  F   UNL     1      10.630   2.812  -2.429  0.00  0.00    -0.166 F 
ATOM     33  C   UNL     1      10.906   4.036  -1.891  0.00  0.00    +0.417 C 
ENDBRANCH  30  33
ENDBRANCH  22  25
BRANCH  10  24
ATOM     24  C   UNL     1       8.111  13.005  10.215  0.00  0.00    +0.105 C 
BRANCH  24  26
ATOM     26  C   UNL     1       6.707  13.592  10.123  0.00  0.00    +0.015 C 
ATOM     29  C   UNL     1       6.363  14.079   8.722  0.00  0.00    +0.005 C 
ENDBRANCH  24  26
ENDBRANCH  10  24
TORSDOF 4
ENDMDL
MODEL 10
REMARK VINA RESULT:      -7.0     18.715     21.248
REMARK  Name = 7135513
REMARK  5 active torsions:
REMARK  status: ('A' for Active; 'I' for Inactive)
REMARK    1  A    between atoms: N_10  and  C_24
REMARK    2  A    between atoms: C_22  and  C_25
REMARK    3  A    between atoms: C_24  and  C_26
REMARK    4  A    between atoms: C_26  and  C_29
REMARK    5  A    between atoms: C_30  and  C_33
REMARK                            x       y       z     vdW  Elec       q    Type
REMARK                         _______ _______ _______ _____ _____    ______ ____
ROOT
ATOM      4  O   UNL     1     -15.439   7.275  19.119  0.00  0.00    -0.273 OA
ATOM      5  O   UNL     1     -12.610   4.592  22.689  0.00  0.00    -0.270 OA
ATOM      6  O   UNL     1     -13.699  10.709  18.852  0.00  0.00    -0.253 OA
ATOM      7  N   UNL     1     -13.363   6.459  21.547  0.00  0.00    -0.283 N 
ATOM      8  N   UNL     1     -12.932   8.731  19.795  0.00  0.00    -0.282 N 
ATOM      9  N   UNL     1     -16.081   5.714  20.644  0.00  0.00    -0.283 N 
ATOM     10  N   UNL     1     -11.972   9.588  17.818  0.00  0.00    -0.299 N 
ATOM     11  C   UNL     1     -14.429   7.420  21.308  0.00  0.00    +0.180 C 
ATOM     12  C   UNL     1     -13.898   8.799  20.896  0.00  0.00    +0.141 C 
ATOM     13  C   UNL     1     -12.015   6.832  21.117  0.00  0.00    +0.128 C 
ATOM     14  C   UNL     1     -12.022   7.579  19.791  0.00  0.00    +0.128 C 
ATOM     15  C   UNL     1     -15.324   6.796  20.248  0.00  0.00    +0.239 C 
ATOM     16  C   UNL     1     -13.539   5.314  22.320  0.00  0.00    +0.249 C 
ATOM     17  C   UNL     1     -14.916   4.909  22.707  0.00  0.00    +0.059 A 
ATOM     18  C   UNL     1     -16.039   5.019  21.871  0.00  0.00    +0.046 A 
ATOM     19  C   UNL     1     -12.922   9.749  18.823  0.00  0.00    +0.302 C 
ATOM     20  C   UNL     1     -15.032   4.215  23.926  0.00  0.00    +0.023 A 
ATOM     21  C   UNL     1     -17.230   4.371  22.241  0.00  0.00    +0.024 A 
ATOM     22  C   UNL     1     -16.235   3.620  24.301  0.00  0.00    -0.017 A 
ATOM     23  C   UNL     1     -17.331   3.686  23.451  0.00  0.00    +0.010 A 
ATOM     34  H   UNL     1     -16.829   5.448  20.007  0.00  0.00    +0.155 HD
ATOM     35  H   UNL     1     -11.385   8.764  17.798  0.00  0.00    +0.150 HD
ENDROOT
BRANCH  22  25
ATOM     25  C   UNL     1     -16.335   2.914  25.560  0.00  0.00    -0.017 A 
ATOM     27  C   UNL     1     -15.983   3.555  26.748  0.00  0.00    +0.021 A 
ATOM     28  C   UNL     1     -16.783   1.594  25.586  0.00  0.00    +0.008 A 
ATOM     30  C   UNL     1     -16.080   2.875  27.962  0.00  0.00    +0.055 A 
ATOM     31  C   UNL     1     -16.880   0.913  26.800  0.00  0.00    +0.001 A 
ATOM     32  C   UNL     1     -16.528   1.554  27.988  0.00  0.00    +0.012 A 
BRANCH  30  33
ATOM      1  F   UNL     1     -15.961   4.900  29.231  0.00  0.00    -0.166 F 
ATOM      2  F   UNL     1     -16.360   3.073  30.329  0.00  0.00    -0.166 F 
ATOM      3  F   UNL     1     -14.375   3.441  29.521  0.00  0.00    -0.166 F 
ATOM     33  C   UNL     1     -15.705   3.559  29.233  0.00  0.00    +0.417 C 
ENDBRANCH  30  33
ENDBRANCH  22  25
BRANCH  10  24
ATOM     24  C   UNL     1     -11.809  10.520  16.724  0.00  0.00    +0.105 C 
BRANCH  24  26
ATOM     26  C   UNL     1     -10.851  10.002  15.658  0.00  0.00    +0.015 C 
ATOM     29  C   UNL     1     -11.558   9.624  14.363  0.00  0.00    +0.005 C 
ENDBRANCH  24  26
ENDBRANCH  10  24
TORSDOF 4
ENDMDL
