MODEL 1
REMARK VINA RESULT:      -7.8      0.000      0.000
REMARK  Name = 40779107
REMARK  8 active torsions:
REMARK  status: ('A' for Active; 'I' for Inactive)
REMARK    1  A    between atoms: S_3  and  N_11
REMARK    2  A    between atoms: S_3  and  C_26
REMARK    3  A    between atoms: S_4  and  N_12
REMARK    4  A    between atoms: S_4  and  C_27
REMARK    5  A    between atoms: N_10  and  C_20
REMARK    6  A    between atoms: N_11  and  C_21
REMARK    7  A    between atoms: C_14  and  C_20
REMARK    8  A    between atoms: C_15  and  C_21
REMARK                            x       y       z     vdW  Elec       q    Type
REMARK                         _______ _______ _______ _____ _____    ______ ____
ROOT
ATOM      9  N   UNL     1      -6.107 -12.542  17.566  0.00  0.00    -0.298 NA
ATOM     13  C   UNL     1      -6.268 -10.107  18.467  0.00  0.00    -0.003 C 
ATOM     14  C   UNL     1      -7.453 -10.427  17.527  0.00  0.00    +0.020 C 
ATOM     15  C   UNL     1      -4.827 -11.824  17.325  0.00  0.00    +0.072 C 
ATOM     16  C   UNL     1      -4.945 -10.333  17.713  0.00  0.00    +0.024 C 
ATOM     17  C   UNL     1      -7.230 -11.827  16.912  0.00  0.00    +0.089 C 
ATOM     18  C   UNL     1      -6.321 -11.131  19.617  0.00  0.00    +0.019 C 
ATOM     19  C   UNL     1      -6.357 -12.553  19.029  0.00  0.00    +0.085 C 
ENDROOT
BRANCH  14  20
ATOM     20  C   UNL     1      -7.671  -9.367  16.449  0.00  0.00    +0.089 C 
BRANCH  20  10
ATOM     10  N   UNL     1      -9.105  -9.199  16.219  0.00  0.00    -0.299 NA
ATOM     12  N   UNL     1     -11.402  -7.787  15.219  0.00  0.00    -0.174 NA
ATOM     22  C   UNL     1      -9.595  -7.984  16.886  0.00  0.00    +0.101 C 
ATOM     23  C   UNL     1      -9.394  -9.148  14.779  0.00  0.00    +0.101 C 
ATOM     24  C   UNL     1     -11.100  -7.821  16.679  0.00  0.00    +0.125 C 
ATOM     25  C   UNL     1     -10.896  -9.009  14.531  0.00  0.00    +0.125 C 
BRANCH  12   4
ATOM      4  S   UNL     1     -12.996  -7.316  14.807  0.00  0.00    +0.061 S 
ATOM      7  O   UNL     1     -13.539  -6.503  15.874  0.00  0.00    -0.153 OA
ATOM      8  O   UNL     1     -13.713  -8.471  14.309  0.00  0.00    -0.153 OA
BRANCH   4  27
ATOM      2 CL   UNL     1     -11.800  -3.540   9.937  0.00  0.00    -0.084 Cl
ATOM     27  C   UNL     1     -12.659  -6.254  13.437  0.00  0.00    +0.106 A 
ATOM     30  C   UNL     1     -12.410  -4.897  13.650  0.00  0.00    +0.030 A 
ATOM     31  C   UNL     1     -12.642  -6.771  12.142  0.00  0.00    +0.030 A 
ATOM     34  C   UNL     1     -12.145  -4.059  12.568  0.00  0.00    +0.022 A 
ATOM     35  C   UNL     1     -12.376  -5.931  11.060  0.00  0.00    +0.022 A 
ATOM     37  C   UNL     1     -12.128  -4.576  11.272  0.00  0.00    +0.041 A 
ENDBRANCH   4  27
ENDBRANCH  12   4
ENDBRANCH  20  10
ENDBRANCH  14  20
BRANCH  15  21
ATOM     21  C   UNL     1      -4.321 -12.000  15.891  0.00  0.00    +0.124 C 
BRANCH  21  11
ATOM     11  N   UNL     1      -3.573 -10.796  15.492  0.00  0.00    -0.188 NA
ATOM     38  H   UNL     1      -4.121  -9.937  15.364  0.00  0.00    +0.148 HD
BRANCH  11   3
ATOM      3  S   UNL     1      -2.153 -10.939  14.563  0.00  0.00    +0.058 S 
ATOM      5  O   UNL     1      -1.796 -12.341  14.447  0.00  0.00    -0.153 OA
ATOM      6  O   UNL     1      -1.178  -9.975  15.036  0.00  0.00    -0.153 OA
BRANCH   3  26
ATOM      1 CL   UNL     1      -4.102  -8.968   8.930  0.00  0.00    -0.084 Cl
ATOM     26  C   UNL     1      -2.702 -10.384  12.977  0.00  0.00    +0.105 A 
ATOM     28  C   UNL     1      -4.065 -10.337  12.688  0.00  0.00    +0.030 A 
ATOM     29  C   UNL     1      -1.771  -9.993  12.015  0.00  0.00    +0.030 A 
ATOM     32  C   UNL     1      -4.498  -9.899  11.437  0.00  0.00    +0.022 A 
ATOM     33  C   UNL     1      -2.203  -9.555  10.763  0.00  0.00    +0.022 A 
ATOM     36  C   UNL     1      -3.567  -9.508  10.474  0.00  0.00    +0.041 A 
ENDBRANCH   3  26
ENDBRANCH  11   3
ENDBRANCH  21  11
ENDBRANCH  15  21
TORSDOF 8
ENDMDL
MODEL 2
REMARK VINA RESULT:      -7.4      3.713      5.008
REMARK  Name = 40779107
REMARK  8 active torsions:
REMARK  status: ('A' for Active; 'I' for Inactive)
REMARK    1  A    between atoms: S_3  and  N_11
REMARK    2  A    between atoms: S_3  and  C_26
REMARK    3  A    between atoms: S_4  and  N_12
REMARK    4  A    between atoms: S_4  and  C_27
REMARK    5  A    between atoms: N_10  and  C_20
REMARK    6  A    between atoms: N_11  and  C_21
REMARK    7  A    between atoms: C_14  and  C_20
REMARK    8  A    between atoms: C_15  and  C_21
REMARK                            x       y       z     vdW  Elec       q    Type
REMARK                         _______ _______ _______ _____ _____    ______ ____
ROOT
ATOM      9  N   UNL     1      -8.596  -9.907  16.874  0.00  0.00    -0.298 NA
ATOM     13  C   UNL     1     -10.959 -10.173  15.820  0.00  0.00    -0.003 C 
ATOM     14  C   UNL     1     -10.657  -8.689  16.130  0.00  0.00    +0.020 C 
ATOM     15  C   UNL     1      -9.375 -10.929  17.623  0.00  0.00    +0.072 C 
ATOM     16  C   UNL     1     -10.832 -10.999  17.114  0.00  0.00    +0.024 C 
ATOM     17  C   UNL     1      -9.310  -8.607  16.882  0.00  0.00    +0.089 C 
ATOM     18  C   UNL     1      -9.862 -10.662  14.856  0.00  0.00    +0.019 C 
ATOM     19  C   UNL     1      -8.480 -10.363  15.466  0.00  0.00    +0.085 C 
ENDROOT
BRANCH  14  20
ATOM     20  C   UNL     1     -11.776  -7.994  16.903  0.00  0.00    +0.089 C 
BRANCH  20  10
ATOM     10  N   UNL     1     -12.343  -6.927  16.079  0.00  0.00    -0.299 NA
ATOM     12  N   UNL     1     -13.080  -5.729  13.571  0.00  0.00    -0.174 NA
ATOM     22  C   UNL     1     -11.323  -6.376  15.175  0.00  0.00    +0.101 C 
ATOM     23  C   UNL     1     -13.495  -7.424  15.313  0.00  0.00    +0.101 C 
ATOM     24  C   UNL     1     -11.900  -5.236  14.337  0.00  0.00    +0.125 C 
ATOM     25  C   UNL     1     -14.115  -6.304  14.477  0.00  0.00    +0.125 C 
BRANCH  12   4
ATOM      4  S   UNL     1     -13.668  -4.671  12.360  0.00  0.00    +0.061 S 
ATOM      7  O   UNL     1     -13.464  -3.303  12.788  0.00  0.00    -0.153 OA
ATOM      8  O   UNL     1     -14.971  -5.130  11.926  0.00  0.00    -0.153 OA
BRANCH   4  27
ATOM      2 CL   UNL     1      -9.567  -5.873   7.763  0.00  0.00    -0.084 Cl
ATOM     27  C   UNL     1     -12.514  -5.009  11.067  0.00  0.00    +0.106 A 
ATOM     30  C   UNL     1     -11.861  -3.958  10.422  0.00  0.00    +0.030 A 
ATOM     31  C   UNL     1     -12.256  -6.327  10.691  0.00  0.00    +0.030 A 
ATOM     34  C   UNL     1     -10.950  -4.226   9.401  0.00  0.00    +0.022 A 
ATOM     35  C   UNL     1     -11.344  -6.594   9.669  0.00  0.00    +0.022 A 
ATOM     37  C   UNL     1     -10.692  -5.544   9.024  0.00  0.00    +0.041 A 
ENDBRANCH   4  27
ENDBRANCH  12   4
ENDBRANCH  20  10
ENDBRANCH  14  20
BRANCH  15  21
ATOM     21  C   UNL     1      -9.312 -10.715  19.137  0.00  0.00    +0.124 C 
BRANCH  21  11
ATOM     11  N   UNL     1      -7.919 -10.447  19.530  0.00  0.00    -0.188 NA
ATOM     38  H   UNL     1      -7.495  -9.587  19.161  0.00  0.00    +0.148 HD
BRANCH  11   3
ATOM      3  S   UNL     1      -6.859 -11.737  19.862  0.00  0.00    +0.058 S 
ATOM      5  O   UNL     1      -7.617 -12.972  19.939  0.00  0.00    -0.153 OA
ATOM      6  O   UNL     1      -5.972 -11.357  20.946  0.00  0.00    -0.153 OA
BRANCH   3  26
ATOM      1 CL   UNL     1      -3.390 -11.923  14.632  0.00  0.00    -0.084 Cl
ATOM     26  C   UNL     1      -5.882 -11.789  18.390  0.00  0.00    +0.105 A 
ATOM     28  C   UNL     1      -6.133 -12.760  17.420  0.00  0.00    +0.030 A 
ATOM     29  C   UNL     1      -4.860 -10.859  18.198  0.00  0.00    +0.030 A 
ATOM     32  C   UNL     1      -5.363 -12.801  16.258  0.00  0.00    +0.022 A 
ATOM     33  C   UNL     1      -4.089 -10.900  17.035  0.00  0.00    +0.022 A 
ATOM     36  C   UNL     1      -4.340 -11.871  16.066  0.00  0.00    +0.041 A 
ENDBRANCH   3  26
ENDBRANCH  11   3
ENDBRANCH  21  11
ENDBRANCH  15  21
TORSDOF 8
ENDMDL
MODEL 3
REMARK VINA RESULT:      -7.4     28.259     31.494
REMARK  Name = 40779107
REMARK  8 active torsions:
REMARK  status: ('A' for Active; 'I' for Inactive)
REMARK    1  A    between atoms: S_3  and  N_11
REMARK    2  A    between atoms: S_3  and  C_26
REMARK    3  A    between atoms: S_4  and  N_12
REMARK    4  A    between atoms: S_4  and  C_27
REMARK    5  A    between atoms: N_10  and  C_20
REMARK    6  A    between atoms: N_11  and  C_21
REMARK    7  A    between atoms: C_14  and  C_20
REMARK    8  A    between atoms: C_15  and  C_21
REMARK                            x       y       z     vdW  Elec       q    Type
REMARK                         _______ _______ _______ _____ _____    ______ ____
ROOT
ATOM      9  N   UNL     1      11.372  12.894  22.392  0.00  0.00    -0.298 NA
ATOM     13  C   UNL     1      11.500  11.973  24.820  0.00  0.00    -0.003 C 
ATOM     14  C   UNL     1      12.826  12.660  24.420  0.00  0.00    +0.020 C 
ATOM     15  C   UNL     1      10.975  11.461  22.414  0.00  0.00    +0.072 C 
ATOM     16  C   UNL     1      11.186  10.848  23.817  0.00  0.00    +0.024 C 
ATOM     17  C   UNL     1      12.744  13.057  22.929  0.00  0.00    +0.089 C 
ATOM     18  C   UNL     1      10.389  13.031  24.684  0.00  0.00    +0.019 C 
ATOM     19  C   UNL     1      10.439  13.640  23.272  0.00  0.00    +0.085 C 
ENDROOT
BRANCH  14  20
ATOM     20  C   UNL     1      14.059  11.806  24.708  0.00  0.00    +0.089 C 
BRANCH  20  10
ATOM     10  N   UNL     1      15.050  12.016  23.653  0.00  0.00    -0.299 NA
ATOM     12  N   UNL     1      17.487  11.405  22.255  0.00  0.00    -0.174 NA
ATOM     22  C   UNL     1      16.359  12.348  24.234  0.00  0.00    +0.101 C 
ATOM     23  C   UNL     1      15.153  10.825  22.798  0.00  0.00    +0.101 C 
ATOM     24  C   UNL     1      17.391  12.603  23.137  0.00  0.00    +0.125 C 
ATOM     25  C   UNL     1      16.162  11.052  21.671  0.00  0.00    +0.125 C 
BRANCH  12   4
ATOM      4  S   UNL     1      18.800  11.403  21.156  0.00  0.00    +0.061 S 
ATOM      7  O   UNL     1      19.841  12.273  21.661  0.00  0.00    -0.153 OA
ATOM      8  O   UNL     1      18.287  11.558  19.810  0.00  0.00    -0.153 OA
BRANCH   4  27
ATOM      2 CL   UNL     1      20.767   5.478  21.802  0.00  0.00    -0.084 Cl
ATOM     27  C   UNL     1      19.353   9.737  21.338  0.00  0.00    +0.106 A 
ATOM     30  C   UNL     1      20.713   9.439  21.244  0.00  0.00    +0.030 A 
ATOM     31  C   UNL     1      18.430   8.718  21.575  0.00  0.00    +0.030 A 
ATOM     34  C   UNL     1      21.149   8.122  21.388  0.00  0.00    +0.022 A 
ATOM     35  C   UNL     1      18.868   7.401  21.718  0.00  0.00    +0.022 A 
ATOM     37  C   UNL     1      20.227   7.103  21.625  0.00  0.00    +0.041 A 
ENDBRANCH   4  27
ENDBRANCH  12   4
ENDBRANCH  20  10
ENDBRANCH  14  20
BRANCH  15  21
ATOM     21  C   UNL     1      11.676  10.644  21.326  0.00  0.00    +0.124 C 
BRANCH  21  11
ATOM     11  N   UNL     1      11.699   9.227  21.724  0.00  0.00    -0.188 NA
ATOM     38  H   UNL     1      12.341   8.974  22.485  0.00  0.00    +0.148 HD
BRANCH  11   3
ATOM      3  S   UNL     1      11.353   8.011  20.583  0.00  0.00    +0.058 S 
ATOM      5  O   UNL     1      10.728   8.610  19.419  0.00  0.00    -0.153 OA
ATOM      6  O   UNL     1      10.719   6.894  21.257  0.00  0.00    -0.153 OA
BRANCH   3  26
ATOM      1 CL   UNL     1      17.112   6.130  18.933  0.00  0.00    -0.084 Cl
ATOM     26  C   UNL     1      12.975   7.481  20.118  0.00  0.00    +0.105 A 
ATOM     28  C   UNL     1      13.829   6.931  21.074  0.00  0.00    +0.030 A 
ATOM     29  C   UNL     1      13.399   7.614  18.797  0.00  0.00    +0.030 A 
ATOM     32  C   UNL     1      15.108   6.512  20.707  0.00  0.00    +0.022 A 
ATOM     33  C   UNL     1      14.679   7.196  18.429  0.00  0.00    +0.022 A 
ATOM     36  C   UNL     1      15.533   6.646  19.385  0.00  0.00    +0.041 A 
ENDBRANCH   3  26
ENDBRANCH  11   3
ENDBRANCH  21  11
ENDBRANCH  15  21
TORSDOF 8
ENDMDL
MODEL 4
REMARK VINA RESULT:      -7.2     25.702     28.986
REMARK  Name = 40779107
REMARK  8 active torsions:
REMARK  status: ('A' for Active; 'I' for Inactive)
REMARK    1  A    between atoms: S_3  and  N_11
REMARK    2  A    between atoms: S_3  and  C_26
REMARK    3  A    between atoms: S_4  and  N_12
REMARK    4  A    between atoms: S_4  and  C_27
REMARK    5  A    between atoms: N_10  and  C_20
REMARK    6  A    between atoms: N_11  and  C_21
REMARK    7  A    between atoms: C_14  and  C_20
REMARK    8  A    between atoms: C_15  and  C_21
REMARK                            x       y       z     vdW  Elec       q    Type
REMARK                         _______ _______ _______ _____ _____    ______ ____
ROOT
ATOM      9  N   UNL     1      10.789   6.176   7.308  0.00  0.00    -0.298 NA
ATOM     13  C   UNL     1       9.164   7.754   6.030  0.00  0.00    -0.003 C 
ATOM     14  C   UNL     1       9.266   6.382   5.327  0.00  0.00    +0.020 C 
ATOM     15  C   UNL     1      11.456   7.476   7.029  0.00  0.00    +0.072 C 
ATOM     16  C   UNL     1      10.568   8.376   6.141  0.00  0.00    +0.024 C 
ATOM     17  C   UNL     1      10.348   5.541   6.042  0.00  0.00    +0.089 C 
ATOM     18  C   UNL     1       8.668   7.487   7.464  0.00  0.00    +0.019 C 
ATOM     19  C   UNL     1       9.586   6.448   8.133  0.00  0.00    +0.085 C 
ENDROOT
BRANCH  14  20
ATOM     20  C   UNL     1       9.538   6.490   3.828  0.00  0.00    +0.089 C 
BRANCH  20  10
ATOM     10  N   UNL     1      10.824   5.865   3.523  0.00  0.00    -0.299 NA
ATOM     12  N   UNL     1      12.904   4.999   1.736  0.00  0.00    -0.174 NA
ATOM     22  C   UNL     1      10.635   4.695   2.654  0.00  0.00    +0.101 C 
ATOM     23  C   UNL     1      11.732   6.834   2.893  0.00  0.00    +0.101 C 
ATOM     24  C   UNL     1      11.973   4.016   2.360  0.00  0.00    +0.125 C 
ATOM     25  C   UNL     1      13.092   6.197   2.604  0.00  0.00    +0.125 C 
BRANCH  12   4
ATOM      4  S   UNL     1      14.338   4.338   1.075  0.00  0.00    +0.061 S 
ATOM      7  O   UNL     1      14.636   3.089   1.744  0.00  0.00    -0.153 OA
ATOM      8  O   UNL     1      15.334   5.384   0.971  0.00  0.00    -0.153 OA
BRANCH   4  27
ATOM      2 CL   UNL     1      12.350   2.985  -4.723  0.00  0.00    -0.084 Cl
ATOM     27  C   UNL     1      13.779   3.957  -0.556  0.00  0.00    +0.106 A 
ATOM     30  C   UNL     1      14.347   4.601  -1.657  0.00  0.00    +0.030 A 
ATOM     31  C   UNL     1      12.770   3.013  -0.744  0.00  0.00    +0.030 A 
ATOM     34  C   UNL     1      13.904   4.300  -2.944  0.00  0.00    +0.022 A 
ATOM     35  C   UNL     1      12.328   2.712  -2.033  0.00  0.00    +0.022 A 
ATOM     37  C   UNL     1      12.895   3.356  -3.133  0.00  0.00    +0.041 A 
ENDBRANCH   4  27
ENDBRANCH  12   4
ENDBRANCH  20  10
ENDBRANCH  14  20
BRANCH  15  21
ATOM     21  C   UNL     1      12.856   7.298   6.436  0.00  0.00    +0.124 C 
BRANCH  21  11
ATOM     11  N   UNL     1      13.748   8.334   6.984  0.00  0.00    -0.188 NA
ATOM     38  H   UNL     1      13.696   8.497   7.996  0.00  0.00    +0.148 HD
BRANCH  11   3
ATOM      3  S   UNL     1      14.211   9.660   6.022  0.00  0.00    +0.058 S 
ATOM      5  O   UNL     1      14.475  10.803   6.876  0.00  0.00    -0.153 OA
ATOM      6  O   UNL     1      13.293   9.782   4.906  0.00  0.00    -0.153 OA
BRANCH   3  26
ATOM      1 CL   UNL     1      19.693   7.691   3.678  0.00  0.00    -0.084 Cl
ATOM     26  C   UNL     1      15.755   9.106   5.362  0.00  0.00    +0.105 A 
ATOM     28  C   UNL     1      15.818   8.605   4.062  0.00  0.00    +0.030 A 
ATOM     29  C   UNL     1      16.909   9.169   6.142  0.00  0.00    +0.030 A 
ATOM     32  C   UNL     1      17.036   8.168   3.541  0.00  0.00    +0.022 A 
ATOM     33  C   UNL     1      18.128   8.732   5.622  0.00  0.00    +0.022 A 
ATOM     36  C   UNL     1      18.191   8.231   4.321  0.00  0.00    +0.041 A 
ENDBRANCH   3  26
ENDBRANCH  11   3
ENDBRANCH  21  11
ENDBRANCH  15  21
TORSDOF 8
ENDMDL
MODEL 5
REMARK VINA RESULT:      -7.2     29.094     31.693
REMARK  Name = 40779107
REMARK  8 active torsions:
REMARK  status: ('A' for Active; 'I' for Inactive)
REMARK    1  A    between atoms: S_3  and  N_11
REMARK    2  A    between atoms: S_3  and  C_26
REMARK    3  A    between atoms: S_4  and  N_12
REMARK    4  A    between atoms: S_4  and  C_27
REMARK    5  A    between atoms: N_10  and  C_20
REMARK    6  A    between atoms: N_11  and  C_21
REMARK    7  A    between atoms: C_14  and  C_20
REMARK    8  A    between atoms: C_15  and  C_21
REMARK                            x       y       z     vdW  Elec       q    Type
REMARK                         _______ _______ _______ _____ _____    ______ ____
ROOT
ATOM      9  N   UNL     1      11.324  12.922  22.444  0.00  0.00    -0.298 NA
ATOM     13  C   UNL     1      11.441  11.901  24.833  0.00  0.00    -0.003 C 
ATOM     14  C   UNL     1      12.760  12.624  24.477  0.00  0.00    +0.020 C 
ATOM     15  C   UNL     1      10.949  11.484  22.401  0.00  0.00    +0.072 C 
ATOM     16  C   UNL     1      11.155  10.815  23.779  0.00  0.00    +0.024 C 
ATOM     17  C   UNL     1      12.688  13.083  23.003  0.00  0.00    +0.089 C 
ATOM     18  C   UNL     1      10.315  12.947  24.729  0.00  0.00    +0.019 C 
ATOM     19  C   UNL     1      10.371  13.617  23.344  0.00  0.00    +0.085 C 
ENDROOT
BRANCH  14  20
ATOM     20  C   UNL     1      14.003  11.777  24.742  0.00  0.00    +0.089 C 
BRANCH  20  10
ATOM     10  N   UNL     1      14.643  12.230  25.977  0.00  0.00    -0.299 NA
ATOM     12  N   UNL     1      14.804  12.526  28.833  0.00  0.00    -0.174 NA
ATOM     22  C   UNL     1      13.776  13.179  26.689  0.00  0.00    +0.101 C 
ATOM     23  C   UNL     1      14.970  11.085  26.839  0.00  0.00    +0.101 C 
ATOM     24  C   UNL     1      14.454  13.684  27.962  0.00  0.00    +0.125 C 
ATOM     25  C   UNL     1      15.672  11.549  28.115  0.00  0.00    +0.125 C 
BRANCH  12   4
ATOM      4  S   UNL     1      15.300  12.923  30.423  0.00  0.00    +0.061 S 
ATOM      7  O   UNL     1      15.079  14.335  30.648  0.00  0.00    -0.153 OA
ATOM      8  O   UNL     1      16.592  12.320  30.676  0.00  0.00    -0.153 OA
BRANCH   4  27
ATOM      2 CL   UNL     1      11.012   9.754  33.734  0.00  0.00    -0.084 Cl
ATOM     27  C   UNL     1      14.094  12.031  31.354  0.00  0.00    +0.106 A 
ATOM     30  C   UNL     1      14.182  10.643  31.462  0.00  0.00    +0.030 A 
ATOM     31  C   UNL     1      13.053  12.715  31.982  0.00  0.00    +0.030 A 
ATOM     34  C   UNL     1      13.228   9.939  32.197  0.00  0.00    +0.022 A 
ATOM     35  C   UNL     1      12.100  12.011  32.718  0.00  0.00    +0.022 A 
ATOM     37  C   UNL     1      12.187  10.623  32.826  0.00  0.00    +0.041 A 
ENDBRANCH   4  27
ENDBRANCH  12   4
ENDBRANCH  20  10
ENDBRANCH  14  20
BRANCH  15  21
ATOM     21  C   UNL     1      11.674  10.725  21.287  0.00  0.00    +0.124 C 
BRANCH  21  11
ATOM     11  N   UNL     1      11.884   9.330  21.710  0.00  0.00    -0.188 NA
ATOM     38  H   UNL     1      12.649   9.161  22.374  0.00  0.00    +0.148 HD
BRANCH  11   3
ATOM      3  S   UNL     1      11.492   8.048  20.660  0.00  0.00    +0.058 S 
ATOM      5  O   UNL     1      10.849   8.581  19.473  0.00  0.00    -0.153 OA
ATOM      6  O   UNL     1      10.857   6.989  21.419  0.00  0.00    -0.153 OA
BRANCH   3  26
ATOM      1 CL   UNL     1      17.178   5.963  19.005  0.00  0.00    -0.084 Cl
ATOM     26  C   UNL     1      13.093   7.461  20.193  0.00  0.00    +0.105 A 
ATOM     28  C   UNL     1      13.939   6.907  21.154  0.00  0.00    +0.030 A 
ATOM     29  C   UNL     1      13.510   7.553  18.866  0.00  0.00    +0.030 A 
ATOM     32  C   UNL     1      15.202   6.443  20.786  0.00  0.00    +0.022 A 
ATOM     33  C   UNL     1      14.773   7.089  18.498  0.00  0.00    +0.022 A 
ATOM     36  C   UNL     1      15.620   6.535  19.458  0.00  0.00    +0.041 A 
ENDBRANCH   3  26
ENDBRANCH  11   3
ENDBRANCH  21  11
ENDBRANCH  15  21
TORSDOF 8
ENDMDL
MODEL 6
REMARK VINA RESULT:      -7.1     28.677     31.628
REMARK  Name = 40779107
REMARK  8 active torsions:
REMARK  status: ('A' for Active; 'I' for Inactive)
REMARK    1  A    between atoms: S_3  and  N_11
REMARK    2  A    between atoms: S_3  and  C_26
REMARK    3  A    between atoms: S_4  and  N_12
REMARK    4  A    between atoms: S_4  and  C_27
REMARK    5  A    between atoms: N_10  and  C_20
REMARK    6  A    between atoms: N_11  and  C_21
REMARK    7  A    between atoms: C_14  and  C_20
REMARK    8  A    between atoms: C_15  and  C_21
REMARK                            x       y       z     vdW  Elec       q    Type
REMARK                         _______ _______ _______ _____ _____    ______ ____
ROOT
ATOM      9  N   UNL     1      21.016   6.911  22.966  0.00  0.00    -0.298 NA
ATOM     13  C   UNL     1      20.148   8.145  20.848  0.00  0.00    -0.003 C 
ATOM     14  C   UNL     1      19.028   7.295  21.489  0.00  0.00    +0.020 C 
ATOM     15  C   UNL     1      21.918   6.641  21.815  0.00  0.00    +0.072 C 
ATOM     16  C   UNL     1      21.345   7.239  20.510  0.00  0.00    +0.024 C 
ATOM     17  C   UNL     1      19.634   6.476  22.650  0.00  0.00    +0.089 C 
ATOM     18  C   UNL     1      20.620   9.145  21.921  0.00  0.00    +0.019 C 
ATOM     19  C   UNL     1      20.998   8.376  23.200  0.00  0.00    +0.085 C 
ENDROOT
BRANCH  14  20
ATOM     20  C   UNL     1      18.302   6.399  20.487  0.00  0.00    +0.089 C 
BRANCH  20  10
ATOM     10  N   UNL     1      16.973   6.948  20.221  0.00  0.00    -0.299 NA
ATOM     12  N   UNL     1      14.130   6.736  19.849  0.00  0.00    -0.174 NA
ATOM     22  C   UNL     1      16.412   6.366  18.993  0.00  0.00    +0.101 C 
ATOM     23  C   UNL     1      16.077   6.707  21.360  0.00  0.00    +0.101 C 
ATOM     24  C   UNL     1      15.038   6.962  18.689  0.00  0.00    +0.125 C 
ATOM     25  C   UNL     1      14.696   7.310  21.103  0.00  0.00    +0.125 C 
BRANCH  12   4
ATOM      4  S   UNL     1      12.475   7.075  19.566  0.00  0.00    +0.061 S 
ATOM      7  O   UNL     1      11.670   6.285  20.474  0.00  0.00    -0.153 OA
ATOM      8  O   UNL     1      12.228   7.054  18.139  0.00  0.00    -0.153 OA
BRANCH   4  27
ATOM      2 CL   UNL     1      12.231  13.046  21.483  0.00  0.00    -0.084 Cl
ATOM     27  C   UNL     1      12.407   8.754  20.105  0.00  0.00    +0.106 A 
ATOM     30  C   UNL     1      11.753   9.079  21.295  0.00  0.00    +0.030 A 
ATOM     31  C   UNL     1      13.006   9.756  19.342  0.00  0.00    +0.030 A 
ATOM     34  C   UNL     1      11.699  10.406  21.719  0.00  0.00    +0.022 A 
ATOM     35  C   UNL     1      12.951  11.084  19.768  0.00  0.00    +0.022 A 
ATOM     37  C   UNL     1      12.298  11.409  20.956  0.00  0.00    +0.041 A 
ENDBRANCH   4  27
ENDBRANCH  12   4
ENDBRANCH  20  10
ENDBRANCH  14  20
BRANCH  15  21
ATOM     21  C   UNL     1      22.243   5.153  21.664  0.00  0.00    +0.124 C 
BRANCH  21  11
ATOM     11  N   UNL     1      23.611   4.906  22.149  0.00  0.00    -0.188 NA
ATOM     38  H   UNL     1      23.885   5.384  23.016  0.00  0.00    +0.148 HD
BRANCH  11   3
ATOM      3  S   UNL     1      24.861   4.556  21.046  0.00  0.00    +0.058 S 
ATOM      5  O   UNL     1      26.006   5.398  21.337  0.00  0.00    -0.153 OA
ATOM      6  O   UNL     1      24.312   4.510  19.705  0.00  0.00    -0.153 OA
BRANCH   3  26
ATOM      1 CL   UNL     1      26.345  -1.338  22.622  0.00  0.00    -0.084 Cl
ATOM     26  C   UNL     1      25.279   2.896  21.490  0.00  0.00    +0.105 A 
ATOM     28  C   UNL     1      24.358   1.868  21.289  0.00  0.00    +0.030 A 
ATOM     29  C   UNL     1      26.529   2.616  22.041  0.00  0.00    +0.030 A 
ATOM     32  C   UNL     1      24.688   0.558  21.639  0.00  0.00    +0.022 A 
ATOM     33  C   UNL     1      26.859   1.306  22.392  0.00  0.00    +0.022 A 
ATOM     36  C   UNL     1      25.939   0.278  22.190  0.00  0.00    +0.041 A 
ENDBRANCH   3  26
ENDBRANCH  11   3
ENDBRANCH  21  11
ENDBRANCH  15  21
TORSDOF 8
ENDMDL
MODEL 7
REMARK VINA RESULT:      -7.1     25.534     28.921
REMARK  Name = 40779107
REMARK  8 active torsions:
REMARK  status: ('A' for Active; 'I' for Inactive)
REMARK    1  A    between atoms: S_3  and  N_11
REMARK    2  A    between atoms: S_3  and  C_26
REMARK    3  A    between atoms: S_4  and  N_12
REMARK    4  A    between atoms: S_4  and  C_27
REMARK    5  A    between atoms: N_10  and  C_20
REMARK    6  A    between atoms: N_11  and  C_21
REMARK    7  A    between atoms: C_14  and  C_20
REMARK    8  A    between atoms: C_15  and  C_21
REMARK                            x       y       z     vdW  Elec       q    Type
REMARK                         _______ _______ _______ _____ _____    ______ ____
ROOT
ATOM      9  N   UNL     1      13.678   9.662   5.962  0.00  0.00    -0.298 NA
ATOM     13  C   UNL     1      14.894   7.414   5.479  0.00  0.00    -0.003 C 
ATOM     14  C   UNL     1      14.226   7.966   4.199  0.00  0.00    +0.020 C 
ATOM     15  C   UNL     1      13.237   8.625   6.933  0.00  0.00    +0.072 C 
ATOM     16  C   UNL     1      13.829   7.243   6.577  0.00  0.00    +0.024 C 
ATOM     17  C   UNL     1      13.402   9.218   4.574  0.00  0.00    +0.089 C 
ATOM     18  C   UNL     1      15.884   8.490   5.965  0.00  0.00    +0.019 C 
ATOM     19  C   UNL     1      15.145   9.832   6.110  0.00  0.00    +0.085 C 
ENDROOT
BRANCH  14  20
ATOM     20  C   UNL     1      13.373   6.930   3.469  0.00  0.00    +0.089 C 
BRANCH  20  10
ATOM     10  N   UNL     1      13.938   6.686   2.142  0.00  0.00    -0.299 NA
ATOM     12  N   UNL     1      13.866   5.625  -0.529  0.00  0.00    -0.174 NA
ATOM     22  C   UNL     1      14.076   5.244   1.898  0.00  0.00    +0.101 C 
ATOM     23  C   UNL     1      13.104   7.307   1.104  0.00  0.00    +0.101 C 
ATOM     24  C   UNL     1      14.699   4.983   0.527  0.00  0.00    +0.125 C 
ATOM     25  C   UNL     1      13.708   7.087  -0.283  0.00  0.00    +0.125 C 
BRANCH  12   4
ATOM      4  S   UNL     1      14.251   5.188  -2.139  0.00  0.00    +0.061 S 
ATOM      7  O   UNL     1      15.416   4.329  -2.130  0.00  0.00    -0.153 OA
ATOM      8  O   UNL     1      14.203   6.371  -2.972  0.00  0.00    -0.153 OA
BRANCH   4  27
ATOM      2 CL   UNL     1       9.264   1.642  -3.536  0.00  0.00    -0.084 Cl
ATOM     27  C   UNL     1      12.848   4.190  -2.532  0.00  0.00    +0.106 A 
ATOM     30  C   UNL     1      11.796   4.728  -3.274  0.00  0.00    +0.030 A 
ATOM     31  C   UNL     1      12.792   2.865  -2.100  0.00  0.00    +0.030 A 
ATOM     34  C   UNL     1      10.688   3.940  -3.584  0.00  0.00    +0.022 A 
ATOM     35  C   UNL     1      11.683   2.077  -2.411  0.00  0.00    +0.022 A 
ATOM     37  C   UNL     1      10.632   2.614  -3.152  0.00  0.00    +0.041 A 
ENDBRANCH   4  27
ENDBRANCH  12   4
ENDBRANCH  20  10
ENDBRANCH  14  20
BRANCH  15  21
ATOM     21  C   UNL     1      11.715   8.571   7.078  0.00  0.00    +0.124 C 
BRANCH  21  11
ATOM     11  N   UNL     1      11.249   7.205   6.785  0.00  0.00    -0.188 NA
ATOM     38  H   UNL     1      11.959   6.538   6.460  0.00  0.00    +0.148 HD
BRANCH  11   3
ATOM      3  S   UNL     1       9.654   6.940   6.250  0.00  0.00    +0.058 S 
ATOM      5  O   UNL     1       8.991   8.218   6.068  0.00  0.00    -0.153 OA
ATOM      6  O   UNL     1       9.043   5.912   7.070  0.00  0.00    -0.153 OA
BRANCH   3  26
ATOM      1 CL   UNL     1      10.606   4.431   0.574  0.00  0.00    -0.084 Cl
ATOM     26  C   UNL     1       9.922   6.234   4.651  0.00  0.00    +0.105 A 
ATOM     28  C   UNL     1      10.475   4.958   4.537  0.00  0.00    +0.030 A 
ATOM     29  C   UNL     1       9.582   6.953   3.506  0.00  0.00    +0.030 A 
ATOM     32  C   UNL     1      10.686   4.401   3.276  0.00  0.00    +0.022 A 
ATOM     33  C   UNL     1       9.793   6.395   2.244  0.00  0.00    +0.022 A 
ATOM     36  C   UNL     1      10.345   5.120   2.130  0.00  0.00    +0.041 A 
ENDBRANCH   3  26
ENDBRANCH  11   3
ENDBRANCH  21  11
ENDBRANCH  15  21
TORSDOF 8
ENDMDL
MODEL 8
REMARK VINA RESULT:      -7.1     26.221     30.308
REMARK  Name = 40779107
REMARK  8 active torsions:
REMARK  status: ('A' for Active; 'I' for Inactive)
REMARK    1  A    between atoms: S_3  and  N_11
REMARK    2  A    between atoms: S_3  and  C_26
REMARK    3  A    between atoms: S_4  and  N_12
REMARK    4  A    between atoms: S_4  and  C_27
REMARK    5  A    between atoms: N_10  and  C_20
REMARK    6  A    between atoms: N_11  and  C_21
REMARK    7  A    between atoms: C_14  and  C_20
REMARK    8  A    between atoms: C_15  and  C_21
REMARK                            x       y       z     vdW  Elec       q    Type
REMARK                         _______ _______ _______ _____ _____    ______ ____
ROOT
ATOM      9  N   UNL     1      10.332   7.267   3.171  0.00  0.00    -0.298 NA
ATOM     13  C   UNL     1      10.289   5.757   5.288  0.00  0.00    -0.003 C 
ATOM     14  C   UNL     1      11.096   7.049   5.548  0.00  0.00    +0.020 C 
ATOM     15  C   UNL     1      10.768   5.889   2.821  0.00  0.00    +0.072 C 
ATOM     16  C   UNL     1      10.896   5.010   4.086  0.00  0.00    +0.024 C 
ATOM     17  C   UNL     1      11.211   7.834   4.222  0.00  0.00    +0.089 C 
ATOM     18  C   UNL     1       8.867   6.192   4.884  0.00  0.00    +0.019 C 
ATOM     19  C   UNL     1       8.954   7.187   3.713  0.00  0.00    +0.085 C 
ENDROOT
BRANCH  14  20
ATOM     20  C   UNL     1      12.468   6.788   6.167  0.00  0.00    +0.089 C 
BRANCH  20  10
ATOM     10  N   UNL     1      13.404   7.820   5.722  0.00  0.00    -0.299 NA
ATOM     12  N   UNL     1      15.888   9.264   5.840  0.00  0.00    -0.174 NA
ATOM     22  C   UNL     1      13.674   8.774   6.808  0.00  0.00    +0.101 C 
ATOM     23  C   UNL     1      14.655   7.213   5.248  0.00  0.00    +0.101 C 
ATOM     24  C   UNL     1      14.623   9.876   6.339  0.00  0.00    +0.125 C 
ATOM     25  C   UNL     1      15.624   8.285   4.748  0.00  0.00    +0.125 C 
BRANCH  12   4
ATOM      4  S   UNL     1      17.172  10.359   5.552  0.00  0.00    +0.061 S 
ATOM      7  O   UNL     1      17.486  11.054   6.783  0.00  0.00    -0.153 OA
ATOM      8  O   UNL     1      16.903  11.090   4.331  0.00  0.00    -0.153 OA
BRANCH   4  27
ATOM      2 CL   UNL     1      21.828   6.312   4.395  0.00  0.00    -0.084 Cl
ATOM     27  C   UNL     1      18.482   9.221   5.227  0.00  0.00    +0.106 A 
ATOM     30  C   UNL     1      19.247   8.717   6.280  0.00  0.00    +0.030 A 
ATOM     31  C   UNL     1      18.751   8.825   3.917  0.00  0.00    +0.030 A 
ATOM     34  C   UNL     1      20.281   7.819   6.022  0.00  0.00    +0.022 A 
ATOM     35  C   UNL     1      19.786   7.925   3.660  0.00  0.00    +0.022 A 
ATOM     37  C   UNL     1      20.551   7.422   4.712  0.00  0.00    +0.041 A 
ENDBRANCH   4  27
ENDBRANCH  12   4
ENDBRANCH  20  10
ENDBRANCH  14  20
BRANCH  15  21
ATOM     21  C   UNL     1      12.052   5.876   1.988  0.00  0.00    +0.124 C 
BRANCH  21  11
ATOM     11  N   UNL     1      12.766   4.609   2.219  0.00  0.00    -0.188 NA
ATOM     38  H   UNL     1      12.611   4.154   3.127  0.00  0.00    +0.148 HD
BRANCH  11   3
ATOM      3  S   UNL     1      14.269   4.325   1.471  0.00  0.00    +0.058 S 
ATOM      5  O   UNL     1      14.864   3.126   2.032  0.00  0.00    -0.153 OA
ATOM      6  O   UNL     1      15.023   5.563   1.432  0.00  0.00    -0.153 OA
BRANCH   3  26
ATOM      1 CL   UNL     1      12.540   3.043  -4.427  0.00  0.00    -0.084 Cl
ATOM     26  C   UNL     1      13.782   3.963  -0.190  0.00  0.00    +0.105 A 
ATOM     28  C   UNL     1      14.510   4.486  -1.259  0.00  0.00    +0.030 A 
ATOM     29  C   UNL     1      12.670   3.157  -0.431  0.00  0.00    +0.030 A 
ATOM     32  C   UNL     1      14.126   4.200  -2.570  0.00  0.00    +0.022 A 
ATOM     33  C   UNL     1      12.285   2.872  -1.741  0.00  0.00    +0.022 A 
ATOM     36  C   UNL     1      13.014   3.394  -2.811  0.00  0.00    +0.041 A 
ENDBRANCH   3  26
ENDBRANCH  11   3
ENDBRANCH  21  11
ENDBRANCH  15  21
TORSDOF 8
ENDMDL
MODEL 9
REMARK VINA RESULT:      -6.9     25.282     28.108
REMARK  Name = 40779107
REMARK  8 active torsions:
REMARK  status: ('A' for Active; 'I' for Inactive)
REMARK    1  A    between atoms: S_3  and  N_11
REMARK    2  A    between atoms: S_3  and  C_26
REMARK    3  A    between atoms: S_4  and  N_12
REMARK    4  A    between atoms: S_4  and  C_27
REMARK    5  A    between atoms: N_10  and  C_20
REMARK    6  A    between atoms: N_11  and  C_21
REMARK    7  A    between atoms: C_14  and  C_20
REMARK    8  A    between atoms: C_15  and  C_21
REMARK                            x       y       z     vdW  Elec       q    Type
REMARK                         _______ _______ _______ _____ _____    ______ ____
ROOT
ATOM      9  N   UNL     1      11.211   7.091   7.236  0.00  0.00    -0.298 NA
ATOM     13  C   UNL     1       9.186   5.570   6.645  0.00  0.00    -0.003 C 
ATOM     14  C   UNL     1      10.345   5.359   5.644  0.00  0.00    +0.020 C 
ATOM     15  C   UNL     1       9.970   7.907   7.147  0.00  0.00    +0.072 C 
ATOM     16  C   UNL     1       8.780   7.055   6.650  0.00  0.00    +0.024 C 
ATOM     17  C   UNL     1      11.457   6.386   5.955  0.00  0.00    +0.089 C 
ATOM     18  C   UNL     1       9.739   5.241   8.045  0.00  0.00    +0.019 C 
ATOM     19  C   UNL     1      11.012   6.071   8.295  0.00  0.00    +0.085 C 
ENDROOT
BRANCH  14  20
ATOM     20  C   UNL     1       9.902   5.435   4.184  0.00  0.00    +0.089 C 
BRANCH  20  10
ATOM     10  N   UNL     1      11.073   5.315   3.316  0.00  0.00    -0.299 NA
ATOM     12  N   UNL     1      12.365   4.883   0.784  0.00  0.00    -0.174 NA
ATOM     22  C   UNL     1      11.138   3.974   2.720  0.00  0.00    +0.101 C 
ATOM     23  C   UNL     1      11.046   6.345   2.268  0.00  0.00    +0.101 C 
ATOM     24  C   UNL     1      12.379   3.831   1.840  0.00  0.00    +0.125 C 
ATOM     25  C   UNL     1      12.286   6.248   1.379  0.00  0.00    +0.125 C 
BRANCH  12   4
ATOM      4  S   UNL     1      13.521   4.690  -0.464  0.00  0.00    +0.061 S 
ATOM      7  O   UNL     1      14.428   3.619  -0.107  0.00  0.00    -0.153 OA
ATOM      8  O   UNL     1      14.022   5.994  -0.847  0.00  0.00    -0.153 OA
BRANCH   4  27
ATOM      2 CL   UNL     1       9.815   2.613  -5.083  0.00  0.00    -0.084 Cl
ATOM     27  C   UNL     1      12.479   4.106  -1.763  0.00  0.00    +0.106 A 
ATOM     30  C   UNL     1      11.875   5.013  -2.635  0.00  0.00    +0.030 A 
ATOM     31  C   UNL     1      12.259   2.737  -1.918  0.00  0.00    +0.030 A 
ATOM     34  C   UNL     1      11.051   4.551  -3.660  0.00  0.00    +0.022 A 
ATOM     35  C   UNL     1      11.435   2.276  -2.945  0.00  0.00    +0.022 A 
ATOM     37  C   UNL     1      10.831   3.182  -3.816  0.00  0.00    +0.041 A 
ENDBRANCH   4  27
ENDBRANCH  12   4
ENDBRANCH  20  10
ENDBRANCH  14  20
BRANCH  15  21
ATOM     21  C   UNL     1      10.160   9.167   6.299  0.00  0.00    +0.124 C 
BRANCH  21  11
ATOM     11  N   UNL     1       9.897  10.353   7.131  0.00  0.00    -0.188 NA
ATOM     38  H   UNL     1       9.053  10.895   6.905  0.00  0.00    +0.148 HD
BRANCH  11   3
ATOM      3  S   UNL     1      11.189  11.214   7.829  0.00  0.00    +0.058 S 
ATOM      5  O   UNL     1      11.348  12.481   7.141  0.00  0.00    -0.153 OA
ATOM      6  O   UNL     1      12.323  10.323   7.987  0.00  0.00    -0.153 OA
BRANCH   3  26
ATOM      1 CL   UNL     1       8.976  12.402  13.583  0.00  0.00    -0.084 Cl
ATOM     26  C   UNL     1      10.566  11.548   9.450  0.00  0.00    +0.105 A 
ATOM     28  C   UNL     1       9.196  11.473   9.699  0.00  0.00    +0.030 A 
ATOM     29  C   UNL     1      11.445  11.888  10.478  0.00  0.00    +0.030 A 
ATOM     32  C   UNL     1       8.704  11.737  10.977  0.00  0.00    +0.022 A 
ATOM     33  C   UNL     1      10.954  12.152  11.757  0.00  0.00    +0.022 A 
ATOM     36  C   UNL     1       9.583  12.077  12.006  0.00  0.00    +0.041 A 
ENDBRANCH   3  26
ENDBRANCH  11   3
ENDBRANCH  21  11
ENDBRANCH  15  21
TORSDOF 8
ENDMDL
MODEL 10
REMARK VINA RESULT:      -6.9      4.043      6.297
REMARK  Name = 40779107
REMARK  8 active torsions:
REMARK  status: ('A' for Active; 'I' for Inactive)
REMARK    1  A    between atoms: S_3  and  N_11
REMARK    2  A    between atoms: S_3  and  C_26
REMARK    3  A    between atoms: S_4  and  N_12
REMARK    4  A    between atoms: S_4  and  C_27
REMARK    5  A    between atoms: N_10  and  C_20
REMARK    6  A    between atoms: N_11  and  C_21
REMARK    7  A    between atoms: C_14  and  C_20
REMARK    8  A    between atoms: C_15  and  C_21
REMARK                            x       y       z     vdW  Elec       q    Type
REMARK                         _______ _______ _______ _____ _____    ______ ____
ROOT
ATOM      9  N   UNL     1      -3.360 -10.825  14.048  0.00  0.00    -0.298 NA
ATOM     13  C   UNL     1      -3.888 -11.513  11.596  0.00  0.00    -0.003 C 
ATOM     14  C   UNL     1      -4.905 -10.467  12.106  0.00  0.00    +0.020 C 
ATOM     15  C   UNL     1      -3.442 -12.306  13.942  0.00  0.00    +0.072 C 
ATOM     16  C   UNL     1      -3.903 -12.737  12.531  0.00  0.00    +0.024 C 
ATOM     17  C   UNL     1      -4.632 -10.205  13.604  0.00  0.00    +0.089 C 
ATOM     18  C   UNL     1      -2.492 -10.871  11.705  0.00  0.00    +0.019 C 
ATOM     19  C   UNL     1      -2.280 -10.361  13.142  0.00  0.00    +0.085 C 
ENDROOT
BRANCH  14  20
ATOM     20  C   UNL     1      -6.358 -10.869  11.861  0.00  0.00    +0.089 C 
BRANCH  20  10
ATOM     10  N   UNL     1      -6.816 -10.285  10.601  0.00  0.00    -0.299 NA
ATOM     12  N   UNL     1      -8.328  -8.406   9.036  0.00  0.00    -0.174 NA
ATOM     22  C   UNL     1      -8.275 -10.405  10.478  0.00  0.00    +0.101 C 
ATOM     23  C   UNL     1      -6.405  -8.877  10.505  0.00  0.00    +0.101 C 
ATOM     24  C   UNL     1      -8.757  -9.829   9.147  0.00  0.00    +0.125 C 
ATOM     25  C   UNL     1      -6.849  -8.271   9.174  0.00  0.00    +0.125 C 
BRANCH  12   4
ATOM      4  S   UNL     1      -9.030  -7.522   7.749  0.00  0.00    +0.061 S 
ATOM      7  O   UNL     1      -9.912  -8.394   7.003  0.00  0.00    -0.153 OA
ATOM      8  O   UNL     1      -7.995  -6.760   7.082  0.00  0.00    -0.153 OA
BRANCH   4  27
ATOM      2 CL   UNL     1     -12.597  -3.502  10.992  0.00  0.00    -0.084 Cl
ATOM     27  C   UNL     1     -10.034  -6.391   8.661  0.00  0.00    +0.106 A 
ATOM     30  C   UNL     1      -9.811  -5.018   8.554  0.00  0.00    +0.030 A 
ATOM     31  C   UNL     1     -11.048  -6.871   9.489  0.00  0.00    +0.030 A 
ATOM     34  C   UNL     1     -10.604  -4.126   9.275  0.00  0.00    +0.022 A 
ATOM     35  C   UNL     1     -11.841  -5.978  10.210  0.00  0.00    +0.022 A 
ATOM     37  C   UNL     1     -11.619  -4.605  10.103  0.00  0.00    +0.041 A 
ENDBRANCH   4  27
ENDBRANCH  12   4
ENDBRANCH  20  10
ENDBRANCH  14  20
BRANCH  15  21
ATOM     21  C   UNL     1      -4.316 -12.921  15.037  0.00  0.00    +0.124 C 
BRANCH  21  11
ATOM     11  N   UNL     1      -3.937 -12.346  16.339  0.00  0.00    -0.188 NA
ATOM     38  H   UNL     1      -2.936 -12.170  16.489  0.00  0.00    +0.148 HD
BRANCH  11   3
ATOM      3  S   UNL     1      -4.870 -12.675  17.725  0.00  0.00    +0.058 S 
ATOM      5  O   UNL     1      -4.087 -12.379  18.910  0.00  0.00    -0.153 OA
ATOM      6  O   UNL     1      -5.503 -13.971  17.575  0.00  0.00    -0.153 OA
BRANCH   3  26
ATOM      1 CL   UNL     1      -9.402  -8.353  17.273  0.00  0.00    -0.084 Cl
ATOM     26  C   UNL     1      -6.146 -11.458  17.598  0.00  0.00    +0.105 A 
ATOM     28  C   UNL     1      -5.906 -10.264  16.917  0.00  0.00    +0.030 A 
ATOM     29  C   UNL     1      -7.392 -11.692  18.178  0.00  0.00    +0.030 A 
ATOM     32  C   UNL     1      -6.913  -9.305  16.816  0.00  0.00    +0.022 A 
ATOM     33  C   UNL     1      -8.400 -10.731  18.078  0.00  0.00    +0.022 A 
ATOM     36  C   UNL     1      -8.160  -9.538  17.397  0.00  0.00    +0.041 A 
ENDBRANCH   3  26
ENDBRANCH  11   3
ENDBRANCH  21  11
ENDBRANCH  15  21
TORSDOF 8
ENDMDL
