REMARK  Name = 7161627
REMARK  7 active torsions:
REMARK  status: ('A' for Active; 'I' for Inactive)
REMARK    1  A    between atoms: O_2  and  C_19
REMARK    2  A    between atoms: O_2  and  C_22
REMARK    3  A    between atoms: O_5  and  C_21
REMARK    4  A    between atoms: O_5  and  C_23
REMARK    5  A    between atoms: C_8  and  C_15
REMARK    6  A    between atoms: C_13  and  C_19
REMARK    7  A    between atoms: C_20  and  C_21
REMARK                            x       y       z     vdW  Elec       q    Type
REMARK                         _______ _______ _______ _____ _____    ______ ____
ROOT
ATOM      1  O   UNL     1      -2.265   1.543  -1.342  0.00  0.00    -0.275 OA
ATOM      4  O   UNL     1       3.309  -2.373   0.916  0.00  0.00    -0.273 OA
ATOM      6  N   UNL     1      -0.723   0.114  -0.346  0.00  0.00    -0.285 N 
ATOM      7  N   UNL     1       1.846  -1.118  -0.379  0.00  0.00    -0.296 N 
ATOM     13  C   UNL     1       0.428   0.854  -0.881  0.00  0.00    +0.202 C 
ATOM     15  C   UNL     1      -2.011   0.605  -0.583  0.00  0.00    +0.219 C 
ATOM     16  C   UNL     1      -0.417  -1.006   0.560  0.00  0.00    +0.127 C 
ATOM     17  C   UNL     1       1.568  -0.052  -1.347  0.00  0.00    +0.141 C 
ATOM     18  C   UNL     1       0.675  -1.905  -0.003  0.00  0.00    +0.127 C 
ATOM     20  C   UNL     1       3.100  -1.440   0.137  0.00  0.00    +0.241 C 
ENDROOT
BRANCH  15   8
ATOM      8  C   UNL     1      -3.134  -0.075   0.143  0.00  0.00    +0.075 C 
ATOM      9  C   UNL     1      -3.647  -1.258  -0.681  0.00  0.00    +0.013 C 
ATOM     10  C   UNL     1      -4.251   0.930   0.435  0.00  0.00    +0.013 C 
ATOM     11  C   UNL     1      -4.854  -1.923  -0.024  0.00  0.00    +0.001 C 
ATOM     12  C   UNL     1      -5.456   0.260   1.090  0.00  0.00    +0.001 C 
ATOM     14  C   UNL     1      -5.964  -0.917   0.263  0.00  0.00    +0.000 C 
ENDBRANCH  15   8
BRANCH  13  19
ATOM      3  O   UNL     1       0.373   1.839   1.318  0.00  0.00    -0.249 OA
ATOM     19  C   UNL     1       0.875   1.792   0.203  0.00  0.00    +0.329 C 
BRANCH  19   2
ATOM      2  O   UNL     1       1.905   2.559  -0.254  0.00  0.00    -0.467 OA
ATOM     22  C   UNL     1       2.431   3.504   0.683  0.00  0.00    +0.280 C 
ENDBRANCH  19   2
ENDBRANCH  13  19
BRANCH  20  21
ATOM     21  C   UNL     1       4.253  -0.572  -0.301  0.00  0.00    +0.255 C 
BRANCH  21   5
ATOM      5  O   UNL     1       5.395  -1.054   0.363  0.00  0.00    -0.374 OA
ATOM     23  C   UNL     1       6.564  -0.309   0.030  0.00  0.00    +0.194 C 
ENDBRANCH  21   5
ENDBRANCH  20  21
TORSDOF 5
