MODEL 1
REMARK VINA RESULT:      -6.0      0.000      0.000
REMARK  Name = 75536823
REMARK  6 active torsions:
REMARK  status: ('A' for Active; 'I' for Inactive)
REMARK    1  A    between atoms: O_4  and  C_9
REMARK    2  A    between atoms: N_6  and  C_8
REMARK    3  A    between atoms: N_6  and  C_11
REMARK    4  A    between atoms: N_7  and  C_15
REMARK    5  A    between atoms: C_10  and  C_15
REMARK    6  A    between atoms: C_16  and  C_17
REMARK                            x       y       z     vdW  Elec       q    Type
REMARK                         _______ _______ _______ _____ _____    ______ ____
ROOT
ATOM      2  O   UNL     1      -4.782 -11.237  18.750  0.00  0.00    -0.371 OA
ATOM      8  C   UNL     1      -6.896 -10.441  18.015  0.00  0.00    +0.111 C 
ATOM      9  C   UNL     1      -5.863 -10.174  16.935  0.00  0.00    +0.164 C 
ATOM     10  C   UNL     1      -4.778 -11.173  17.314  0.00  0.00    +0.165 C 
ATOM     12  C   UNL     1      -6.010 -10.660  19.230  0.00  0.00    +0.181 C 
ENDROOT
BRANCH   9   4
ATOM      4  O   UNL     1      -6.363 -10.408  15.632  0.00  0.00    -0.388 OA
ATOM     24  H   UNL     1      -6.655  -9.559  15.259  0.00  0.00    +0.210 HD
ENDBRANCH   9   4
BRANCH   8   6
ATOM      6  N   UNL     1      -7.844  -9.354  18.195  0.00  0.00    -0.302 NA
ATOM     23  H   UNL     1      -8.160  -9.323  19.164  0.00  0.00    +0.123 HD
BRANCH   6  11
ATOM      3  O   UNL     1     -10.603  -8.312  17.836  0.00  0.00    -0.377 OA
ATOM     11  C   UNL     1      -8.928  -9.480  17.213  0.00  0.00    +0.106 C 
ATOM     13  C   UNL     1     -10.246  -9.714  17.952  0.00  0.00    +0.180 C 
ATOM     14  C   UNL     1      -9.502  -8.094  16.917  0.00  0.00    +0.180 C 
ENDBRANCH   6  11
ENDBRANCH   8   6
BRANCH  10  15
ATOM     15  C   UNL     1      -3.398 -10.774  16.823  0.00  0.00    +0.138 C 
BRANCH  15   7
ATOM      5  O   UNL     1      -2.680 -12.335  14.522  0.00  0.00    -0.270 OA
ATOM      7  N   UNL     1      -3.435 -10.349  15.453  0.00  0.00    -0.309 N 
ATOM     16  C   UNL     1      -3.067 -11.176  14.396  0.00  0.00    +0.244 C 
ATOM     25  H   UNL     1      -3.678  -9.379  15.286  0.00  0.00    +0.149 HD
BRANCH  16  17
ATOM      1  F   UNL     1      -3.327  -8.913   9.265  0.00  0.00    -0.205 F 
ATOM     17  C   UNL     1      -3.136 -10.577  13.039  0.00  0.00    +0.037 A 
ATOM     18  C   UNL     1      -1.961 -10.294  12.341  0.00  0.00    +0.016 A 
ATOM     19  C   UNL     1      -4.375 -10.297  12.462  0.00  0.00    +0.016 A 
ATOM     20  C   UNL     1      -2.026  -9.731  11.067  0.00  0.00    +0.039 A 
ATOM     21  C   UNL     1      -4.438  -9.734  11.187  0.00  0.00    +0.039 A 
ATOM     22  C   UNL     1      -3.264  -9.451  10.489  0.00  0.00    +0.123 A 
ENDBRANCH  16  17
ENDBRANCH  15   7
ENDBRANCH  10  15
TORSDOF 6
ENDMDL
MODEL 2
REMARK VINA RESULT:      -6.0     21.507     25.247
REMARK  Name = 75536823
REMARK  6 active torsions:
REMARK  status: ('A' for Active; 'I' for Inactive)
REMARK    1  A    between atoms: O_4  and  C_9
REMARK    2  A    between atoms: N_6  and  C_8
REMARK    3  A    between atoms: N_6  and  C_11
REMARK    4  A    between atoms: N_7  and  C_15
REMARK    5  A    between atoms: C_10  and  C_15
REMARK    6  A    between atoms: C_16  and  C_17
REMARK                            x       y       z     vdW  Elec       q    Type
REMARK                         _______ _______ _______ _____ _____    ______ ____
ROOT
ATOM      2  O   UNL     1     -15.767   4.573  31.810  0.00  0.00    -0.371 OA
ATOM      8  C   UNL     1     -14.880   2.377  31.638  0.00  0.00    +0.111 C 
ATOM      9  C   UNL     1     -14.879   2.798  33.096  0.00  0.00    +0.164 C 
ATOM     10  C   UNL     1     -15.915   3.914  33.079  0.00  0.00    +0.165 C 
ATOM     12  C   UNL     1     -15.006   3.719  30.938  0.00  0.00    +0.181 C 
ENDROOT
BRANCH   9   4
ATOM      4  O   UNL     1     -15.250   1.748  33.969  0.00  0.00    -0.388 OA
ATOM     24  H   UNL     1     -14.681   0.981  33.784  0.00  0.00    +0.210 HD
ENDBRANCH   9   4
BRANCH   8   6
ATOM      6  N   UNL     1     -13.689   1.642  31.244  0.00  0.00    -0.302 NA
ATOM     23  H   UNL     1     -12.867   2.241  31.320  0.00  0.00    +0.123 HD
BRANCH   6  11
ATOM      3  O   UNL     1     -14.837  -0.842  30.086  0.00  0.00    -0.377 OA
ATOM     11  C   UNL     1     -13.888   1.063  29.909  0.00  0.00    +0.106 C 
ATOM     13  C   UNL     1     -13.461  -0.405  29.934  0.00  0.00    +0.180 C 
ATOM     14  C   UNL     1     -15.308   0.503  29.811  0.00  0.00    +0.180 C 
ENDBRANCH   6  11
ENDBRANCH   8   6
BRANCH  10  15
ATOM     15  C   UNL     1     -15.732   4.919  34.203  0.00  0.00    +0.138 C 
BRANCH  15   7
ATOM      5  O   UNL     1     -13.528   5.987  35.702  0.00  0.00    -0.270 OA
ATOM      7  N   UNL     1     -14.867   5.993  33.807  0.00  0.00    -0.309 N 
ATOM     16  C   UNL     1     -13.818   6.448  34.602  0.00  0.00    +0.244 C 
ATOM     25  H   UNL     1     -15.096   6.464  32.940  0.00  0.00    +0.149 HD
BRANCH  16  17
ATOM      1  F   UNL     1     -10.847  10.749  32.554  0.00  0.00    -0.205 F 
ATOM     17  C   UNL     1     -13.032   7.586  34.060  0.00  0.00    +0.037 A 
ATOM     18  C   UNL     1     -12.781   7.671  32.690  0.00  0.00    +0.016 A 
ATOM     19  C   UNL     1     -12.543   8.569  34.921  0.00  0.00    +0.016 A 
ATOM     20  C   UNL     1     -12.043   8.739  32.182  0.00  0.00    +0.039 A 
ATOM     21  C   UNL     1     -11.805   9.638  34.411  0.00  0.00    +0.039 A 
ATOM     22  C   UNL     1     -11.554   9.723  33.042  0.00  0.00    +0.123 A 
ENDBRANCH  16  17
ENDBRANCH  15   7
ENDBRANCH  10  15
TORSDOF 6
ENDMDL
MODEL 3
REMARK VINA RESULT:      -5.9      1.637      2.202
REMARK  Name = 75536823
REMARK  6 active torsions:
REMARK  status: ('A' for Active; 'I' for Inactive)
REMARK    1  A    between atoms: O_4  and  C_9
REMARK    2  A    between atoms: N_6  and  C_8
REMARK    3  A    between atoms: N_6  and  C_11
REMARK    4  A    between atoms: N_7  and  C_15
REMARK    5  A    between atoms: C_10  and  C_15
REMARK    6  A    between atoms: C_16  and  C_17
REMARK                            x       y       z     vdW  Elec       q    Type
REMARK                         _______ _______ _______ _____ _____    ______ ____
ROOT
ATOM      2  O   UNL     1      -5.847 -10.076  16.828  0.00  0.00    -0.371 OA
ATOM      8  C   UNL     1      -6.422 -10.363  19.115  0.00  0.00    +0.111 C 
ATOM      9  C   UNL     1      -5.503 -11.493  18.690  0.00  0.00    +0.164 C 
ATOM     10  C   UNL     1      -4.842 -10.887  17.459  0.00  0.00    +0.165 C 
ATOM     12  C   UNL     1      -6.911  -9.852  17.771  0.00  0.00    +0.181 C 
ENDROOT
BRANCH   9   4
ATOM      4  O   UNL     1      -4.555 -11.830  19.684  0.00  0.00    -0.388 OA
ATOM     24  H   UNL     1      -4.370 -11.035  20.212  0.00  0.00    +0.210 HD
ENDBRANCH   9   4
BRANCH   8   6
ATOM      6  N   UNL     1      -7.504 -10.788  19.987  0.00  0.00    -0.302 NA
ATOM     23  H   UNL     1      -7.166 -11.487  20.649  0.00  0.00    +0.123 HD
BRANCH   6  11
ATOM      3  O   UNL     1     -10.125 -12.115  20.434  0.00  0.00    -0.377 OA
ATOM     11  C   UNL     1      -8.644 -11.232  19.175  0.00  0.00    +0.106 C 
ATOM     13  C   UNL     1      -9.050 -12.640  19.613  0.00  0.00    +0.180 C 
ATOM     14  C   UNL     1      -9.944 -10.797  19.852  0.00  0.00    +0.180 C 
ENDBRANCH   6  11
ENDBRANCH   8   6
BRANCH  10  15
ATOM     15  C   UNL     1      -4.333 -11.927  16.478  0.00  0.00    +0.138 C 
BRANCH  15   7
ATOM      5  O   UNL     1      -1.934 -11.376  14.999  0.00  0.00    -0.270 OA
ATOM      7  N   UNL     1      -4.249 -11.394  15.148  0.00  0.00    -0.309 N 
ATOM     16  C   UNL     1      -3.037 -11.157  14.506  0.00  0.00    +0.244 C 
ATOM     25  H   UNL     1      -5.123 -11.125  14.711  0.00  0.00    +0.149 HD
BRANCH  16  17
ATOM      1  F   UNL     1      -3.350  -8.969   9.345  0.00  0.00    -0.205 F 
ATOM     17  C   UNL     1      -3.120 -10.578  13.141  0.00  0.00    +0.037 A 
ATOM     18  C   UNL     1      -1.955 -10.351  12.407  0.00  0.00    +0.016 A 
ATOM     19  C   UNL     1      -4.363 -10.260  12.592  0.00  0.00    +0.016 A 
ATOM     20  C   UNL     1      -2.032  -9.807  11.126  0.00  0.00    +0.039 A 
ATOM     21  C   UNL     1      -4.439  -9.716  11.310  0.00  0.00    +0.039 A 
ATOM     22  C   UNL     1      -3.275  -9.489  10.576  0.00  0.00    +0.123 A 
ENDBRANCH  16  17
ENDBRANCH  15   7
ENDBRANCH  10  15
TORSDOF 6
ENDMDL
MODEL 4
REMARK VINA RESULT:      -5.9     21.145     23.578
REMARK  Name = 75536823
REMARK  6 active torsions:
REMARK  status: ('A' for Active; 'I' for Inactive)
REMARK    1  A    between atoms: O_4  and  C_9
REMARK    2  A    between atoms: N_6  and  C_8
REMARK    3  A    between atoms: N_6  and  C_11
REMARK    4  A    between atoms: N_7  and  C_15
REMARK    5  A    between atoms: C_10  and  C_15
REMARK    6  A    between atoms: C_16  and  C_17
REMARK                            x       y       z     vdW  Elec       q    Type
REMARK                         _______ _______ _______ _____ _____    ______ ____
ROOT
ATOM      2  O   UNL     1     -15.811   0.164  29.421  0.00  0.00    -0.371 OA
ATOM      8  C   UNL     1     -16.333   2.115  28.171  0.00  0.00    +0.111 C 
ATOM      9  C   UNL     1     -15.365   2.482  29.281  0.00  0.00    +0.164 C 
ATOM     10  C   UNL     1     -14.756   1.123  29.599  0.00  0.00    +0.165 C 
ATOM     12  C   UNL     1     -16.869   0.784  28.669  0.00  0.00    +0.181 C 
ENDROOT
BRANCH   9   4
ATOM      4  O   UNL     1     -14.386   3.414  28.865  0.00  0.00    -0.388 OA
ATOM     24  H   UNL     1     -14.232   4.041  29.592  0.00  0.00    +0.210 HD
ENDBRANCH   9   4
BRANCH   8   6
ATOM      6  N   UNL     1     -17.379   3.103  27.960  0.00  0.00    -0.302 NA
ATOM     23  H   UNL     1     -18.183   2.893  28.551  0.00  0.00    +0.123 HD
BRANCH   6  11
ATOM      3  O   UNL     1     -16.254   4.431  25.552  0.00  0.00    -0.377 OA
ATOM     11  C   UNL     1     -17.691   3.190  26.528  0.00  0.00    +0.106 C 
ATOM     13  C   UNL     1     -17.587   4.649  26.083  0.00  0.00    +0.180 C 
ATOM     14  C   UNL     1     -16.406   2.998  25.721  0.00  0.00    +0.180 C 
ENDBRANCH   6  11
ENDBRANCH   8   6
BRANCH  10  15
ATOM     15  C   UNL     1     -14.210   1.028  31.013  0.00  0.00    +0.138 C 
BRANCH  15   7
ATOM      5  O   UNL     1     -15.026   1.839  33.644  0.00  0.00    -0.270 OA
ATOM      7  N   UNL     1     -14.046   2.327  31.598  0.00  0.00    -0.309 N 
ATOM     16  C   UNL     1     -14.475   2.633  32.887  0.00  0.00    +0.244 C 
ATOM     25  H   UNL     1     -13.661   3.049  31.000  0.00  0.00    +0.149 HD
BRANCH  16  17
ATOM      1  F   UNL     1     -13.648   7.921  34.583  0.00  0.00    -0.205 F 
ATOM     17  C   UNL     1     -14.255   4.032  33.336  0.00  0.00    +0.037 A 
ATOM     18  C   UNL     1     -14.005   5.035  32.398  0.00  0.00    +0.016 A 
ATOM     19  C   UNL     1     -14.299   4.344  34.695  0.00  0.00    +0.016 A 
ATOM     20  C   UNL     1     -13.800   6.347  32.819  0.00  0.00    +0.039 A 
ATOM     21  C   UNL     1     -14.093   5.658  35.115  0.00  0.00    +0.039 A 
ATOM     22  C   UNL     1     -13.844   6.660  34.178  0.00  0.00    +0.123 A 
ENDBRANCH  16  17
ENDBRANCH  15   7
ENDBRANCH  10  15
TORSDOF 6
ENDMDL
MODEL 5
REMARK VINA RESULT:      -5.9     19.047     20.101
REMARK  Name = 75536823
REMARK  6 active torsions:
REMARK  status: ('A' for Active; 'I' for Inactive)
REMARK    1  A    between atoms: O_4  and  C_9
REMARK    2  A    between atoms: N_6  and  C_8
REMARK    3  A    between atoms: N_6  and  C_11
REMARK    4  A    between atoms: N_7  and  C_15
REMARK    5  A    between atoms: C_10  and  C_15
REMARK    6  A    between atoms: C_16  and  C_17
REMARK                            x       y       z     vdW  Elec       q    Type
REMARK                         _______ _______ _______ _____ _____    ______ ____
ROOT
ATOM      2  O   UNL     1     -14.610   6.372  21.092  0.00  0.00    -0.371 OA
ATOM      8  C   UNL     1     -15.281   4.721  22.661  0.00  0.00    +0.111 C 
ATOM      9  C   UNL     1     -13.766   4.727  22.566  0.00  0.00    +0.164 C 
ATOM     10  C   UNL     1     -13.515   6.112  21.985  0.00  0.00    +0.165 C 
ATOM     12  C   UNL     1     -15.665   5.437  21.378  0.00  0.00    +0.181 C 
ENDROOT
BRANCH   9   4
ATOM      4  O   UNL     1     -13.139   4.561  23.823  0.00  0.00    -0.388 OA
ATOM     24  H   UNL     1     -13.829   4.405  24.491  0.00  0.00    +0.210 HD
ENDBRANCH   9   4
BRANCH   8   6
ATOM      6  N   UNL     1     -15.853   3.388  22.759  0.00  0.00    -0.302 NA
ATOM     23  H   UNL     1     -16.283   3.127  21.872  0.00  0.00    +0.123 HD
BRANCH   6  11
ATOM      3  O   UNL     1     -16.495   1.475  24.939  0.00  0.00    -0.377 OA
ATOM     11  C   UNL     1     -16.762   3.326  23.910  0.00  0.00    +0.106 C 
ATOM     13  C   UNL     1     -17.434   1.953  23.941  0.00  0.00    +0.180 C 
ATOM     14  C   UNL     1     -15.993   2.823  25.131  0.00  0.00    +0.180 C 
ENDBRANCH   6  11
ENDBRANCH   8   6
BRANCH  10  15
ATOM     15  C   UNL     1     -12.201   6.217  21.231  0.00  0.00    +0.138 C 
BRANCH  15   7
ATOM      5  O   UNL     1     -11.194   6.995  18.657  0.00  0.00    -0.270 OA
ATOM      7  N   UNL     1     -11.969   7.556  20.771  0.00  0.00    -0.309 N 
ATOM     16  C   UNL     1     -11.476   7.841  19.501  0.00  0.00    +0.244 C 
ATOM     25  H   UNL     1     -12.114   8.299  21.445  0.00  0.00    +0.149 HD
BRANCH  16  17
ATOM      1  F   UNL     1     -10.682  13.271  18.312  0.00  0.00    -0.205 F 
ATOM     17  C   UNL     1     -11.265   9.278  19.187  0.00  0.00    +0.037 A 
ATOM     18  C   UNL     1     -10.298   9.654  18.254  0.00  0.00    +0.016 A 
ATOM     19  C   UNL     1     -12.034  10.252  19.825  0.00  0.00    +0.016 A 
ATOM     20  C   UNL     1     -10.101  11.002  17.959  0.00  0.00    +0.039 A 
ATOM     21  C   UNL     1     -11.836  11.601  19.529  0.00  0.00    +0.039 A 
ATOM     22  C   UNL     1     -10.870  11.976  18.596  0.00  0.00    +0.123 A 
ENDBRANCH  16  17
ENDBRANCH  15   7
ENDBRANCH  10  15
TORSDOF 6
ENDMDL
MODEL 6
REMARK VINA RESULT:      -5.9      2.771      4.088
REMARK  Name = 75536823
REMARK  6 active torsions:
REMARK  status: ('A' for Active; 'I' for Inactive)
REMARK    1  A    between atoms: O_4  and  C_9
REMARK    2  A    between atoms: N_6  and  C_8
REMARK    3  A    between atoms: N_6  and  C_11
REMARK    4  A    between atoms: N_7  and  C_15
REMARK    5  A    between atoms: C_10  and  C_15
REMARK    6  A    between atoms: C_16  and  C_17
REMARK                            x       y       z     vdW  Elec       q    Type
REMARK                         _______ _______ _______ _____ _____    ______ ____
ROOT
ATOM      2  O   UNL     1      -1.239 -11.393  15.284  0.00  0.00    -0.371 OA
ATOM      8  C   UNL     1      -3.372 -11.418  16.328  0.00  0.00    +0.111 C 
ATOM      9  C   UNL     1      -3.516 -11.900  14.896  0.00  0.00    +0.164 C 
ATOM     10  C   UNL     1      -2.086 -12.318  14.583  0.00  0.00    +0.165 C 
ATOM     12  C   UNL     1      -2.030 -10.709  16.273  0.00  0.00    +0.181 C 
ENDROOT
BRANCH   9   4
ATOM      4  O   UNL     1      -4.420 -12.981  14.772  0.00  0.00    -0.388 OA
ATOM     24  H   UNL     1      -4.045 -13.749  15.235  0.00  0.00    +0.210 HD
ENDBRANCH   9   4
BRANCH   8   6
ATOM      6  N   UNL     1      -4.454 -10.549  16.761  0.00  0.00    -0.302 NA
ATOM     23  H   UNL     1      -4.077  -9.746  17.264  0.00  0.00    +0.123 HD
BRANCH   6  11
ATOM      3  O   UNL     1      -4.761 -11.564  19.537  0.00  0.00    -0.377 OA
ATOM     11  C   UNL     1      -5.436 -11.329  17.525  0.00  0.00    +0.106 C 
ATOM     13  C   UNL     1      -4.700 -12.390  18.345  0.00  0.00    +0.180 C 
ATOM     14  C   UNL     1      -5.676 -10.652  18.875  0.00  0.00    +0.180 C 
ENDBRANCH   6  11
ENDBRANCH   8   6
BRANCH  10  15
ATOM     15  C   UNL     1      -1.763 -12.286  13.100  0.00  0.00    +0.138 C 
BRANCH  15   7
ATOM      5  O   UNL     1      -1.377  -9.829  11.665  0.00  0.00    -0.270 OA
ATOM      7  N   UNL     1      -2.757 -11.558  12.365  0.00  0.00    -0.309 N 
ATOM     16  C   UNL     1      -2.480 -10.369  11.697  0.00  0.00    +0.244 C 
ATOM     25  H   UNL     1      -3.705 -11.913  12.410  0.00  0.00    +0.149 HD
BRANCH  16  17
ATOM      1  F   UNL     1      -6.807  -7.927   9.083  0.00  0.00    -0.205 F 
ATOM     17  C   UNL     1      -3.625  -9.723  11.004  0.00  0.00    +0.037 A 
ATOM     18  C   UNL     1      -4.852  -9.595  11.657  0.00  0.00    +0.016 A 
ATOM     19  C   UNL     1      -3.474  -9.245   9.703  0.00  0.00    +0.016 A 
ATOM     20  C   UNL     1      -5.926  -8.989  11.008  0.00  0.00    +0.039 A 
ATOM     21  C   UNL     1      -4.550  -8.639   9.054  0.00  0.00    +0.039 A 
ATOM     22  C   UNL     1      -5.776  -8.511   9.706  0.00  0.00    +0.123 A 
ENDBRANCH  16  17
ENDBRANCH  15   7
ENDBRANCH  10  15
TORSDOF 6
ENDMDL
MODEL 7
REMARK VINA RESULT:      -5.8      3.722      6.956
REMARK  Name = 75536823
REMARK  6 active torsions:
REMARK  status: ('A' for Active; 'I' for Inactive)
REMARK    1  A    between atoms: O_4  and  C_9
REMARK    2  A    between atoms: N_6  and  C_8
REMARK    3  A    between atoms: N_6  and  C_11
REMARK    4  A    between atoms: N_7  and  C_15
REMARK    5  A    between atoms: C_10  and  C_15
REMARK    6  A    between atoms: C_16  and  C_17
REMARK                            x       y       z     vdW  Elec       q    Type
REMARK                         _______ _______ _______ _____ _____    ______ ____
ROOT
ATOM      2  O   UNL     1      -3.118 -12.010  12.909  0.00  0.00    -0.371 OA
ATOM      8  C   UNL     1      -3.291 -11.076  10.732  0.00  0.00    +0.111 C 
ATOM      9  C   UNL     1      -2.558 -10.099  11.633  0.00  0.00    +0.164 C 
ATOM     10  C   UNL     1      -2.084 -11.025  12.745  0.00  0.00    +0.165 C 
ATOM     12  C   UNL     1      -3.972 -11.972  11.752  0.00  0.00    +0.181 C 
ENDROOT
BRANCH   9   4
ATOM      4  O   UNL     1      -1.476  -9.462  10.981  0.00  0.00    -0.388 OA
ATOM     24  H   UNL     1      -1.589  -9.571  10.022  0.00  0.00    +0.210 HD
ENDBRANCH   9   4
BRANCH   8   6
ATOM      6  N   UNL     1      -4.229 -10.439   9.822  0.00  0.00    -0.302 NA
ATOM     23  H   UNL     1      -3.723  -9.972   9.069  0.00  0.00    +0.123 HD
BRANCH   6  11
ATOM      3  O   UNL     1      -6.450  -8.554   9.239  0.00  0.00    -0.377 OA
ATOM     11  C   UNL     1      -5.126  -9.557  10.580  0.00  0.00    +0.106 C 
ATOM     13  C   UNL     1      -5.198  -8.199   9.881  0.00  0.00    +0.180 C 
ATOM     14  C   UNL     1      -6.556  -9.739  10.071  0.00  0.00    +0.180 C 
ENDBRANCH   6  11
ENDBRANCH   8   6
BRANCH  10  15
ATOM     15  C   UNL     1      -1.845 -10.308  14.062  0.00  0.00    +0.138 C 
BRANCH  15   7
ATOM      5  O   UNL     1      -2.106 -10.970  16.844  0.00  0.00    -0.270 OA
ATOM      7  N   UNL     1      -3.044 -10.248  14.848  0.00  0.00    -0.309 N 
ATOM     16  C   UNL     1      -3.078 -10.590  16.197  0.00  0.00    +0.244 C 
ATOM     25  H   UNL     1      -3.897 -10.009  14.357  0.00  0.00    +0.149 HD
BRANCH  16  17
ATOM      1  F   UNL     1      -8.086 -10.248  18.712  0.00  0.00    -0.205 F 
ATOM     17  C   UNL     1      -4.403 -10.499  16.863  0.00  0.00    +0.037 A 
ATOM     18  C   UNL     1      -5.451  -9.821  16.240  0.00  0.00    +0.016 A 
ATOM     19  C   UNL     1      -4.599 -11.091  18.111  0.00  0.00    +0.016 A 
ATOM     20  C   UNL     1      -6.695  -9.736  16.864  0.00  0.00    +0.039 A 
ATOM     21  C   UNL     1      -5.843 -11.005  18.735  0.00  0.00    +0.039 A 
ATOM     22  C   UNL     1      -6.892 -10.328  18.112  0.00  0.00    +0.123 A 
ENDBRANCH  16  17
ENDBRANCH  15   7
ENDBRANCH  10  15
TORSDOF 6
ENDMDL
MODEL 8
REMARK VINA RESULT:      -5.8      4.606      7.482
REMARK  Name = 75536823
REMARK  6 active torsions:
REMARK  status: ('A' for Active; 'I' for Inactive)
REMARK    1  A    between atoms: O_4  and  C_9
REMARK    2  A    between atoms: N_6  and  C_8
REMARK    3  A    between atoms: N_6  and  C_11
REMARK    4  A    between atoms: N_7  and  C_15
REMARK    5  A    between atoms: C_10  and  C_15
REMARK    6  A    between atoms: C_16  and  C_17
REMARK                            x       y       z     vdW  Elec       q    Type
REMARK                         _______ _______ _______ _____ _____    ______ ____
ROOT
ATOM      2  O   UNL     1     -12.103  -8.264  15.949  0.00  0.00    -0.371 OA
ATOM      8  C   UNL     1     -11.878  -6.338  14.577  0.00  0.00    +0.111 C 
ATOM      9  C   UNL     1     -10.896  -6.242  15.730  0.00  0.00    +0.164 C 
ATOM     10  C   UNL     1     -10.796  -7.703  16.152  0.00  0.00    +0.165 C 
ATOM     12  C   UNL     1     -12.854  -7.379  15.100  0.00  0.00    +0.181 C 
ENDROOT
BRANCH   9   4
ATOM      4  O   UNL     1      -9.641  -5.721  15.336  0.00  0.00    -0.388 OA
ATOM     24  H   UNL     1      -9.048  -5.737  16.106  0.00  0.00    +0.210 HD
ENDBRANCH   9   4
BRANCH   8   6
ATOM      6  N   UNL     1     -12.519  -5.075  14.251  0.00  0.00    -0.302 NA
ATOM     23  H   UNL     1     -13.400  -4.988  14.757  0.00  0.00    +0.123 HD
BRANCH   6  11
ATOM      3  O   UNL     1     -13.634  -3.120  12.311  0.00  0.00    -0.377 OA
ATOM     11  C   UNL     1     -12.647  -4.951  12.794  0.00  0.00    +0.106 C 
ATOM     13  C   UNL     1     -14.068  -4.497  12.456  0.00  0.00    +0.180 C 
ATOM     14  C   UNL     1     -12.245  -3.537  12.372  0.00  0.00    +0.180 C 
ENDBRANCH   6  11
ENDBRANCH   8   6
BRANCH  10  15
ATOM     15  C   UNL     1     -10.380  -7.881  17.601  0.00  0.00    +0.138 C 
BRANCH  15   7
ATOM      5  O   UNL     1      -9.722 -10.658  17.920  0.00  0.00    -0.270 OA
ATOM      7  N   UNL     1      -9.064  -8.443  17.701  0.00  0.00    -0.309 N 
ATOM     16  C   UNL     1      -8.837  -9.808  17.855  0.00  0.00    +0.244 C 
ATOM     25  H   UNL     1      -8.291  -7.788  17.725  0.00  0.00    +0.149 HD
BRANCH  16  17
ATOM      1  F   UNL     1      -3.469 -11.394  18.286  0.00  0.00    -0.205 F 
ATOM     17  C   UNL     1      -7.417 -10.229  17.969  0.00  0.00    +0.037 A 
ATOM     18  C   UNL     1      -6.525  -9.960  16.931  0.00  0.00    +0.016 A 
ATOM     19  C   UNL     1      -6.975 -10.892  19.114  0.00  0.00    +0.016 A 
ATOM     20  C   UNL     1      -5.192 -10.354  17.037  0.00  0.00    +0.039 A 
ATOM     21  C   UNL     1      -5.641 -11.286  19.220  0.00  0.00    +0.039 A 
ATOM     22  C   UNL     1      -4.749 -11.017  18.182  0.00  0.00    +0.123 A 
ENDBRANCH  16  17
ENDBRANCH  15   7
ENDBRANCH  10  15
TORSDOF 6
ENDMDL
MODEL 9
REMARK VINA RESULT:      -5.7     28.709     30.767
REMARK  Name = 75536823
REMARK  6 active torsions:
REMARK  status: ('A' for Active; 'I' for Inactive)
REMARK    1  A    between atoms: O_4  and  C_9
REMARK    2  A    between atoms: N_6  and  C_8
REMARK    3  A    between atoms: N_6  and  C_11
REMARK    4  A    between atoms: N_7  and  C_15
REMARK    5  A    between atoms: C_10  and  C_15
REMARK    6  A    between atoms: C_16  and  C_17
REMARK                            x       y       z     vdW  Elec       q    Type
REMARK                         _______ _______ _______ _____ _____    ______ ____
ROOT
ATOM      2  O   UNL     1      22.002   7.255  21.775  0.00  0.00    -0.371 OA
ATOM      8  C   UNL     1      21.990   5.338  20.373  0.00  0.00    +0.111 C 
ATOM      9  C   UNL     1      20.584   5.584  20.886  0.00  0.00    +0.164 C 
ATOM     10  C   UNL     1      20.668   7.053  21.279  0.00  0.00    +0.165 C 
ATOM     12  C   UNL     1      22.816   6.143  21.362  0.00  0.00    +0.181 C 
ENDROOT
BRANCH   9   4
ATOM      4  O   UNL     1      19.595   5.358  19.900  0.00  0.00    -0.388 OA
ATOM     24  H   UNL     1      18.771   5.785  20.190  0.00  0.00    +0.210 HD
ENDBRANCH   9   4
BRANCH   8   6
ATOM      6  N   UNL     1      22.360   3.932  20.340  0.00  0.00    -0.302 NA
ATOM     23  H   UNL     1      21.614   3.365  20.742  0.00  0.00    +0.123 HD
BRANCH   6  11
ATOM      3  O   UNL     1      24.356   1.756  20.672  0.00  0.00    -0.377 OA
ATOM     11  C   UNL     1      23.667   3.753  20.984  0.00  0.00    +0.106 C 
ATOM     13  C   UNL     1      23.665   2.432  21.755  0.00  0.00    +0.180 C 
ATOM     14  C   UNL     1      24.608   3.028  20.021  0.00  0.00    +0.180 C 
ENDBRANCH   6  11
ENDBRANCH   8   6
BRANCH  10  15
ATOM     15  C   UNL     1      19.660   7.448  22.343  0.00  0.00    +0.138 C 
BRANCH  15   7
ATOM      5  O   UNL     1      17.893   9.334  21.091  0.00  0.00    -0.270 OA
ATOM      7  N   UNL     1      18.316   7.203  21.905  0.00  0.00    -0.309 N 
ATOM     16  C   UNL     1      17.528   8.182  21.305  0.00  0.00    +0.244 C 
ATOM     25  H   UNL     1      17.929   6.290  22.116  0.00  0.00    +0.149 HD
BRANCH  16  17
ATOM      1  F   UNL     1      12.313   6.649  19.898  0.00  0.00    -0.205 F 
ATOM     17  C   UNL     1      16.148   7.775  20.932  0.00  0.00    +0.037 A 
ATOM     18  C   UNL     1      15.125   7.832  21.880  0.00  0.00    +0.016 A 
ATOM     19  C   UNL     1      15.875   7.338  19.636  0.00  0.00    +0.016 A 
ATOM     20  C   UNL     1      13.830   7.451  21.530  0.00  0.00    +0.039 A 
ATOM     21  C   UNL     1      14.580   6.957  19.288  0.00  0.00    +0.039 A 
ATOM     22  C   UNL     1      13.557   7.013  20.234  0.00  0.00    +0.123 A 
ENDBRANCH  16  17
ENDBRANCH  15   7
ENDBRANCH  10  15
TORSDOF 6
ENDMDL
MODEL 10
REMARK VINA RESULT:      -5.7      3.210      7.807
REMARK  Name = 75536823
REMARK  6 active torsions:
REMARK  status: ('A' for Active; 'I' for Inactive)
REMARK    1  A    between atoms: O_4  and  C_9
REMARK    2  A    between atoms: N_6  and  C_8
REMARK    3  A    between atoms: N_6  and  C_11
REMARK    4  A    between atoms: N_7  and  C_15
REMARK    5  A    between atoms: C_10  and  C_15
REMARK    6  A    between atoms: C_16  and  C_17
REMARK                            x       y       z     vdW  Elec       q    Type
REMARK                         _______ _______ _______ _____ _____    ______ ____
ROOT
ATOM      2  O   UNL     1      -7.017 -10.287  16.248  0.00  0.00    -0.371 OA
ATOM      8  C   UNL     1      -4.677 -10.626  16.471  0.00  0.00    +0.111 C 
ATOM      9  C   UNL     1      -5.303 -10.572  17.852  0.00  0.00    +0.164 C 
ATOM     10  C   UNL     1      -6.757 -10.887  17.528  0.00  0.00    +0.165 C 
ATOM     12  C   UNL     1      -5.758  -9.975  15.625  0.00  0.00    +0.181 C 
ENDROOT
BRANCH   9   4
ATOM      4  O   UNL     1      -4.745 -11.518  18.743  0.00  0.00    -0.388 OA
ATOM     24  H   UNL     1      -5.471 -11.954  19.221  0.00  0.00    +0.210 HD
ENDBRANCH   9   4
BRANCH   8   6
ATOM      6  N   UNL     1      -3.399  -9.939  16.383  0.00  0.00    -0.302 NA
ATOM     23  H   UNL     1      -3.509  -9.060  15.877  0.00  0.00    +0.123 HD
BRANCH   6  11
ATOM      3  O   UNL     1      -1.382  -9.865  14.202  0.00  0.00    -0.377 OA
ATOM     11  C   UNL     1      -2.394 -10.842  15.808  0.00  0.00    +0.106 C 
ATOM     13  C   UNL     1      -2.494 -10.794  14.283  0.00  0.00    +0.180 C 
ATOM     14  C   UNL     1      -1.086 -10.076  15.607  0.00  0.00    +0.180 C 
ENDBRANCH   6  11
ENDBRANCH   8   6
BRANCH  10  15
ATOM     15  C   UNL     1      -7.733 -10.345  18.557  0.00  0.00    +0.138 C 
BRANCH  15   7
ATOM      5  O   UNL     1     -10.577 -10.678  18.350  0.00  0.00    -0.270 OA
ATOM      7  N   UNL     1      -8.662  -9.427  17.962  0.00  0.00    -0.309 N 
ATOM     16  C   UNL     1     -10.031  -9.672  17.905  0.00  0.00    +0.244 C 
ATOM     25  H   UNL     1      -8.267  -8.609  17.512  0.00  0.00    +0.149 HD
BRANCH  16  17
ATOM      1  F   UNL     1     -13.149  -5.755  15.365  0.00  0.00    -0.205 F 
ATOM     17  C   UNL     1     -10.855  -8.636  17.233  0.00  0.00    +0.037 A 
ATOM     18  C   UNL     1     -12.200  -8.886  16.956  0.00  0.00    +0.016 A 
ATOM     19  C   UNL     1     -10.286  -7.413  16.877  0.00  0.00    +0.016 A 
ATOM     20  C   UNL     1     -12.974  -7.913  16.325  0.00  0.00    +0.039 A 
ATOM     21  C   UNL     1     -11.061  -6.440  16.246  0.00  0.00    +0.039 A 
ATOM     22  C   UNL     1     -12.405  -6.690  15.970  0.00  0.00    +0.123 A 
ENDBRANCH  16  17
ENDBRANCH  15   7
ENDBRANCH  10  15
TORSDOF 6
ENDMDL
