REMARK  Name = 45783472
REMARK  9 active torsions:
REMARK  status: ('A' for Active; 'I' for Inactive)
REMARK    1  A    between atoms: O_3  and  C_28
REMARK    2  A    between atoms: O_3  and  C_29
REMARK    3  A    between atoms: N_4  and  C_13
REMARK    4  A    between atoms: N_8  and  C_26
REMARK    5  A    between atoms: N_8  and  C_27
REMARK    6  A    between atoms: C_9  and  C_14
REMARK    7  A    between atoms: C_13  and  C_15
REMARK    8  A    between atoms: C_18  and  C_21
REMARK    9  A    between atoms: C_27  and  C_28
REMARK                            x       y       z     vdW  Elec       q    Type
REMARK                         _______ _______ _______ _____ _____    ______ ____
ROOT
ATOM      2  O   UNL     1       1.080   3.361   1.107  0.00  0.00    -0.336 OA
ATOM      5  N   UNL     1       0.628   1.553  -0.134  0.00  0.00    -0.190 NA
ATOM      6  N   UNL     1      -0.301   3.151   1.214  0.00  0.00    -0.056 NA
ATOM     14  C   UNL     1       1.549   2.378   0.296  0.00  0.00    +0.245 A 
ATOM     18  C   UNL     1      -0.490   2.067   0.455  0.00  0.00    +0.204 A 
ENDROOT
BRANCH  18  21
ATOM      7  N   UNL     1      -4.154   1.498   0.731  0.00  0.00    -0.240 NA
ATOM     21  C   UNL     1      -1.782   1.475   0.264  0.00  0.00    +0.041 A 
ATOM     23  C   UNL     1      -1.943   0.348  -0.534  0.00  0.00    +0.016 A 
ATOM     24  C   UNL     1      -2.909   2.007   0.870  0.00  0.00    +0.124 A 
ATOM     25  C   UNL     1      -3.209  -0.204  -0.700  0.00  0.00    +0.044 A 
ATOM     26  C   UNL     1      -4.272   0.403  -0.052  0.00  0.00    +0.119 A 
BRANCH  26   8
ATOM      8  N   UNL     1      -5.555  -0.171  -0.232  0.00  0.00    -0.327 N 
ATOM     30  H   UNL     1      -6.323   0.281   0.250  0.00  0.00    +0.148 HD
BRANCH   8  27
ATOM     27  C   UNL     1      -5.776  -1.325  -1.041  0.00  0.00    +0.131 C 
BRANCH  27  28
ATOM     28  C   UNL     1      -7.255  -1.671  -1.060  0.00  0.00    +0.178 C 
BRANCH  28   3
ATOM      3  O   UNL     1      -7.688  -1.971   0.261  0.00  0.00    -0.381 OA
ATOM     29  C   UNL     1      -9.068  -2.308   0.292  0.00  0.00    +0.194 C 
ENDBRANCH  28   3
ENDBRANCH  27  28
ENDBRANCH   8  27
ENDBRANCH  26   8
ENDBRANCH  18  21
BRANCH  14   9
ATOM      4  N   UNL     1       3.565   1.038  -0.283  0.00  0.00    -0.287 NA
ATOM      9  C   UNL     1       3.038   2.384   0.019  0.00  0.00    +0.146 C 
ATOM     10  C   UNL     1       3.410   3.235  -1.209  0.00  0.00    +0.030 C 
ATOM     11  C   UNL     1       4.196   2.299  -2.117  0.00  0.00    +0.017 C 
ATOM     12  C   UNL     1       4.710   1.232  -1.172  0.00  0.00    +0.085 C 
BRANCH   4  13
ATOM     13  C   UNL     1       3.919   0.279   0.910  0.00  0.00    +0.120 C 
BRANCH  13  15
ATOM      1 CL   UNL     1       4.142  -5.632  -0.185  0.00  0.00    -0.084 Cl
ATOM     15  C   UNL     1       3.975  -1.200   0.637  0.00  0.00    -0.033 A 
ATOM     16  C   UNL     1       2.832  -1.983   0.795  0.00  0.00    +0.006 A 
ATOM     17  C   UNL     1       5.171  -1.789   0.225  0.00  0.00    +0.006 A 
ATOM     19  C   UNL     1       2.884  -3.353   0.542  0.00  0.00    +0.020 A 
ATOM     20  C   UNL     1       5.223  -3.159  -0.029  0.00  0.00    +0.020 A 
ATOM     22  C   UNL     1       4.080  -3.942   0.130  0.00  0.00    +0.041 A 
ENDBRANCH  13  15
ENDBRANCH   4  13
ENDBRANCH  14   9
TORSDOF 8
