MODEL 1
REMARK VINA RESULT:      -7.2      0.000      0.000
REMARK  Name = 75536992
REMARK  4 active torsions:
REMARK  status: ('A' for Active; 'I' for Inactive)
REMARK    1  A    between atoms: N_8  and  C_16
REMARK    2  A    between atoms: C_16  and  C_18
REMARK    3  A    between atoms: C_17  and  C_19
REMARK    4  A    between atoms: C_28  and  C_30
REMARK                            x       y       z     vdW  Elec       q    Type
REMARK                         _______ _______ _______ _____ _____    ______ ____
ROOT
ATOM      5  O   UNL     1      -4.795 -13.261  18.514  0.00  0.00    -0.252 OA
ATOM      6  O   UNL     1     -10.769 -10.016  20.123  0.00  0.00    -0.270 OA
ATOM      7  N   UNL     1      -6.662 -11.851  18.300  0.00  0.00    -0.278 N 
ATOM      8  N   UNL     1      -5.418 -12.258  16.473  0.00  0.00    -0.279 N 
ATOM      9  N   UNL     1      -9.293 -11.010  18.608  0.00  0.00    -0.294 N 
ATOM     10  C   UNL     1      -7.238 -11.005  17.269  0.00  0.00    +0.112 C 
ATOM     11  C   UNL     1      -6.526 -11.450  15.994  0.00  0.00    +0.133 C 
ATOM     12  C   UNL     1      -8.755 -11.164  17.243  0.00  0.00    +0.132 C 
ATOM     13  C   UNL     1      -7.208 -11.824  19.646  0.00  0.00    +0.128 C 
ATOM     14  C   UNL     1      -8.730 -11.942  19.596  0.00  0.00    +0.127 C 
ATOM     15  C   UNL     1      -5.531 -12.544  17.849  0.00  0.00    +0.306 C 
ATOM     17  C   UNL     1     -10.290 -10.113  18.994  0.00  0.00    +0.247 C 
ENDROOT
BRANCH  17  19
ATOM     19  C   UNL     1     -10.818  -9.189  17.981  0.00  0.00    +0.037 A 
ATOM     22  C   UNL     1     -12.087  -9.396  17.441  0.00  0.00    +0.013 A 
ATOM     23  C   UNL     1     -10.050  -8.104  17.560  0.00  0.00    +0.013 A 
ATOM     26  C   UNL     1     -12.587  -8.518  16.479  0.00  0.00    +0.013 A 
ATOM     27  C   UNL     1     -10.549  -7.227  16.598  0.00  0.00    +0.013 A 
ATOM     28  C   UNL     1     -11.818  -7.434  16.057  0.00  0.00    +0.055 A 
BRANCH  28  30
ATOM      2  F   UNL     1     -12.593  -7.086  13.820  0.00  0.00    -0.166 F 
ATOM      3  F   UNL     1     -13.539  -5.916  15.383  0.00  0.00    -0.166 F 
ATOM      4  F   UNL     1     -11.503  -5.461  14.769  0.00  0.00    -0.166 F 
ATOM     30  C   UNL     1     -12.354  -6.497  15.029  0.00  0.00    +0.417 C 
ENDBRANCH  28  30
ENDBRANCH  17  19
BRANCH   8  16
ATOM     16  C   UNL     1      -4.418 -12.794  15.578  0.00  0.00    +0.144 C 
BRANCH  16  18
ATOM      1  F   UNL     1      -0.562  -8.939  14.175  0.00  0.00    -0.205 F 
ATOM     18  C   UNL     1      -3.390 -11.767  15.204  0.00  0.00    -0.030 A 
ATOM     20  C   UNL     1      -3.264 -11.356  13.876  0.00  0.00    +0.008 A 
ATOM     21  C   UNL     1      -2.559 -11.221  16.183  0.00  0.00    +0.008 A 
ATOM     24  C   UNL     1      -2.309 -10.401  13.528  0.00  0.00    +0.038 A 
ATOM     25  C   UNL     1      -1.604 -10.266  15.835  0.00  0.00    +0.038 A 
ATOM     29  C   UNL     1      -1.479  -9.856  14.508  0.00  0.00    +0.123 A 
ENDBRANCH  16  18
ENDBRANCH   8  16
TORSDOF 4
ENDMDL
MODEL 2
REMARK VINA RESULT:      -7.1     24.921     29.645
REMARK  Name = 75536992
REMARK  4 active torsions:
REMARK  status: ('A' for Active; 'I' for Inactive)
REMARK    1  A    between atoms: N_8  and  C_16
REMARK    2  A    between atoms: C_16  and  C_18
REMARK    3  A    between atoms: C_17  and  C_19
REMARK    4  A    between atoms: C_28  and  C_30
REMARK                            x       y       z     vdW  Elec       q    Type
REMARK                         _______ _______ _______ _____ _____    ______ ____
ROOT
ATOM      5  O   UNL     1      12.216   8.008   6.244  0.00  0.00    -0.252 OA
ATOM      6  O   UNL     1      15.911   6.256   0.579  0.00  0.00    -0.270 OA
ATOM      7  N   UNL     1      12.765   6.979   4.204  0.00  0.00    -0.278 N 
ATOM      8  N   UNL     1      10.633   6.881   4.907  0.00  0.00    -0.279 N 
ATOM      9  N   UNL     1      13.905   6.725   1.681  0.00  0.00    -0.294 N 
ATOM     10  C   UNL     1      12.098   6.132   3.231  0.00  0.00    +0.112 C 
ATOM     11  C   UNL     1      10.620   6.251   3.599  0.00  0.00    +0.133 C 
ATOM     12  C   UNL     1      12.442   6.582   1.814  0.00  0.00    +0.132 C 
ATOM     13  C   UNL     1      14.188   7.244   4.077  0.00  0.00    +0.128 C 
ATOM     14  C   UNL     1      14.519   7.652   2.643  0.00  0.00    +0.127 C 
ATOM     15  C   UNL     1      11.912   7.367   5.246  0.00  0.00    +0.306 C 
ATOM     17  C   UNL     1      14.698   6.103   0.717  0.00  0.00    +0.247 C 
ENDROOT
BRANCH  17  19
ATOM     19  C   UNL     1      14.050   5.173  -0.217  0.00  0.00    +0.037 A 
ATOM     22  C   UNL     1      13.570   3.946   0.240  0.00  0.00    +0.013 A 
ATOM     23  C   UNL     1      13.913   5.518  -1.562  0.00  0.00    +0.013 A 
ATOM     26  C   UNL     1      12.955   3.063  -0.649  0.00  0.00    +0.013 A 
ATOM     27  C   UNL     1      13.299   4.636  -2.450  0.00  0.00    +0.013 A 
ATOM     28  C   UNL     1      12.820   3.408  -1.993  0.00  0.00    +0.055 A 
BRANCH  28  30
ATOM      2  F   UNL     1      12.936   2.141  -4.019  0.00  0.00    -0.166 F 
ATOM      3  F   UNL     1      11.822   1.268  -2.376  0.00  0.00    -0.166 F 
ATOM      4  F   UNL     1      11.003   2.965  -3.461  0.00  0.00    -0.166 F 
ATOM     30  C   UNL     1      12.162   2.464  -2.942  0.00  0.00    +0.417 C 
ENDBRANCH  28  30
ENDBRANCH  17  19
BRANCH   8  16
ATOM     16  C   UNL     1       9.423   7.082   5.671  0.00  0.00    +0.144 C 
BRANCH  16  18
ATOM      1  F   UNL     1       9.391   4.040  10.409  0.00  0.00    -0.205 F 
ATOM     18  C   UNL     1       9.414   6.271   6.934  0.00  0.00    -0.030 A 
ATOM     20  C   UNL     1       9.805   4.932   6.907  0.00  0.00    +0.008 A 
ATOM     21  C   UNL     1       9.016   6.855   8.137  0.00  0.00    +0.008 A 
ATOM     24  C   UNL     1       9.797   4.178   8.079  0.00  0.00    +0.038 A 
ATOM     25  C   UNL     1       9.008   6.102   9.311  0.00  0.00    +0.038 A 
ATOM     29  C   UNL     1       9.399   4.763   9.281  0.00  0.00    +0.123 A 
ENDBRANCH  16  18
ENDBRANCH   8  16
TORSDOF 4
ENDMDL
MODEL 3
REMARK VINA RESULT:      -7.0      2.895      4.232
REMARK  Name = 75536992
REMARK  4 active torsions:
REMARK  status: ('A' for Active; 'I' for Inactive)
REMARK    1  A    between atoms: N_8  and  C_16
REMARK    2  A    between atoms: C_16  and  C_18
REMARK    3  A    between atoms: C_17  and  C_19
REMARK    4  A    between atoms: C_28  and  C_30
REMARK                            x       y       z     vdW  Elec       q    Type
REMARK                         _______ _______ _______ _____ _____    ______ ____
ROOT
ATOM      5  O   UNL     1      -1.499 -11.988  14.846  0.00  0.00    -0.252 OA
ATOM      6  O   UNL     1      -5.963 -10.302  19.950  0.00  0.00    -0.270 OA
ATOM      7  N   UNL     1      -3.490 -11.320  15.898  0.00  0.00    -0.278 N 
ATOM      8  N   UNL     1      -3.569 -11.878  13.723  0.00  0.00    -0.279 N 
ATOM      9  N   UNL     1      -5.450 -11.232  17.868  0.00  0.00    -0.294 N 
ATOM     10  C   UNL     1      -4.856 -11.032  15.496  0.00  0.00    +0.112 C 
ATOM     11  C   UNL     1      -4.950 -11.614  14.088  0.00  0.00    +0.133 C 
ATOM     12  C   UNL     1      -5.839 -11.627  16.500  0.00  0.00    +0.132 C 
ATOM     13  C   UNL     1      -3.065 -11.047  17.261  0.00  0.00    +0.128 C 
ATOM     14  C   UNL     1      -4.082 -11.614  18.250  0.00  0.00    +0.127 C 
ATOM     15  C   UNL     1      -2.700 -11.754  14.826  0.00  0.00    +0.306 C 
ATOM     17  C   UNL     1      -6.273 -10.592  18.795  0.00  0.00    +0.247 C 
ENDROOT
BRANCH  17  19
ATOM     19  C   UNL     1      -7.628 -10.214  18.371  0.00  0.00    +0.037 A 
ATOM     22  C   UNL     1      -7.810  -9.172  17.463  0.00  0.00    +0.013 A 
ATOM     23  C   UNL     1      -8.733 -10.899  18.878  0.00  0.00    +0.013 A 
ATOM     26  C   UNL     1      -9.098  -8.813  17.062  0.00  0.00    +0.013 A 
ATOM     27  C   UNL     1     -10.020 -10.541  18.478  0.00  0.00    +0.013 A 
ATOM     28  C   UNL     1     -10.202  -9.497  17.570  0.00  0.00    +0.055 A 
BRANCH  28  30
ATOM      2  F   UNL     1     -12.529  -9.320  18.099  0.00  0.00    -0.166 F 
ATOM      3  F   UNL     1     -11.696  -7.797  16.798  0.00  0.00    -0.166 F 
ATOM      4  F   UNL     1     -12.002  -9.815  16.049  0.00  0.00    -0.166 F 
ATOM     30  C   UNL     1     -11.577  -9.114  17.140  0.00  0.00    +0.417 C 
ENDBRANCH  28  30
ENDBRANCH  17  19
BRANCH   8  16
ATOM     16  C   UNL     1      -3.201 -12.343  12.405  0.00  0.00    +0.144 C 
BRANCH  16  18
ATOM      1  F   UNL     1      -4.082  -8.420   8.464  0.00  0.00    -0.205 F 
ATOM     18  C   UNL     1      -3.436 -11.298  11.354  0.00  0.00    -0.030 A 
ATOM     20  C   UNL     1      -4.439 -11.478  10.402  0.00  0.00    +0.008 A 
ATOM     21  C   UNL     1      -2.651 -10.144  11.329  0.00  0.00    +0.008 A 
ATOM     24  C   UNL     1      -4.658 -10.507   9.425  0.00  0.00    +0.038 A 
ATOM     25  C   UNL     1      -2.869  -9.172  10.352  0.00  0.00    +0.038 A 
ATOM     29  C   UNL     1      -3.873  -9.354   9.401  0.00  0.00    +0.123 A 
ENDBRANCH  16  18
ENDBRANCH   8  16
TORSDOF 4
ENDMDL
MODEL 4
REMARK VINA RESULT:      -6.9     25.577     29.536
REMARK  Name = 75536992
REMARK  4 active torsions:
REMARK  status: ('A' for Active; 'I' for Inactive)
REMARK    1  A    between atoms: N_8  and  C_16
REMARK    2  A    between atoms: C_16  and  C_18
REMARK    3  A    between atoms: C_17  and  C_19
REMARK    4  A    between atoms: C_28  and  C_30
REMARK                            x       y       z     vdW  Elec       q    Type
REMARK                         _______ _______ _______ _____ _____    ______ ____
ROOT
ATOM      5  O   UNL     1      13.342   7.324   4.718  0.00  0.00    -0.252 OA
ATOM      6  O   UNL     1      14.900   4.574  -1.513  0.00  0.00    -0.270 OA
ATOM      7  N   UNL     1      13.056   6.218   2.666  0.00  0.00    -0.278 N 
ATOM      8  N   UNL     1      11.222   6.815   3.819  0.00  0.00    -0.279 N 
ATOM      9  N   UNL     1      13.457   5.656  -0.027  0.00  0.00    -0.294 N 
ATOM     10  C   UNL     1      11.949   5.661   1.907  0.00  0.00    +0.112 C 
ATOM     11  C   UNL     1      10.713   6.254   2.580  0.00  0.00    +0.133 C 
ATOM     12  C   UNL     1      12.097   6.003   0.428  0.00  0.00    +0.132 C 
ATOM     13  C   UNL     1      14.421   5.998   2.218  0.00  0.00    +0.128 C 
ATOM     14  C   UNL     1      14.539   6.306   0.727  0.00  0.00    +0.127 C 
ATOM     15  C   UNL     1      12.631   6.843   3.845  0.00  0.00    +0.306 C 
ATOM     17  C   UNL     1      13.767   4.828  -1.107  0.00  0.00    +0.247 C 
ENDROOT
BRANCH  17  19
ATOM     19  C   UNL     1      12.659   4.187  -1.827  0.00  0.00    +0.037 A 
ATOM     22  C   UNL     1      12.421   2.822  -1.668  0.00  0.00    +0.013 A 
ATOM     23  C   UNL     1      11.845   4.943  -2.670  0.00  0.00    +0.013 A 
ATOM     26  C   UNL     1      11.368   2.213  -2.353  0.00  0.00    +0.013 A 
ATOM     27  C   UNL     1      10.794   4.336  -3.355  0.00  0.00    +0.013 A 
ATOM     28  C   UNL     1      10.555   2.970  -3.196  0.00  0.00    +0.055 A 
BRANCH  28  30
ATOM      2  F   UNL     1       9.700   2.078  -5.245  0.00  0.00    -0.166 F 
ATOM      3  F   UNL     1       9.070   1.108  -3.410  0.00  0.00    -0.166 F 
ATOM      4  F   UNL     1       8.293   3.073  -3.919  0.00  0.00    -0.166 F 
ATOM     30  C   UNL     1       9.431   2.320  -3.928  0.00  0.00    +0.417 C 
ENDBRANCH  28  30
ENDBRANCH  17  19
BRANCH   8  16
ATOM     16  C   UNL     1      10.347   7.389   4.816  0.00  0.00    +0.144 C 
BRANCH  16  18
ATOM      1  F   UNL     1       9.619   3.953   9.217  0.00  0.00    -0.205 F 
ATOM     18  C   UNL     1      10.154   6.473   5.989  0.00  0.00    -0.030 A 
ATOM     20  C   UNL     1      10.154   6.989   7.285  0.00  0.00    +0.008 A 
ATOM     21  C   UNL     1       9.973   5.105   5.785  0.00  0.00    +0.008 A 
ATOM     24  C   UNL     1       9.973   6.139   8.376  0.00  0.00    +0.038 A 
ATOM     25  C   UNL     1       9.793   4.254   6.875  0.00  0.00    +0.038 A 
ATOM     29  C   UNL     1       9.793   4.771   8.170  0.00  0.00    +0.123 A 
ENDBRANCH  16  18
ENDBRANCH   8  16
TORSDOF 4
ENDMDL
MODEL 5
REMARK VINA RESULT:      -6.9      5.576      8.605
REMARK  Name = 75536992
REMARK  4 active torsions:
REMARK  status: ('A' for Active; 'I' for Inactive)
REMARK    1  A    between atoms: N_8  and  C_16
REMARK    2  A    between atoms: C_16  and  C_18
REMARK    3  A    between atoms: C_17  and  C_19
REMARK    4  A    between atoms: C_28  and  C_30
REMARK                            x       y       z     vdW  Elec       q    Type
REMARK                         _______ _______ _______ _____ _____    ______ ____
ROOT
ATOM      5  O   UNL     1      -4.509  -9.555   8.542  0.00  0.00    -0.252 OA
ATOM      6  O   UNL     1      -1.668 -10.555  14.846  0.00  0.00    -0.270 OA
ATOM      7  N   UNL     1      -4.355  -9.812  10.872  0.00  0.00    -0.278 N 
ATOM      8  N   UNL     1      -6.392  -9.881   9.924  0.00  0.00    -0.279 N 
ATOM      9  N   UNL     1      -3.395 -10.793  13.289  0.00  0.00    -0.294 N 
ATOM     10  C   UNL     1      -5.276  -9.902  11.992  0.00  0.00    +0.112 C 
ATOM     11  C   UNL     1      -6.627 -10.163  11.329  0.00  0.00    +0.133 C 
ATOM     12  C   UNL     1      -4.821 -10.987  12.964  0.00  0.00    +0.132 C 
ATOM     13  C   UNL     1      -2.926  -9.719  11.117  0.00  0.00    +0.128 C 
ATOM     14  C   UNL     1      -2.497 -10.784  12.124  0.00  0.00    +0.127 C 
ATOM     15  C   UNL     1      -5.020  -9.724   9.641  0.00  0.00    +0.306 C 
ATOM     17  C   UNL     1      -2.862 -10.672  14.573  0.00  0.00    +0.247 C 
ENDROOT
BRANCH  17  19
ATOM     19  C   UNL     1      -3.793 -10.671  15.710  0.00  0.00    +0.037 A 
ATOM     22  C   UNL     1      -4.967  -9.920  15.651  0.00  0.00    +0.013 A 
ATOM     23  C   UNL     1      -3.501 -11.421  16.849  0.00  0.00    +0.013 A 
ATOM     26  C   UNL     1      -5.849  -9.920  16.732  0.00  0.00    +0.013 A 
ATOM     27  C   UNL     1      -4.383 -11.421  17.929  0.00  0.00    +0.013 A 
ATOM     28  C   UNL     1      -5.557 -10.670  17.871  0.00  0.00    +0.055 A 
BRANCH  28  30
ATOM      2  F   UNL     1      -6.739 -11.912  19.540  0.00  0.00    -0.166 F 
ATOM      3  F   UNL     1      -6.069  -9.922  20.084  0.00  0.00    -0.166 F 
ATOM      4  F   UNL     1      -7.728 -10.167  18.700  0.00  0.00    -0.166 F 
ATOM     30  C   UNL     1      -6.501 -10.669  19.025  0.00  0.00    +0.417 C 
ENDBRANCH  28  30
ENDBRANCH  17  19
BRANCH   8  16
ATOM     16  C   UNL     1      -7.458  -9.904   8.950  0.00  0.00    +0.144 C 
BRANCH  16  18
ATOM      1  F   UNL     1      -9.982  -4.894   8.466  0.00  0.00    -0.205 F 
ATOM     18  C   UNL     1      -8.131  -8.569   8.820  0.00  0.00    -0.030 A 
ATOM     20  C   UNL     1      -9.424  -8.388   9.312  0.00  0.00    +0.008 A 
ATOM     21  C   UNL     1      -7.464  -7.507   8.209  0.00  0.00    +0.008 A 
ATOM     24  C   UNL     1     -10.050  -7.148   9.193  0.00  0.00    +0.038 A 
ATOM     25  C   UNL     1      -8.090  -6.266   8.089  0.00  0.00    +0.038 A 
ATOM     29  C   UNL     1      -9.382  -6.086   8.581  0.00  0.00    +0.123 A 
ENDBRANCH  16  18
ENDBRANCH   8  16
TORSDOF 4
ENDMDL
MODEL 6
REMARK VINA RESULT:      -6.9      1.504      2.196
REMARK  Name = 75536992
REMARK  4 active torsions:
REMARK  status: ('A' for Active; 'I' for Inactive)
REMARK    1  A    between atoms: N_8  and  C_16
REMARK    2  A    between atoms: C_16  and  C_18
REMARK    3  A    between atoms: C_17  and  C_19
REMARK    4  A    between atoms: C_28  and  C_30
REMARK                            x       y       z     vdW  Elec       q    Type
REMARK                         _______ _______ _______ _____ _____    ______ ____
ROOT
ATOM      5  O   UNL     1      -3.711 -11.909  18.855  0.00  0.00    -0.252 OA
ATOM      6  O   UNL     1     -10.595 -10.799  19.300  0.00  0.00    -0.270 OA
ATOM      7  N   UNL     1      -5.828 -10.996  18.404  0.00  0.00    -0.278 N 
ATOM      8  N   UNL     1      -4.153 -10.564  16.969  0.00  0.00    -0.279 N 
ATOM      9  N   UNL     1      -8.592 -10.943  18.105  0.00  0.00    -0.294 N 
ATOM     10  C   UNL     1      -6.399 -10.065  17.445  0.00  0.00    +0.112 C 
ATOM     11  C   UNL     1      -5.324  -9.951  16.366  0.00  0.00    +0.133 C 
ATOM     12  C   UNL     1      -7.748 -10.576  16.951  0.00  0.00    +0.132 C 
ATOM     13  C   UNL     1      -6.636 -11.477  19.512  0.00  0.00    +0.128 C 
ATOM     14  C   UNL     1      -7.998 -11.945  19.003  0.00  0.00    +0.127 C 
ATOM     15  C   UNL     1      -4.469 -11.238  18.166  0.00  0.00    +0.306 C 
ATOM     17  C   UNL     1      -9.875 -10.459  18.362  0.00  0.00    +0.247 C 
ENDROOT
BRANCH  17  19
ATOM     19  C   UNL     1     -10.428  -9.449  17.450  0.00  0.00    +0.037 A 
ATOM     22  C   UNL     1     -10.007  -8.123  17.539  0.00  0.00    +0.013 A 
ATOM     23  C   UNL     1     -11.375  -9.817  16.494  0.00  0.00    +0.013 A 
ATOM     26  C   UNL     1     -10.534  -7.164  16.673  0.00  0.00    +0.013 A 
ATOM     27  C   UNL     1     -11.902  -8.859  15.628  0.00  0.00    +0.013 A 
ATOM     28  C   UNL     1     -11.481  -7.532  15.718  0.00  0.00    +0.055 A 
BRANCH  28  30
ATOM      2  F   UNL     1     -13.196  -5.933  15.245  0.00  0.00    -0.166 F 
ATOM      3  F   UNL     1     -11.195  -5.463  14.553  0.00  0.00    -0.166 F 
ATOM      4  F   UNL     1     -12.348  -7.019  13.564  0.00  0.00    -0.166 F 
ATOM     30  C   UNL     1     -12.043  -6.507  14.792  0.00  0.00    +0.417 C 
ENDBRANCH  28  30
ENDBRANCH  17  19
BRANCH   8  16
ATOM     16  C   UNL     1      -2.867 -10.570  16.310  0.00  0.00    +0.144 C 
BRANCH  16  18
ATOM      1  F   UNL     1      -3.116 -12.970  11.223  0.00  0.00    -0.205 F 
ATOM     18  C   UNL     1      -2.932 -11.210  14.954  0.00  0.00    -0.030 A 
ATOM     20  C   UNL     1      -3.410 -12.514  14.820  0.00  0.00    +0.008 A 
ATOM     21  C   UNL     1      -2.517 -10.501  13.826  0.00  0.00    +0.008 A 
ATOM     24  C   UNL     1      -3.472 -13.109  13.560  0.00  0.00    +0.038 A 
ATOM     25  C   UNL     1      -2.579 -11.096  12.566  0.00  0.00    +0.038 A 
ATOM     29  C   UNL     1      -3.057 -12.400  12.434  0.00  0.00    +0.123 A 
ENDBRANCH  16  18
ENDBRANCH   8  16
TORSDOF 4
ENDMDL
MODEL 7
REMARK VINA RESULT:      -6.8      4.319      8.579
REMARK  Name = 75536992
REMARK  4 active torsions:
REMARK  status: ('A' for Active; 'I' for Inactive)
REMARK    1  A    between atoms: N_8  and  C_16
REMARK    2  A    between atoms: C_16  and  C_18
REMARK    3  A    between atoms: C_17  and  C_19
REMARK    4  A    between atoms: C_28  and  C_30
REMARK                            x       y       z     vdW  Elec       q    Type
REMARK                         _______ _______ _______ _____ _____    ______ ____
ROOT
ATOM      5  O   UNL     1      -4.752 -12.064  17.705  0.00  0.00    -0.252 OA
ATOM      6  O   UNL     1      -1.255 -10.372  11.897  0.00  0.00    -0.270 OA
ATOM      7  N   UNL     1      -4.327 -11.652  15.432  0.00  0.00    -0.278 N 
ATOM      8  N   UNL     1      -6.463 -11.873  16.094  0.00  0.00    -0.279 N 
ATOM      9  N   UNL     1      -3.186 -10.426  13.213  0.00  0.00    -0.294 N 
ATOM     10  C   UNL     1      -5.099 -11.601  14.201  0.00  0.00    +0.112 C 
ATOM     11  C   UNL     1      -6.546 -11.536  14.684  0.00  0.00    +0.133 C 
ATOM     12  C   UNL     1      -4.655 -10.416  13.349  0.00  0.00    +0.132 C 
ATOM     13  C   UNL     1      -2.877 -11.567  15.379  0.00  0.00    +0.128 C 
ATOM     14  C   UNL     1      -2.453 -10.401  14.488  0.00  0.00    +0.127 C 
ATOM     15  C   UNL     1      -5.131 -11.889  16.554  0.00  0.00    +0.306 C 
ATOM     17  C   UNL     1      -2.480 -10.409  12.010  0.00  0.00    +0.247 C 
ENDROOT
BRANCH  17  19
ATOM     19  C   UNL     1      -3.247 -10.448  10.757  0.00  0.00    +0.037 A 
ATOM     22  C   UNL     1      -3.540  -9.264  10.081  0.00  0.00    +0.013 A 
ATOM     23  C   UNL     1      -3.682 -11.670  10.245  0.00  0.00    +0.013 A 
ATOM     26  C   UNL     1      -4.270  -9.302   8.892  0.00  0.00    +0.013 A 
ATOM     27  C   UNL     1      -4.411 -11.708   9.057  0.00  0.00    +0.013 A 
ATOM     28  C   UNL     1      -4.705 -10.524   8.380  0.00  0.00    +0.055 A 
BRANCH  28  30
ATOM      2  F   UNL     1      -6.100  -9.383   6.807  0.00  0.00    -0.166 F 
ATOM      3  F   UNL     1      -4.726 -10.862   6.013  0.00  0.00    -0.166 F 
ATOM      4  F   UNL     1      -6.478 -11.499   7.132  0.00  0.00    -0.166 F 
ATOM     30  C   UNL     1      -5.484 -10.564   7.110  0.00  0.00    +0.417 C 
ENDBRANCH  28  30
ENDBRANCH  17  19
BRANCH   8  16
ATOM     16  C   UNL     1      -7.643 -12.029  16.914  0.00  0.00    +0.144 C 
BRANCH  16  18
ATOM      1  F   UNL     1     -10.966  -7.488  16.726  0.00  0.00    -0.205 F 
ATOM     18  C   UNL     1      -8.528 -10.818  16.863  0.00  0.00    -0.030 A 
ATOM     20  C   UNL     1      -9.808 -10.912  16.316  0.00  0.00    +0.008 A 
ATOM     21  C   UNL     1      -8.073  -9.599  17.365  0.00  0.00    +0.008 A 
ATOM     24  C   UNL     1     -10.631  -9.788  16.269  0.00  0.00    +0.038 A 
ATOM     25  C   UNL     1      -8.896  -8.474  17.318  0.00  0.00    +0.038 A 
ATOM     29  C   UNL     1     -10.175  -8.569  16.770  0.00  0.00    +0.123 A 
ENDBRANCH  16  18
ENDBRANCH   8  16
TORSDOF 4
ENDMDL
MODEL 8
REMARK VINA RESULT:      -6.8      1.631      8.053
REMARK  Name = 75536992
REMARK  4 active torsions:
REMARK  status: ('A' for Active; 'I' for Inactive)
REMARK    1  A    between atoms: N_8  and  C_16
REMARK    2  A    between atoms: C_16  and  C_18
REMARK    3  A    between atoms: C_17  and  C_19
REMARK    4  A    between atoms: C_28  and  C_30
REMARK                            x       y       z     vdW  Elec       q    Type
REMARK                         _______ _______ _______ _____ _____    ______ ____
ROOT
ATOM      5  O   UNL     1     -10.144 -11.056  20.016  0.00  0.00    -0.252 OA
ATOM      6  O   UNL     1      -3.334 -11.777  18.629  0.00  0.00    -0.270 OA
ATOM      7  N   UNL     1      -8.148 -11.164  18.783  0.00  0.00    -0.278 N 
ATOM      8  N   UNL     1      -9.988 -10.374  17.764  0.00  0.00    -0.279 N 
ATOM      9  N   UNL     1      -5.440 -10.837  18.246  0.00  0.00    -0.294 N 
ATOM     10  C   UNL     1      -7.740 -10.954  17.404  0.00  0.00    +0.112 C 
ATOM     11  C   UNL     1      -8.928 -10.221  16.783  0.00  0.00    +0.133 C 
ATOM     12  C   UNL     1      -6.421 -10.190  17.353  0.00  0.00    +0.132 C 
ATOM     13  C   UNL     1      -7.199 -11.706  19.742  0.00  0.00    +0.128 C 
ATOM     14  C   UNL     1      -5.872 -10.957  19.646  0.00  0.00    +0.127 C 
ATOM     15  C   UNL     1      -9.507 -10.889  18.984  0.00  0.00    +0.306 C 
ATOM     17  C   UNL     1      -4.169 -11.278  17.875  0.00  0.00    +0.247 C 
ENDROOT
BRANCH  17  19
ATOM     19  C   UNL     1      -3.779 -11.154  16.464  0.00  0.00    +0.037 A 
ATOM     22  C   UNL     1      -4.606 -11.664  15.464  0.00  0.00    +0.013 A 
ATOM     23  C   UNL     1      -2.580 -10.525  16.126  0.00  0.00    +0.013 A 
ATOM     26  C   UNL     1      -4.234 -11.546  14.124  0.00  0.00    +0.013 A 
ATOM     27  C   UNL     1      -2.208 -10.407  14.787  0.00  0.00    +0.013 A 
ATOM     28  C   UNL     1      -3.035 -10.918  13.786  0.00  0.00    +0.055 A 
BRANCH  28  30
ATOM      2  F   UNL     1      -2.487 -11.992  11.720  0.00  0.00    -0.166 F 
ATOM      3  F   UNL     1      -3.539 -10.100  11.596  0.00  0.00    -0.166 F 
ATOM      4  F   UNL     1      -1.450 -10.141  12.194  0.00  0.00    -0.166 F 
ATOM     30  C   UNL     1      -2.638 -10.792  12.354  0.00  0.00    +0.417 C 
ENDBRANCH  28  30
ENDBRANCH  17  19
BRANCH   8  16
ATOM     16  C   UNL     1     -11.333  -9.909  17.515  0.00  0.00    +0.144 C 
BRANCH  16  18
ATOM      1  F   UNL     1     -11.414  -5.385  14.164  0.00  0.00    -0.205 F 
ATOM     18  C   UNL     1     -11.356  -8.702  16.622  0.00  0.00    -0.030 A 
ATOM     20  C   UNL     1     -10.915  -7.469  17.103  0.00  0.00    +0.008 A 
ATOM     21  C   UNL     1     -11.815  -8.814  15.309  0.00  0.00    +0.008 A 
ATOM     24  C   UNL     1     -10.934  -6.349  16.274  0.00  0.00    +0.038 A 
ATOM     25  C   UNL     1     -11.835  -7.693  14.479  0.00  0.00    +0.038 A 
ATOM     29  C   UNL     1     -11.395  -6.461  14.962  0.00  0.00    +0.123 A 
ENDBRANCH  16  18
ENDBRANCH   8  16
TORSDOF 4
ENDMDL
MODEL 9
REMARK VINA RESULT:      -6.7      1.450      8.358
REMARK  Name = 75536992
REMARK  4 active torsions:
REMARK  status: ('A' for Active; 'I' for Inactive)
REMARK    1  A    between atoms: N_8  and  C_16
REMARK    2  A    between atoms: C_16  and  C_18
REMARK    3  A    between atoms: C_17  and  C_19
REMARK    4  A    between atoms: C_28  and  C_30
REMARK                            x       y       z     vdW  Elec       q    Type
REMARK                         _______ _______ _______ _____ _____    ______ ____
ROOT
ATOM      5  O   UNL     1     -10.824  -9.940  19.160  0.00  0.00    -0.252 OA
ATOM      6  O   UNL     1      -4.820 -13.303  17.954  0.00  0.00    -0.270 OA
ATOM      7  N   UNL     1      -8.802 -10.532  18.121  0.00  0.00    -0.278 N 
ATOM      8  N   UNL     1      -9.809  -8.625  17.486  0.00  0.00    -0.279 N 
ATOM      9  N   UNL     1      -6.165 -11.392  17.937  0.00  0.00    -0.294 N 
ATOM     10  C   UNL     1      -7.994 -10.042  17.017  0.00  0.00    +0.112 C 
ATOM     11  C   UNL     1      -8.561  -8.651  16.742  0.00  0.00    +0.133 C 
ATOM     12  C   UNL     1      -6.516 -10.066  17.393  0.00  0.00    +0.132 C 
ATOM     13  C   UNL     1      -8.454 -11.784  18.771  0.00  0.00    +0.128 C 
ATOM     14  C   UNL     1      -6.963 -11.806  19.101  0.00  0.00    +0.127 C 
ATOM     15  C   UNL     1      -9.926  -9.729  18.355  0.00  0.00    +0.306 C 
ATOM     17  C   UNL     1      -5.141 -12.217  17.472  0.00  0.00    +0.247 C 
ENDROOT
BRANCH  17  19
ATOM     19  C   UNL     1      -4.375 -11.774  16.299  0.00  0.00    +0.037 A 
ATOM     22  C   UNL     1      -3.173 -11.087  16.469  0.00  0.00    +0.013 A 
ATOM     23  C   UNL     1      -4.849 -12.042  15.015  0.00  0.00    +0.013 A 
ATOM     26  C   UNL     1      -2.447 -10.666  15.354  0.00  0.00    +0.013 A 
ATOM     27  C   UNL     1      -4.124 -11.622  13.901  0.00  0.00    +0.013 A 
ATOM     28  C   UNL     1      -2.922 -10.933  14.071  0.00  0.00    +0.055 A 
BRANCH  28  30
ATOM      2  F   UNL     1      -2.916  -9.918  11.904  0.00  0.00    -0.166 F 
ATOM      3  F   UNL     1      -1.194  -9.547  13.170  0.00  0.00    -0.166 F 
ATOM      4  F   UNL     1      -1.477 -11.506  12.272  0.00  0.00    -0.166 F 
ATOM     30  C   UNL     1      -2.146 -10.483  12.881  0.00  0.00    +0.417 C 
ENDBRANCH  28  30
ENDBRANCH  17  19
BRANCH   8  16
ATOM     16  C   UNL     1     -10.723  -7.509  17.409  0.00  0.00    +0.144 C 
BRANCH  16  18
ATOM      1  F   UNL     1     -12.889  -6.903  12.248  0.00  0.00    -0.205 F 
ATOM     18  C   UNL     1     -11.300  -7.348  16.033  0.00  0.00    -0.030 A 
ATOM     20  C   UNL     1     -11.726  -8.468  15.319  0.00  0.00    +0.008 A 
ATOM     21  C   UNL     1     -11.412  -6.077  15.467  0.00  0.00    +0.008 A 
ATOM     24  C   UNL     1     -12.263  -8.318  14.041  0.00  0.00    +0.038 A 
ATOM     25  C   UNL     1     -11.948  -5.927  14.188  0.00  0.00    +0.038 A 
ATOM     29  C   UNL     1     -12.374  -7.048  13.476  0.00  0.00    +0.123 A 
ENDBRANCH  16  18
ENDBRANCH   8  16
TORSDOF 4
ENDMDL
MODEL 10
REMARK VINA RESULT:      -6.7      1.796      2.423
REMARK  Name = 75536992
REMARK  4 active torsions:
REMARK  status: ('A' for Active; 'I' for Inactive)
REMARK    1  A    between atoms: N_8  and  C_16
REMARK    2  A    between atoms: C_16  and  C_18
REMARK    3  A    between atoms: C_17  and  C_19
REMARK    4  A    between atoms: C_28  and  C_30
REMARK                            x       y       z     vdW  Elec       q    Type
REMARK                         _______ _______ _______ _____ _____    ______ ____
ROOT
ATOM      5  O   UNL     1      -3.934 -13.904  15.697  0.00  0.00    -0.252 OA
ATOM      6  O   UNL     1      -8.774 -10.956  19.783  0.00  0.00    -0.270 OA
ATOM      7  N   UNL     1      -5.698 -12.503  16.361  0.00  0.00    -0.278 N 
ATOM      8  N   UNL     1      -5.234 -12.666  14.168  0.00  0.00    -0.279 N 
ATOM      9  N   UNL     1      -7.998 -11.738  17.722  0.00  0.00    -0.294 N 
ATOM     10  C   UNL     1      -6.586 -11.543  15.726  0.00  0.00    +0.112 C 
ATOM     11  C   UNL     1      -6.412 -11.819  14.234  0.00  0.00    +0.133 C 
ATOM     12  C   UNL     1      -8.009 -11.716  16.246  0.00  0.00    +0.132 C 
ATOM     13  C   UNL     1      -5.706 -12.648  17.806  0.00  0.00    +0.128 C 
ATOM     14  C   UNL     1      -7.141 -12.777  18.312  0.00  0.00    +0.127 C 
ATOM     15  C   UNL     1      -4.839 -13.120  15.442  0.00  0.00    +0.306 C 
ATOM     17  C   UNL     1      -8.750 -10.908  18.554  0.00  0.00    +0.247 C 
ENDROOT
BRANCH  17  19
ATOM     19  C   UNL     1      -9.583  -9.873  17.927  0.00  0.00    +0.037 A 
ATOM     22  C   UNL     1     -10.969 -10.026  17.879  0.00  0.00    +0.013 A 
ATOM     23  C   UNL     1      -8.988  -8.736  17.379  0.00  0.00    +0.013 A 
ATOM     26  C   UNL     1     -11.759  -9.043  17.283  0.00  0.00    +0.013 A 
ATOM     27  C   UNL     1      -9.778  -7.754  16.783  0.00  0.00    +0.013 A 
ATOM     28  C   UNL     1     -11.164  -7.907  16.735  0.00  0.00    +0.055 A 
BRANCH  28  30
ATOM      2  F   UNL     1     -11.638  -5.583  16.422  0.00  0.00    -0.166 F 
ATOM      3  F   UNL     1     -11.994  -6.896  14.733  0.00  0.00    -0.166 F 
ATOM      4  F   UNL     1     -13.324  -6.955  16.452  0.00  0.00    -0.166 F 
ATOM     30  C   UNL     1     -12.009  -6.857  16.099  0.00  0.00    +0.417 C 
ENDBRANCH  28  30
ENDBRANCH  17  19
BRANCH   8  16
ATOM     16  C   UNL     1      -4.655 -13.076  12.908  0.00  0.00    +0.144 C 
BRANCH  16  18
ATOM      1  F   UNL     1      -1.648  -8.952  10.531  0.00  0.00    -0.205 F 
ATOM     18  C   UNL     1      -3.853 -11.977  12.274  0.00  0.00    -0.030 A 
ATOM     20  C   UNL     1      -4.336 -11.327  11.138  0.00  0.00    +0.008 A 
ATOM     21  C   UNL     1      -2.626 -11.603  12.821  0.00  0.00    +0.008 A 
ATOM     24  C   UNL     1      -3.591 -10.306  10.548  0.00  0.00    +0.038 A 
ATOM     25  C   UNL     1      -1.880 -10.582  12.232  0.00  0.00    +0.038 A 
ATOM     29  C   UNL     1      -2.364  -9.933  11.096  0.00  0.00    +0.123 A 
ENDBRANCH  16  18
ENDBRANCH   8  16
TORSDOF 4
ENDMDL
