MODEL 1
REMARK VINA RESULT:      -8.1      0.000      0.000
REMARK  Name = 51136978
REMARK  9 active torsions:
REMARK  status: ('A' for Active; 'I' for Inactive)
REMARK    1  A    between atoms: O_6  and  C_14
REMARK    2  A    between atoms: O_7  and  C_21
REMARK    3  A    between atoms: N_9  and  C_12
REMARK    4  A    between atoms: N_10  and  C_22
REMARK    5  A    between atoms: N_11  and  C_18
REMARK    6  A    between atoms: C_13  and  C_18
REMARK    7  A    between atoms: C_15  and  C_21
REMARK    8  A    between atoms: C_24  and  C_28
REMARK    9  A    between atoms: C_26  and  C_30
REMARK                            x       y       z     vdW  Elec       q    Type
REMARK                         _______ _______ _______ _____ _____    ______ ____
ROOT
ATOM      5  O   UNL     1     -17.380   3.786  23.646  0.00  0.00    -0.365 OA
ATOM     12  C   UNL     1     -17.296   3.354  25.985  0.00  0.00    +0.118 C 
ATOM     13  C   UNL     1     -16.671   4.168  24.845  0.00  0.00    +0.155 C 
ATOM     14  C   UNL     1     -17.844   2.128  25.272  0.00  0.00    +0.165 C 
ATOM     15  C   UNL     1     -18.333   2.755  23.971  0.00  0.00    +0.174 C 
ENDROOT
BRANCH  12   9
ATOM      9  N   UNL     1     -16.436   3.077  27.123  0.00  0.00    -0.292 NA
ATOM     10  N   UNL     1     -15.815   2.636  29.875  0.00  0.00    -0.327 N 
ATOM     16  C   UNL     1     -16.472   4.191  28.079  0.00  0.00    +0.104 C 
ATOM     17  C   UNL     1     -16.847   1.835  27.788  0.00  0.00    +0.104 C 
ATOM     19  C   UNL     1     -15.526   3.936  29.255  0.00  0.00    +0.120 C 
ATOM     20  C   UNL     1     -15.914   1.501  28.954  0.00  0.00    +0.120 C 
BRANCH  10  22
ATOM     22  C   UNL     1     -15.388   2.428  31.192  0.00  0.00    +0.030 A 
ATOM     23  C   UNL     1     -15.252   3.511  32.061  0.00  0.00    +0.035 A 
ATOM     25  C   UNL     1     -15.099   1.137  31.634  0.00  0.00    +0.023 A 
ATOM     26  C   UNL     1     -14.827   3.302  33.373  0.00  0.00    +0.057 A 
ATOM     27  C   UNL     1     -14.673   0.930  32.946  0.00  0.00    +0.002 A 
ATOM     29  C   UNL     1     -14.537   2.012  33.815  0.00  0.00    +0.012 A 
BRANCH  26  30
ATOM      2  F   UNL     1     -15.861   5.113  34.515  0.00  0.00    -0.166 F 
ATOM      3  F   UNL     1     -14.226   4.113  35.542  0.00  0.00    -0.166 F 
ATOM      4  F   UNL     1     -13.811   5.413  33.856  0.00  0.00    -0.166 F 
ATOM     30  C   UNL     1     -14.682   4.460  34.302  0.00  0.00    +0.417 C 
ENDBRANCH  26  30
ENDBRANCH  10  22
ENDBRANCH  12   9
BRANCH  14   6
ATOM      6  O   UNL     1     -16.819   1.178  25.008  0.00  0.00    -0.388 OA
ATOM     36  H   UNL     1     -15.988   1.668  24.888  0.00  0.00    +0.210 HD
ENDBRANCH  14   6
BRANCH  13  18
ATOM     18  C   UNL     1     -15.186   3.947  24.582  0.00  0.00    +0.137 C 
BRANCH  18  11
ATOM      8  O   UNL     1     -14.816   4.349  21.763  0.00  0.00    -0.270 OA
ATOM     11  N   UNL     1     -14.598   5.090  23.951  0.00  0.00    -0.309 N 
ATOM     24  C   UNL     1     -14.458   5.203  22.570  0.00  0.00    +0.246 C 
ATOM     37  H   UNL     1     -14.281   5.852  24.545  0.00  0.00    +0.149 HD
BRANCH  24  28
ATOM      1 CL   UNL     1     -15.828   7.906  23.166  0.00  0.00    -0.083 Cl
ATOM     28  C   UNL     1     -13.803   6.441  22.073  0.00  0.00    +0.055 A 
ATOM     31  C   UNL     1     -14.350   7.704  22.296  0.00  0.00    +0.053 A 
ATOM     32  C   UNL     1     -12.607   6.313  21.367  0.00  0.00    +0.014 A 
ATOM     33  C   UNL     1     -13.701   8.840  21.814  0.00  0.00    +0.021 A 
ATOM     34  C   UNL     1     -11.958   7.449  20.883  0.00  0.00    +0.001 A 
ATOM     35  C   UNL     1     -12.504   8.713  21.107  0.00  0.00    +0.001 A 
ENDBRANCH  24  28
ENDBRANCH  18  11
ENDBRANCH  13  18
BRANCH  15  21
ATOM     21  C   UNL     1     -18.463   1.804  22.796  0.00  0.00    +0.190 C 
BRANCH  21   7
ATOM      7  O   UNL     1     -17.172   1.545  22.270  0.00  0.00    -0.392 OA
ATOM     38  H   UNL     1     -16.976   0.607  22.438  0.00  0.00    +0.210 HD
ENDBRANCH  21   7
ENDBRANCH  15  21
TORSDOF 9
ENDMDL
MODEL 2
REMARK VINA RESULT:      -8.0     17.324     19.968
REMARK  Name = 51136978
REMARK  9 active torsions:
REMARK  status: ('A' for Active; 'I' for Inactive)
REMARK    1  A    between atoms: O_6  and  C_14
REMARK    2  A    between atoms: O_7  and  C_21
REMARK    3  A    between atoms: N_9  and  C_12
REMARK    4  A    between atoms: N_10  and  C_22
REMARK    5  A    between atoms: N_11  and  C_18
REMARK    6  A    between atoms: C_13  and  C_18
REMARK    7  A    between atoms: C_15  and  C_21
REMARK    8  A    between atoms: C_24  and  C_28
REMARK    9  A    between atoms: C_26  and  C_30
REMARK                            x       y       z     vdW  Elec       q    Type
REMARK                         _______ _______ _______ _____ _____    ______ ____
ROOT
ATOM      5  O   UNL     1     -10.413 -11.532  17.562  0.00  0.00    -0.365 OA
ATOM     12  C   UNL     1     -11.521  -9.611  16.697  0.00  0.00    +0.118 C 
ATOM     13  C   UNL     1     -10.728 -10.868  16.318  0.00  0.00    +0.155 C 
ATOM     14  C   UNL     1     -11.043  -9.317  18.111  0.00  0.00    +0.165 C 
ATOM     15  C   UNL     1     -10.897 -10.732  18.658  0.00  0.00    +0.174 C 
ENDROOT
BRANCH  12   9
ATOM      9  N   UNL     1     -11.440  -8.496  15.770  0.00  0.00    -0.292 NA
ATOM     10  N   UNL     1     -12.456  -6.425  14.086  0.00  0.00    -0.327 N 
ATOM     16  C   UNL     1     -12.103  -8.829  14.504  0.00  0.00    +0.104 C 
ATOM     17  C   UNL     1     -12.050  -7.295  16.354  0.00  0.00    +0.104 C 
ATOM     19  C   UNL     1     -11.974  -7.682  13.498  0.00  0.00    +0.120 C 
ATOM     20  C   UNL     1     -11.920  -6.098  15.410  0.00  0.00    +0.120 C 
BRANCH  10  22
ATOM     22  C   UNL     1     -12.836  -5.397  13.216  0.00  0.00    +0.030 A 
ATOM     23  C   UNL     1     -12.134  -5.193  12.027  0.00  0.00    +0.035 A 
ATOM     25  C   UNL     1     -13.916  -4.575  13.538  0.00  0.00    +0.023 A 
ATOM     26  C   UNL     1     -12.513  -4.168  11.161  0.00  0.00    +0.057 A 
ATOM     27  C   UNL     1     -14.294  -3.550  12.671  0.00  0.00    +0.002 A 
ATOM     29  C   UNL     1     -13.593  -3.346  11.483  0.00  0.00    +0.012 A 
BRANCH  26  30
ATOM      2  F   UNL     1     -10.960  -5.006   9.568  0.00  0.00    -0.166 F 
ATOM      3  F   UNL     1     -12.568  -3.758   8.805  0.00  0.00    -0.166 F 
ATOM      4  F   UNL     1     -10.939  -2.861   9.921  0.00  0.00    -0.166 F 
ATOM     30  C   UNL     1     -11.762  -3.950   9.891  0.00  0.00    +0.417 C 
ENDBRANCH  26  30
ENDBRANCH  10  22
ENDBRANCH  12   9
BRANCH  14   6
ATOM      6  O   UNL     1      -9.785  -8.655  18.107  0.00  0.00    -0.388 OA
ATOM     36  H   UNL     1      -9.253  -9.038  17.389  0.00  0.00    +0.210 HD
ENDBRANCH  14   6
BRANCH  13  18
ATOM     18  C   UNL     1      -9.414 -10.649  15.577  0.00  0.00    +0.137 C 
BRANCH  18  11
ATOM      8  O   UNL     1      -7.356  -8.954  16.640  0.00  0.00    -0.270 OA
ATOM     11  N   UNL     1      -8.297 -11.057  16.375  0.00  0.00    -0.309 N 
ATOM     24  C   UNL     1      -7.342 -10.163  16.851  0.00  0.00    +0.246 C 
ATOM     37  H   UNL     1      -8.213 -12.043  16.607  0.00  0.00    +0.149 HD
BRANCH  24  28
ATOM      1 CL   UNL     1      -4.642 -10.642  15.428  0.00  0.00    -0.083 Cl
ATOM     28  C   UNL     1      -6.230 -10.748  17.644  0.00  0.00    +0.055 A 
ATOM     31  C   UNL     1      -4.977 -10.999  17.084  0.00  0.00    +0.053 A 
ATOM     32  C   UNL     1      -6.467 -11.048  18.985  0.00  0.00    +0.014 A 
ATOM     33  C   UNL     1      -3.961 -11.548  17.866  0.00  0.00    +0.021 A 
ATOM     34  C   UNL     1      -5.451 -11.599  19.767  0.00  0.00    +0.001 A 
ATOM     35  C   UNL     1      -4.198 -11.849  19.208  0.00  0.00    +0.001 A 
ENDBRANCH  24  28
ENDBRANCH  18  11
ENDBRANCH  13  18
BRANCH  15  21
ATOM     21  C   UNL     1      -9.957 -10.881  19.840  0.00  0.00    +0.190 C 
BRANCH  21   7
ATOM      7  O   UNL     1     -10.321  -9.940  20.837  0.00  0.00    -0.392 OA
ATOM     38  H   UNL     1     -11.043  -9.400  20.472  0.00  0.00    +0.210 HD
ENDBRANCH  21   7
ENDBRANCH  15  21
TORSDOF 9
ENDMDL
MODEL 3
REMARK VINA RESULT:      -7.5      1.828      2.278
REMARK  Name = 51136978
REMARK  9 active torsions:
REMARK  status: ('A' for Active; 'I' for Inactive)
REMARK    1  A    between atoms: O_6  and  C_14
REMARK    2  A    between atoms: O_7  and  C_21
REMARK    3  A    between atoms: N_9  and  C_12
REMARK    4  A    between atoms: N_10  and  C_22
REMARK    5  A    between atoms: N_11  and  C_18
REMARK    6  A    between atoms: C_13  and  C_18
REMARK    7  A    between atoms: C_15  and  C_21
REMARK    8  A    between atoms: C_24  and  C_28
REMARK    9  A    between atoms: C_26  and  C_30
REMARK                            x       y       z     vdW  Elec       q    Type
REMARK                         _______ _______ _______ _____ _____    ______ ____
ROOT
ATOM      5  O   UNL     1     -17.995   5.074  22.959  0.00  0.00    -0.365 OA
ATOM     12  C   UNL     1     -17.830   3.633  24.845  0.00  0.00    +0.118 C 
ATOM     13  C   UNL     1     -17.416   4.997  24.281  0.00  0.00    +0.155 C 
ATOM     14  C   UNL     1     -18.046   2.794  23.595  0.00  0.00    +0.165 C 
ATOM     15  C   UNL     1     -18.663   3.832  22.665  0.00  0.00    +0.174 C 
ENDROOT
BRANCH  12   9
ATOM      9  N   UNL     1     -16.940   3.051  25.836  0.00  0.00    -0.292 NA
ATOM     10  N   UNL     1     -16.208   2.010  28.392  0.00  0.00    -0.327 N 
ATOM     16  C   UNL     1     -16.794   3.949  26.988  0.00  0.00    +0.104 C 
ATOM     17  C   UNL     1     -17.445   1.747  26.279  0.00  0.00    +0.104 C 
ATOM     19  C   UNL     1     -15.814   3.373  28.012  0.00  0.00    +0.120 C 
ATOM     20  C   UNL     1     -16.487   1.097  27.280  0.00  0.00    +0.120 C 
BRANCH  10  22
ATOM     22  C   UNL     1     -15.729   1.502  29.605  0.00  0.00    +0.030 A 
ATOM     23  C   UNL     1     -15.502   2.361  30.681  0.00  0.00    +0.035 A 
ATOM     25  C   UNL     1     -15.478   0.136  29.738  0.00  0.00    +0.023 A 
ATOM     26  C   UNL     1     -15.025   1.854  31.889  0.00  0.00    +0.057 A 
ATOM     27  C   UNL     1     -15.001  -0.370  30.947  0.00  0.00    +0.002 A 
ATOM     29  C   UNL     1     -14.774   0.488  32.022  0.00  0.00    +0.012 A 
BRANCH  26  30
ATOM      2  F   UNL     1     -14.601   2.104  34.215  0.00  0.00    -0.166 F 
ATOM      3  F   UNL     1     -13.674   3.556  32.889  0.00  0.00    -0.166 F 
ATOM      4  F   UNL     1     -15.807   3.645  33.268  0.00  0.00    -0.166 F 
ATOM     30  C   UNL     1     -14.782   2.772  33.039  0.00  0.00    +0.417 C 
ENDBRANCH  26  30
ENDBRANCH  10  22
ENDBRANCH  12   9
BRANCH  14   6
ATOM      6  O   UNL     1     -16.813   2.324  23.064  0.00  0.00    -0.388 OA
ATOM     36  H   UNL     1     -16.189   2.236  23.804  0.00  0.00    +0.210 HD
ENDBRANCH  14   6
BRANCH  13  18
ATOM     18  C   UNL     1     -15.920   5.252  24.134  0.00  0.00    +0.137 C 
BRANCH  18  11
ATOM      8  O   UNL     1     -14.406   4.529  21.805  0.00  0.00    -0.270 OA
ATOM     11  N   UNL     1     -15.647   6.083  23.000  0.00  0.00    -0.309 N 
ATOM     24  C   UNL     1     -14.900   5.648  21.908  0.00  0.00    +0.246 C 
ATOM     37  H   UNL     1     -16.027   7.025  22.998  0.00  0.00    +0.149 HD
BRANCH  24  28
ATOM      1 CL   UNL     1     -11.993   6.441  21.227  0.00  0.00    -0.083 Cl
ATOM     28  C   UNL     1     -14.683   6.640  20.823  0.00  0.00    +0.055 A 
ATOM     31  C   UNL     1     -13.406   7.056  20.449  0.00  0.00    +0.053 A 
ATOM     32  C   UNL     1     -15.804   7.157  20.173  0.00  0.00    +0.014 A 
ATOM     33  C   UNL     1     -13.249   7.989  19.423  0.00  0.00    +0.021 A 
ATOM     34  C   UNL     1     -15.647   8.091  19.148  0.00  0.00    +0.001 A 
ATOM     35  C   UNL     1     -14.369   8.506  18.773  0.00  0.00    +0.001 A 
ENDBRANCH  24  28
ENDBRANCH  18  11
ENDBRANCH  13  18
BRANCH  15  21
ATOM     21  C   UNL     1     -18.539   3.535  21.182  0.00  0.00    +0.190 C 
BRANCH  21   7
ATOM      7  O   UNL     1     -17.277   3.993  20.726  0.00  0.00    -0.392 OA
ATOM     38  H   UNL     1     -17.444   4.692  20.071  0.00  0.00    +0.210 HD
ENDBRANCH  21   7
ENDBRANCH  15  21
TORSDOF 9
ENDMDL
MODEL 4
REMARK VINA RESULT:      -7.3     32.484     37.154
REMARK  Name = 51136978
REMARK  9 active torsions:
REMARK  status: ('A' for Active; 'I' for Inactive)
REMARK    1  A    between atoms: O_6  and  C_14
REMARK    2  A    between atoms: O_7  and  C_21
REMARK    3  A    between atoms: N_9  and  C_12
REMARK    4  A    between atoms: N_10  and  C_22
REMARK    5  A    between atoms: N_11  and  C_18
REMARK    6  A    between atoms: C_13  and  C_18
REMARK    7  A    between atoms: C_15  and  C_21
REMARK    8  A    between atoms: C_24  and  C_28
REMARK    9  A    between atoms: C_26  and  C_30
REMARK                            x       y       z     vdW  Elec       q    Type
REMARK                         _______ _______ _______ _____ _____    ______ ____
ROOT
ATOM      5  O   UNL     1      13.375   3.586  -0.905  0.00  0.00    -0.365 OA
ATOM     12  C   UNL     1      12.995   4.527   1.248  0.00  0.00    +0.118 C 
ATOM     13  C   UNL     1      12.415   3.598   0.175  0.00  0.00    +0.155 C 
ATOM     14  C   UNL     1      13.890   5.461   0.448  0.00  0.00    +0.165 C 
ATOM     15  C   UNL     1      14.450   4.492  -0.588  0.00  0.00    +0.174 C 
ENDROOT
BRANCH  12   9
ATOM      9  N   UNL     1      12.034   5.184   2.117  0.00  0.00    -0.292 NA
ATOM     10  N   UNL     1      10.866   5.945   4.610  0.00  0.00    -0.327 N 
ATOM     16  C   UNL     1      11.317   4.196   2.933  0.00  0.00    +0.104 C 
ATOM     17  C   UNL     1      12.706   6.157   2.986  0.00  0.00    +0.104 C 
ATOM     19  C   UNL     1      10.261   4.871   3.811  0.00  0.00    +0.120 C 
ATOM     20  C   UNL     1      11.697   6.897   3.867  0.00  0.00    +0.120 C 
BRANCH  10  22
ATOM     22  C   UNL     1      10.195   6.363   5.765  0.00  0.00    +0.030 A 
ATOM     23  C   UNL     1      10.163   5.538   6.890  0.00  0.00    +0.035 A 
ATOM     25  C   UNL     1       9.557   7.603   5.791  0.00  0.00    +0.023 A 
ATOM     26  C   UNL     1       9.495   5.954   8.041  0.00  0.00    +0.057 A 
ATOM     27  C   UNL     1       8.888   8.018   6.942  0.00  0.00    +0.002 A 
ATOM     29  C   UNL     1       8.857   7.195   8.067  0.00  0.00    +0.012 A 
BRANCH  26  30
ATOM      2  F   UNL     1      10.537   5.261  10.062  0.00  0.00    -0.166 F 
ATOM      3  F   UNL     1       8.363   5.264  10.032  0.00  0.00    -0.166 F 
ATOM      4  F   UNL     1       9.458   3.740   8.945  0.00  0.00    -0.166 F 
ATOM     30  C   UNL     1       9.461   5.073   9.243  0.00  0.00    +0.417 C 
ENDBRANCH  26  30
ENDBRANCH  10  22
ENDBRANCH  12   9
BRANCH  14   6
ATOM      6  O   UNL     1      13.137   6.485  -0.189  0.00  0.00    -0.388 OA
ATOM     36  H   UNL     1      12.367   6.066  -0.609  0.00  0.00    +0.210 HD
ENDBRANCH  14   6
BRANCH  13  18
ATOM     18  C   UNL     1      11.070   3.997  -0.421  0.00  0.00    +0.137 C 
BRANCH  18  11
ATOM      8  O   UNL     1      11.371   5.686  -2.723  0.00  0.00    -0.270 OA
ATOM     11  N   UNL     1      10.974   3.598  -1.793  0.00  0.00    -0.309 N 
ATOM     24  C   UNL     1      11.135   4.488  -2.852  0.00  0.00    +0.246 C 
ATOM     37  H   UNL     1      10.790   2.619  -1.992  0.00  0.00    +0.149 HD
BRANCH  24  28
ATOM      1 CL   UNL     1       8.345   4.628  -4.169  0.00  0.00    -0.083 Cl
ATOM     28  C   UNL     1      10.979   3.922  -4.216  0.00  0.00    +0.055 A 
ATOM     31  C   UNL     1       9.757   3.941  -4.888  0.00  0.00    +0.053 A 
ATOM     32  C   UNL     1      12.101   3.360  -4.825  0.00  0.00    +0.014 A 
ATOM     33  C   UNL     1       9.656   3.400  -6.169  0.00  0.00    +0.021 A 
ATOM     34  C   UNL     1      12.000   2.817  -6.107  0.00  0.00    +0.001 A 
ATOM     35  C   UNL     1      10.778   2.837  -6.779  0.00  0.00    +0.001 A 
ENDBRANCH  24  28
ENDBRANCH  18  11
ENDBRANCH  13  18
BRANCH  15  21
ATOM     21  C   UNL     1      14.962   5.128  -1.867  0.00  0.00    +0.190 C 
BRANCH  21   7
ATOM      7  O   UNL     1      14.688   4.259  -2.954  0.00  0.00    -0.392 OA
ATOM     38  H   UNL     1      13.907   4.612  -3.413  0.00  0.00    +0.210 HD
ENDBRANCH  21   7
ENDBRANCH  15  21
TORSDOF 9
ENDMDL
MODEL 5
REMARK VINA RESULT:      -7.3     20.844     23.003
REMARK  Name = 51136978
REMARK  9 active torsions:
REMARK  status: ('A' for Active; 'I' for Inactive)
REMARK    1  A    between atoms: O_6  and  C_14
REMARK    2  A    between atoms: O_7  and  C_21
REMARK    3  A    between atoms: N_9  and  C_12
REMARK    4  A    between atoms: N_10  and  C_22
REMARK    5  A    between atoms: N_11  and  C_18
REMARK    6  A    between atoms: C_13  and  C_18
REMARK    7  A    between atoms: C_15  and  C_21
REMARK    8  A    between atoms: C_24  and  C_28
REMARK    9  A    between atoms: C_26  and  C_30
REMARK                            x       y       z     vdW  Elec       q    Type
REMARK                         _______ _______ _______ _____ _____    ______ ____
ROOT
ATOM      5  O   UNL     1      -7.922  -9.795   7.493  0.00  0.00    -0.365 OA
ATOM     12  C   UNL     1      -6.359 -10.492   9.147  0.00  0.00    +0.118 C 
ATOM     13  C   UNL     1      -7.686  -9.759   8.918  0.00  0.00    +0.155 C 
ATOM     14  C   UNL     1      -5.635 -10.315   7.821  0.00  0.00    +0.165 C 
ATOM     15  C   UNL     1      -6.802 -10.432   6.847  0.00  0.00    +0.174 C 
ENDROOT
BRANCH  12   9
ATOM      9  N   UNL     1      -5.602 -10.098  10.324  0.00  0.00    -0.292 NA
ATOM     10  N   UNL     1      -4.137 -10.510  12.740  0.00  0.00    -0.327 N 
ATOM     16  C   UNL     1      -6.294 -10.522  11.547  0.00  0.00    +0.104 C 
ATOM     17  C   UNL     1      -4.254 -10.676  10.286  0.00  0.00    +0.104 C 
ATOM     19  C   UNL     1      -5.535 -10.062  12.794  0.00  0.00    +0.120 C 
ATOM     20  C   UNL     1      -3.427 -10.222  11.491  0.00  0.00    +0.120 C 
BRANCH  10  22
ATOM     22  C   UNL     1      -3.425 -10.586  13.943  0.00  0.00    +0.030 A 
ATOM     23  C   UNL     1      -4.085 -10.930  15.124  0.00  0.00    +0.035 A 
ATOM     25  C   UNL     1      -2.057 -10.319  13.961  0.00  0.00    +0.023 A 
ATOM     26  C   UNL     1      -3.375 -11.006  16.321  0.00  0.00    +0.057 A 
ATOM     27  C   UNL     1      -1.347 -10.395  15.159  0.00  0.00    +0.002 A 
ATOM     29  C   UNL     1      -2.006 -10.738  16.339  0.00  0.00    +0.012 A 
BRANCH  26  30
ATOM      2  F   UNL     1      -4.812 -12.518  17.461  0.00  0.00    -0.166 F 
ATOM      3  F   UNL     1      -3.239 -11.587  18.638  0.00  0.00    -0.166 F 
ATOM      4  F   UNL     1      -4.959 -10.421  18.016  0.00  0.00    -0.166 F 
ATOM     30  C   UNL     1      -4.080 -11.373  17.584  0.00  0.00    +0.417 C 
ENDBRANCH  26  30
ENDBRANCH  10  22
ENDBRANCH  12   9
BRANCH  14   6
ATOM      6  O   UNL     1      -5.035  -9.029   7.723  0.00  0.00    -0.388 OA
ATOM     36  H   UNL     1      -4.219  -9.045   8.251  0.00  0.00    +0.210 HD
ENDBRANCH  14   6
BRANCH  13  18
ATOM     18  C   UNL     1      -7.744  -8.297   9.349  0.00  0.00    +0.137 C 
BRANCH  18  11
ATOM      8  O   UNL     1      -8.814  -6.643   7.261  0.00  0.00    -0.270 OA
ATOM     11  N   UNL     1      -9.079  -7.786   9.263  0.00  0.00    -0.309 N 
ATOM     24  C   UNL     1      -9.515  -6.987   8.208  0.00  0.00    +0.246 C 
ATOM     37  H   UNL     1      -9.731  -8.031  10.002  0.00  0.00    +0.149 HD
BRANCH  24  28
ATOM      1 CL   UNL     1     -10.020  -4.053   9.028  0.00  0.00    -0.083 Cl
ATOM     28  C   UNL     1     -10.922  -6.516   8.279  0.00  0.00    +0.055 A 
ATOM     31  C   UNL     1     -11.244  -5.207   8.640  0.00  0.00    +0.053 A 
ATOM     32  C   UNL     1     -11.935  -7.424   7.971  0.00  0.00    +0.014 A 
ATOM     33  C   UNL     1     -12.579  -4.807   8.692  0.00  0.00    +0.021 A 
ATOM     34  C   UNL     1     -13.270  -7.023   8.024  0.00  0.00    +0.001 A 
ATOM     35  C   UNL     1     -13.593  -5.714   8.384  0.00  0.00    +0.001 A 
ENDBRANCH  24  28
ENDBRANCH  18  11
ENDBRANCH  13  18
BRANCH  15  21
ATOM     21  C   UNL     1      -6.582  -9.798   5.486  0.00  0.00    +0.190 C 
BRANCH  21   7
ATOM      7  O   UNL     1      -6.757  -8.395   5.599  0.00  0.00    -0.392 OA
ATOM     38  H   UNL     1      -6.030  -7.975   5.109  0.00  0.00    +0.210 HD
ENDBRANCH  21   7
ENDBRANCH  15  21
TORSDOF 9
ENDMDL
MODEL 6
REMARK VINA RESULT:      -7.3     16.737     18.080
REMARK  Name = 51136978
REMARK  9 active torsions:
REMARK  status: ('A' for Active; 'I' for Inactive)
REMARK    1  A    between atoms: O_6  and  C_14
REMARK    2  A    between atoms: O_7  and  C_21
REMARK    3  A    between atoms: N_9  and  C_12
REMARK    4  A    between atoms: N_10  and  C_22
REMARK    5  A    between atoms: N_11  and  C_18
REMARK    6  A    between atoms: C_13  and  C_18
REMARK    7  A    between atoms: C_15  and  C_21
REMARK    8  A    between atoms: C_24  and  C_28
REMARK    9  A    between atoms: C_26  and  C_30
REMARK                            x       y       z     vdW  Elec       q    Type
REMARK                         _______ _______ _______ _____ _____    ______ ____
ROOT
ATOM      5  O   UNL     1     -14.643  -6.539  14.397  0.00  0.00    -0.365 OA
ATOM     12  C   UNL     1     -12.843  -7.909  15.137  0.00  0.00    +0.118 C 
ATOM     13  C   UNL     1     -13.374  -6.472  15.086  0.00  0.00    +0.155 C 
ATOM     14  C   UNL     1     -13.506  -8.565  13.935  0.00  0.00    +0.165 C 
ATOM     15  C   UNL     1     -14.875  -7.896  13.972  0.00  0.00    +0.174 C 
ENDROOT
BRANCH  12   9
ATOM      9  N   UNL     1     -11.399  -8.059  15.206  0.00  0.00    -0.292 NA
ATOM     10  N   UNL     1      -8.935  -9.193  16.099  0.00  0.00    -0.327 N 
ATOM     16  C   UNL     1     -10.921  -7.812  16.573  0.00  0.00    +0.104 C 
ATOM     17  C   UNL     1     -10.999  -9.402  14.772  0.00  0.00    +0.104 C 
ATOM     19  C   UNL     1      -9.395  -7.910  16.646  0.00  0.00    +0.120 C 
ATOM     20  C   UNL     1      -9.476  -9.553  14.786  0.00  0.00    +0.120 C 
BRANCH  10  22
ATOM     22  C   UNL     1      -7.668  -9.652  16.479  0.00  0.00    +0.030 A 
ATOM     23  C   UNL     1      -7.457 -10.125  17.774  0.00  0.00    +0.035 A 
ATOM     25  C   UNL     1      -6.617  -9.636  15.562  0.00  0.00    +0.023 A 
ATOM     26  C   UNL     1      -6.195 -10.583  18.152  0.00  0.00    +0.057 A 
ATOM     27  C   UNL     1      -5.356 -10.094  15.941  0.00  0.00    +0.002 A 
ATOM     29  C   UNL     1      -5.144 -10.567  17.235  0.00  0.00    +0.012 A 
BRANCH  26  30
ATOM      2  F   UNL     1      -6.854 -12.067  19.888  0.00  0.00    -0.166 F 
ATOM      3  F   UNL     1      -4.730 -11.630  19.727  0.00  0.00    -0.166 F 
ATOM      4  F   UNL     1      -6.089 -10.125  20.497  0.00  0.00    -0.166 F 
ATOM     30  C   UNL     1      -5.969 -11.089  19.537  0.00  0.00    +0.417 C 
ENDBRANCH  26  30
ENDBRANCH  10  22
ENDBRANCH  12   9
BRANCH  14   6
ATOM      6  O   UNL     1     -12.829  -8.241  12.727  0.00  0.00    -0.388 OA
ATOM     36  H   UNL     1     -12.163  -8.931  12.569  0.00  0.00    +0.210 HD
ENDBRANCH  14   6
BRANCH  13  18
ATOM     18  C   UNL     1     -12.514  -5.451  14.349  0.00  0.00    +0.137 C 
BRANCH  18  11
ATOM      8  O   UNL     1     -11.936  -3.038  12.905  0.00  0.00    -0.270 OA
ATOM     11  N   UNL     1     -13.164  -4.990  13.160  0.00  0.00    -0.309 N 
ATOM     24  C   UNL     1     -12.817  -3.802  12.521  0.00  0.00    +0.246 C 
ATOM     37  H   UNL     1     -13.902  -5.567  12.766  0.00  0.00    +0.149 HD
BRANCH  24  28
ATOM      1 CL   UNL     1     -11.454  -4.104   9.766  0.00  0.00    -0.083 Cl
ATOM     28  C   UNL     1     -13.605  -3.451  11.311  0.00  0.00    +0.055 A 
ATOM     31  C   UNL     1     -13.071  -3.557  10.027  0.00  0.00    +0.053 A 
ATOM     32  C   UNL     1     -14.915  -3.006  11.488  0.00  0.00    +0.014 A 
ATOM     33  C   UNL     1     -13.847  -3.218   8.919  0.00  0.00    +0.021 A 
ATOM     34  C   UNL     1     -15.691  -2.666  10.379  0.00  0.00    +0.001 A 
ATOM     35  C   UNL     1     -15.158  -2.773   9.094  0.00  0.00    +0.001 A 
ENDBRANCH  24  28
ENDBRANCH  18  11
ENDBRANCH  13  18
BRANCH  15  21
ATOM     21  C   UNL     1     -15.632  -7.887  12.657  0.00  0.00    +0.190 C 
BRANCH  21   7
ATOM      7  O   UNL     1     -15.239  -6.747  11.909  0.00  0.00    -0.392 OA
ATOM     38  H   UNL     1     -14.330  -6.528  12.177  0.00  0.00    +0.210 HD
ENDBRANCH  21   7
ENDBRANCH  15  21
TORSDOF 9
ENDMDL
MODEL 7
REMARK VINA RESULT:      -7.2      4.185      6.610
REMARK  Name = 51136978
REMARK  9 active torsions:
REMARK  status: ('A' for Active; 'I' for Inactive)
REMARK    1  A    between atoms: O_6  and  C_14
REMARK    2  A    between atoms: O_7  and  C_21
REMARK    3  A    between atoms: N_9  and  C_12
REMARK    4  A    between atoms: N_10  and  C_22
REMARK    5  A    between atoms: N_11  and  C_18
REMARK    6  A    between atoms: C_13  and  C_18
REMARK    7  A    between atoms: C_15  and  C_21
REMARK    8  A    between atoms: C_24  and  C_28
REMARK    9  A    between atoms: C_26  and  C_30
REMARK                            x       y       z     vdW  Elec       q    Type
REMARK                         _______ _______ _______ _____ _____    ______ ____
ROOT
ATOM      5  O   UNL     1     -15.670   0.200  29.302  0.00  0.00    -0.365 OA
ATOM     12  C   UNL     1     -15.093   1.829  30.938  0.00  0.00    +0.118 C 
ATOM     13  C   UNL     1     -16.013   1.531  29.748  0.00  0.00    +0.155 C 
ATOM     14  C   UNL     1     -13.886   0.943  30.672  0.00  0.00    +0.165 C 
ATOM     15  C   UNL     1     -14.568  -0.291  30.091  0.00  0.00    +0.174 C 
ENDROOT
BRANCH  12   9
ATOM      9  N   UNL     1     -14.792   3.230  31.182  0.00  0.00    -0.292 NA
ATOM     10  N   UNL     1     -14.437   5.585  32.758  0.00  0.00    -0.327 N 
ATOM     16  C   UNL     1     -15.952   3.912  31.768  0.00  0.00    +0.104 C 
ATOM     17  C   UNL     1     -13.633   3.360  32.073  0.00  0.00    +0.104 C 
ATOM     19  C   UNL     1     -15.667   5.401  31.976  0.00  0.00    +0.120 C 
ATOM     20  C   UNL     1     -13.270   4.830  32.292  0.00  0.00    +0.120 C 
BRANCH  10  22
ATOM     22  C   UNL     1     -14.257   6.804  33.422  0.00  0.00    +0.030 A 
ATOM     23  C   UNL     1     -13.394   6.882  34.516  0.00  0.00    +0.035 A 
ATOM     25  C   UNL     1     -14.939   7.940  32.989  0.00  0.00    +0.023 A 
ATOM     26  C   UNL     1     -13.215   8.097  35.176  0.00  0.00    +0.057 A 
ATOM     27  C   UNL     1     -14.760   9.155  33.651  0.00  0.00    +0.002 A 
ATOM     29  C   UNL     1     -13.898   9.233  34.744  0.00  0.00    +0.012 A 
BRANCH  26  30
ATOM      2  F   UNL     1     -12.116   6.974  36.961  0.00  0.00    -0.166 F 
ATOM      3  F   UNL     1     -11.039   8.614  36.025  0.00  0.00    -0.166 F 
ATOM      4  F   UNL     1     -12.725   9.029  37.324  0.00  0.00    -0.166 F 
ATOM     30  C   UNL     1     -12.293   8.180  36.346  0.00  0.00    +0.417 C 
ENDBRANCH  26  30
ENDBRANCH  10  22
ENDBRANCH  12   9
BRANCH  14   6
ATOM      6  O   UNL     1     -13.015   1.526  29.711  0.00  0.00    -0.388 OA
ATOM     36  H   UNL     1     -13.383   2.391  29.467  0.00  0.00    +0.210 HD
ENDBRANCH  14   6
BRANCH  13  18
ATOM     18  C   UNL     1     -15.893   2.456  28.542  0.00  0.00    +0.137 C 
BRANCH  18  11
ATOM      8  O   UNL     1     -17.951   3.521  26.848  0.00  0.00    -0.270 OA
ATOM     11  N   UNL     1     -16.434   1.844  27.366  0.00  0.00    -0.309 N 
ATOM     24  C   UNL     1     -17.435   2.435  26.599  0.00  0.00    +0.246 C 
ATOM     37  H   UNL     1     -16.056   0.945  27.080  0.00  0.00    +0.149 HD
BRANCH  24  28
ATOM      1 CL   UNL     1     -16.394   3.256  23.809  0.00  0.00    -0.083 Cl
ATOM     28  C   UNL     1     -17.907   1.659  25.423  0.00  0.00    +0.055 A 
ATOM     31  C   UNL     1     -17.489   1.959  24.126  0.00  0.00    +0.053 A 
ATOM     32  C   UNL     1     -18.792   0.605  25.644  0.00  0.00    +0.014 A 
ATOM     33  C   UNL     1     -17.956   1.204  23.051  0.00  0.00    +0.021 A 
ATOM     34  C   UNL     1     -19.260  -0.150  24.568  0.00  0.00    +0.001 A 
ATOM     35  C   UNL     1     -18.842   0.149  23.271  0.00  0.00    +0.001 A 
ENDBRANCH  24  28
ENDBRANCH  18  11
ENDBRANCH  13  18
BRANCH  15  21
ATOM     21  C   UNL     1     -13.689  -1.176  29.227  0.00  0.00    +0.190 C 
BRANCH  21   7
ATOM      7  O   UNL     1     -12.416  -1.297  29.841  0.00  0.00    -0.392 OA
ATOM     38  H   UNL     1     -12.175  -2.239  29.821  0.00  0.00    +0.210 HD
ENDBRANCH  21   7
ENDBRANCH  15  21
TORSDOF 9
ENDMDL
MODEL 8
REMARK VINA RESULT:      -7.2      2.505      3.856
REMARK  Name = 51136978
REMARK  9 active torsions:
REMARK  status: ('A' for Active; 'I' for Inactive)
REMARK    1  A    between atoms: O_6  and  C_14
REMARK    2  A    between atoms: O_7  and  C_21
REMARK    3  A    between atoms: N_9  and  C_12
REMARK    4  A    between atoms: N_10  and  C_22
REMARK    5  A    between atoms: N_11  and  C_18
REMARK    6  A    between atoms: C_13  and  C_18
REMARK    7  A    between atoms: C_15  and  C_21
REMARK    8  A    between atoms: C_24  and  C_28
REMARK    9  A    between atoms: C_26  and  C_30
REMARK                            x       y       z     vdW  Elec       q    Type
REMARK                         _______ _______ _______ _____ _____    ______ ____
ROOT
ATOM      5  O   UNL     1     -17.629   6.962  21.272  0.00  0.00    -0.365 OA
ATOM     12  C   UNL     1     -17.556   5.325  22.999  0.00  0.00    +0.118 C 
ATOM     13  C   UNL     1     -17.477   6.828  22.703  0.00  0.00    +0.155 C 
ATOM     14  C   UNL     1     -17.097   4.693  21.694  0.00  0.00    +0.165 C 
ATOM     15  C   UNL     1     -17.722   5.649  20.685  0.00  0.00    +0.174 C 
ENDROOT
BRANCH  12   9
ATOM      9  N   UNL     1     -16.857   4.868  24.189  0.00  0.00    -0.292 NA
ATOM     10  N   UNL     1     -16.492   3.333  26.570  0.00  0.00    -0.327 N 
ATOM     16  C   UNL     1     -17.639   5.171  25.394  0.00  0.00    +0.104 C 
ATOM     17  C   UNL     1     -16.599   3.425  24.111  0.00  0.00    +0.104 C 
ATOM     19  C   UNL     1     -16.888   4.745  26.657  0.00  0.00    +0.120 C 
ATOM     20  C   UNL     1     -15.814   2.941  25.332  0.00  0.00    +0.120 C 
BRANCH  10  22
ATOM     22  C   UNL     1     -16.213   2.655  27.761  0.00  0.00    +0.030 A 
ATOM     23  C   UNL     1     -15.405   3.250  28.731  0.00  0.00    +0.035 A 
ATOM     25  C   UNL     1     -16.741   1.382  27.979  0.00  0.00    +0.023 A 
ATOM     26  C   UNL     1     -15.127   2.573  29.917  0.00  0.00    +0.057 A 
ATOM     27  C   UNL     1     -16.462   0.706  29.166  0.00  0.00    +0.002 A 
ATOM     29  C   UNL     1     -15.656   1.301  30.135  0.00  0.00    +0.012 A 
BRANCH  26  30
ATOM      2  F   UNL     1     -14.518   4.543  31.101  0.00  0.00    -0.166 F 
ATOM      3  F   UNL     1     -14.412   2.668  32.198  0.00  0.00    -0.166 F 
ATOM      4  F   UNL     1     -12.928   3.120  30.683  0.00  0.00    -0.166 F 
ATOM     30  C   UNL     1     -14.263   3.210  30.954  0.00  0.00    +0.417 C 
ENDBRANCH  26  30
ENDBRANCH  10  22
ENDBRANCH  12   9
BRANCH  14   6
ATOM      6  O   UNL     1     -15.680   4.708  21.578  0.00  0.00    -0.388 OA
ATOM     36  H   UNL     1     -15.436   5.492  21.058  0.00  0.00    +0.210 HD
ENDBRANCH  14   6
BRANCH  13  18
ATOM     18  C   UNL     1     -16.182   7.534  23.087  0.00  0.00    +0.137 C 
BRANCH  18  11
ATOM      8  O   UNL     1     -13.793   9.114  22.883  0.00  0.00    -0.270 OA
ATOM     11  N   UNL     1     -15.257   7.549  21.994  0.00  0.00    -0.309 N 
ATOM     24  C   UNL     1     -14.118   8.350  21.978  0.00  0.00    +0.246 C 
ATOM     37  H   UNL     1     -15.444   6.937  21.204  0.00  0.00    +0.149 HD
BRANCH  24  28
ATOM      1 CL   UNL     1     -12.313   5.867  21.626  0.00  0.00    -0.083 Cl
ATOM     28  C   UNL     1     -13.274   8.269  20.758  0.00  0.00    +0.055 A 
ATOM     31  C   UNL     1     -12.429   7.186  20.517  0.00  0.00    +0.053 A 
ATOM     32  C   UNL     1     -13.344   9.317  19.842  0.00  0.00    +0.014 A 
ATOM     33  C   UNL     1     -11.655   7.150  19.357  0.00  0.00    +0.021 A 
ATOM     34  C   UNL     1     -12.568   9.283  18.682  0.00  0.00    +0.001 A 
ATOM     35  C   UNL     1     -11.724   8.199  18.439  0.00  0.00    +0.001 A 
ENDBRANCH  24  28
ENDBRANCH  18  11
ENDBRANCH  13  18
BRANCH  15  21
ATOM     21  C   UNL     1     -17.073   5.667  19.313  0.00  0.00    +0.190 C 
BRANCH  21   7
ATOM      7  O   UNL     1     -15.995   6.589  19.328  0.00  0.00    -0.392 OA
ATOM     38  H   UNL     1     -16.364   7.459  19.557  0.00  0.00    +0.210 HD
ENDBRANCH  21   7
ENDBRANCH  15  21
TORSDOF 9
ENDMDL
MODEL 9
REMARK VINA RESULT:      -7.1     22.147     25.068
REMARK  Name = 51136978
REMARK  9 active torsions:
REMARK  status: ('A' for Active; 'I' for Inactive)
REMARK    1  A    between atoms: O_6  and  C_14
REMARK    2  A    between atoms: O_7  and  C_21
REMARK    3  A    between atoms: N_9  and  C_12
REMARK    4  A    between atoms: N_10  and  C_22
REMARK    5  A    between atoms: N_11  and  C_18
REMARK    6  A    between atoms: C_13  and  C_18
REMARK    7  A    between atoms: C_15  and  C_21
REMARK    8  A    between atoms: C_24  and  C_28
REMARK    9  A    between atoms: C_26  and  C_30
REMARK                            x       y       z     vdW  Elec       q    Type
REMARK                         _______ _______ _______ _____ _____    ______ ____
ROOT
ATOM      5  O   UNL     1      -1.854 -12.504  12.889  0.00  0.00    -0.365 OA
ATOM     12  C   UNL     1      -3.329 -11.919  11.115  0.00  0.00    +0.118 C 
ATOM     13  C   UNL     1      -2.304 -11.370  12.115  0.00  0.00    +0.155 C 
ATOM     14  C   UNL     1      -3.857 -13.163  11.812  0.00  0.00    +0.165 C 
ATOM     15  C   UNL     1      -2.583 -13.676  12.474  0.00  0.00    +0.174 C 
ENDROOT
BRANCH  12   9
ATOM      9  N   UNL     1      -4.345 -10.985  10.659  0.00  0.00    -0.292 NA
ATOM     10  N   UNL     1      -5.951  -9.614   8.737  0.00  0.00    -0.327 N 
ATOM     16  C   UNL     1      -3.751  -9.961   9.791  0.00  0.00    +0.104 C 
ATOM     17  C   UNL     1      -5.409 -11.694   9.939  0.00  0.00    +0.104 C 
ATOM     19  C   UNL     1      -4.801  -8.938   9.351  0.00  0.00    +0.120 C 
ATOM     20  C   UNL     1      -6.514 -10.730   9.502  0.00  0.00    +0.120 C 
BRANCH  10  22
ATOM     22  C   UNL     1      -6.777  -8.866   7.889  0.00  0.00    +0.030 A 
ATOM     23  C   UNL     1      -7.619  -7.888   8.419  0.00  0.00    +0.035 A 
ATOM     25  C   UNL     1      -6.758  -9.100   6.514  0.00  0.00    +0.023 A 
ATOM     26  C   UNL     1      -8.441  -7.144   7.574  0.00  0.00    +0.057 A 
ATOM     27  C   UNL     1      -7.581  -8.355   5.670  0.00  0.00    +0.002 A 
ATOM     29  C   UNL     1      -8.422  -7.377   6.199  0.00  0.00    +0.012 A 
BRANCH  26  30
ATOM      2  F   UNL     1     -10.353  -5.760   7.290  0.00  0.00    -0.166 F 
ATOM      3  F   UNL     1      -9.950  -6.473   9.304  0.00  0.00    -0.166 F 
ATOM      4  F   UNL     1      -8.702  -4.927   8.434  0.00  0.00    -0.166 F 
ATOM     30  C   UNL     1      -9.341  -6.098   8.141  0.00  0.00    +0.417 C 
ENDBRANCH  26  30
ENDBRANCH  10  22
ENDBRANCH  12   9
BRANCH  14   6
ATOM      6  O   UNL     1      -4.829 -12.835  12.796  0.00  0.00    -0.388 OA
ATOM     36  H   UNL     1      -5.386 -12.125  12.435  0.00  0.00    +0.210 HD
ENDBRANCH  14   6
BRANCH  13  18
ATOM     18  C   UNL     1      -2.805 -10.320  13.101  0.00  0.00    +0.137 C 
BRANCH  18  11
ATOM      8  O   UNL     1      -5.316 -10.023  14.460  0.00  0.00    -0.270 OA
ATOM     11  N   UNL     1      -3.179 -10.920  14.347  0.00  0.00    -0.309 N 
ATOM     24  C   UNL     1      -4.426 -10.721  14.937  0.00  0.00    +0.246 C 
ATOM     37  H   UNL     1      -2.504 -11.523  14.808  0.00  0.00    +0.149 HD
BRANCH  24  28
ATOM      1 CL   UNL     1      -6.883 -12.572  15.212  0.00  0.00    -0.083 Cl
ATOM     28  C   UNL     1      -4.650 -11.392  16.243  0.00  0.00    +0.055 A 
ATOM     31  C   UNL     1      -5.733 -12.244  16.457  0.00  0.00    +0.053 A 
ATOM     32  C   UNL     1      -3.739 -11.149  17.270  0.00  0.00    +0.014 A 
ATOM     33  C   UNL     1      -5.904 -12.855  17.700  0.00  0.00    +0.021 A 
ATOM     34  C   UNL     1      -3.911 -11.759  18.513  0.00  0.00    +0.001 A 
ATOM     35  C   UNL     1      -4.993 -12.613  18.728  0.00  0.00    +0.001 A 
ENDBRANCH  24  28
ENDBRANCH  18  11
ENDBRANCH  13  18
BRANCH  15  21
ATOM     21  C   UNL     1      -2.790 -14.587  13.669  0.00  0.00    +0.190 C 
BRANCH  21   7
ATOM      7  O   UNL     1      -2.682 -13.817  14.856  0.00  0.00    -0.392 OA
ATOM     38  H   UNL     1      -3.071 -12.946  14.670  0.00  0.00    +0.210 HD
ENDBRANCH  21   7
ENDBRANCH  15  21
TORSDOF 9
ENDMDL
MODEL 10
REMARK VINA RESULT:      -7.0     19.295     21.985
REMARK  Name = 51136978
REMARK  9 active torsions:
REMARK  status: ('A' for Active; 'I' for Inactive)
REMARK    1  A    between atoms: O_6  and  C_14
REMARK    2  A    between atoms: O_7  and  C_21
REMARK    3  A    between atoms: N_9  and  C_12
REMARK    4  A    between atoms: N_10  and  C_22
REMARK    5  A    between atoms: N_11  and  C_18
REMARK    6  A    between atoms: C_13  and  C_18
REMARK    7  A    between atoms: C_15  and  C_21
REMARK    8  A    between atoms: C_24  and  C_28
REMARK    9  A    between atoms: C_26  and  C_30
REMARK                            x       y       z     vdW  Elec       q    Type
REMARK                         _______ _______ _______ _____ _____    ______ ____
ROOT
ATOM      5  O   UNL     1      -7.831 -11.140  19.779  0.00  0.00    -0.365 OA
ATOM     12  C   UNL     1      -6.355 -11.624  17.976  0.00  0.00    +0.118 C 
ATOM     13  C   UNL     1      -7.172 -10.517  18.654  0.00  0.00    +0.155 C 
ATOM     14  C   UNL     1      -7.107 -12.890  18.358  0.00  0.00    +0.165 C 
ATOM     15  C   UNL     1      -7.525 -12.548  19.783  0.00  0.00    +0.174 C 
ENDROOT
BRANCH  12   9
ATOM      9  N   UNL     1      -6.103 -11.457  16.554  0.00  0.00    -0.292 NA
ATOM     10  N   UNL     1      -4.597 -10.726  14.241  0.00  0.00    -0.327 N 
ATOM     16  C   UNL     1      -5.876 -10.043  16.234  0.00  0.00    +0.104 C 
ATOM     17  C   UNL     1      -4.944 -12.256  16.140  0.00  0.00    +0.104 C 
ATOM     19  C   UNL     1      -5.667  -9.847  14.730  0.00  0.00    +0.120 C 
ATOM     20  C   UNL     1      -4.703 -12.134  14.634  0.00  0.00    +0.120 C 
BRANCH  10  22
ATOM     22  C   UNL     1      -3.964 -10.385  13.040  0.00  0.00    +0.030 A 
ATOM     23  C   UNL     1      -4.710  -9.866  11.982  0.00  0.00    +0.035 A 
ATOM     25  C   UNL     1      -2.588 -10.565  12.902  0.00  0.00    +0.023 A 
ATOM     26  C   UNL     1      -4.079  -9.527  10.785  0.00  0.00    +0.057 A 
ATOM     27  C   UNL     1      -1.958 -10.225  11.705  0.00  0.00    +0.002 A 
ATOM     29  C   UNL     1      -2.703  -9.706  10.647  0.00  0.00    +0.012 A 
BRANCH  26  30
ATOM      2  F   UNL     1      -5.108  -7.633   9.782  0.00  0.00    -0.166 F 
ATOM      3  F   UNL     1      -4.279  -9.125   8.435  0.00  0.00    -0.166 F 
ATOM      4  F   UNL     1      -6.109  -9.545   9.520  0.00  0.00    -0.166 F 
ATOM     30  C   UNL     1      -4.877  -8.972   9.653  0.00  0.00    +0.417 C 
ENDBRANCH  26  30
ENDBRANCH  10  22
ENDBRANCH  12   9
BRANCH  14   6
ATOM      6  O   UNL     1      -8.252 -13.082  17.538  0.00  0.00    -0.388 OA
ATOM     36  H   UNL     1      -8.872 -12.357  17.725  0.00  0.00    +0.210 HD
ENDBRANCH  14   6
BRANCH  13  18
ATOM     18  C   UNL     1      -8.253  -9.850  17.810  0.00  0.00    +0.137 C 
BRANCH  18  11
ATOM      8  O   UNL     1     -10.541  -8.124  17.642  0.00  0.00    -0.270 OA
ATOM     11  N   UNL     1      -9.557 -10.103  18.346  0.00  0.00    -0.309 N 
ATOM     24  C   UNL     1     -10.614  -9.206  18.217  0.00  0.00    +0.246 C 
ATOM     37  H   UNL     1      -9.709 -10.983  18.831  0.00  0.00    +0.149 HD
BRANCH  24  28
ATOM      1 CL   UNL     1     -13.079  -9.582  16.394  0.00  0.00    -0.083 Cl
ATOM     28  C   UNL     1     -11.897  -9.605  18.852  0.00  0.00    +0.055 A 
ATOM     31  C   UNL     1     -13.060  -9.797  18.107  0.00  0.00    +0.053 A 
ATOM     32  C   UNL     1     -11.915  -9.788  20.235  0.00  0.00    +0.014 A 
ATOM     33  C   UNL     1     -14.242 -10.173  18.745  0.00  0.00    +0.021 A 
ATOM     34  C   UNL     1     -13.098 -10.163  20.873  0.00  0.00    +0.001 A 
ATOM     35  C   UNL     1     -14.261 -10.356  20.128  0.00  0.00    +0.001 A 
ENDBRANCH  24  28
ENDBRANCH  18  11
ENDBRANCH  13  18
BRANCH  15  21
ATOM     21  C   UNL     1      -8.719 -13.319  20.316  0.00  0.00    +0.190 C 
BRANCH  21   7
ATOM      7  O   UNL     1      -9.903 -12.603  20.003  0.00  0.00    -0.392 OA
ATOM     38  H   UNL     1      -9.791 -11.699  20.344  0.00  0.00    +0.210 HD
ENDBRANCH  21   7
ENDBRANCH  15  21
TORSDOF 9
ENDMDL
