MODEL 1
REMARK VINA RESULT:      -6.9      0.000      0.000
REMARK  Name = 11865650
REMARK  11 active torsions:
REMARK  status: ('A' for Active; 'I' for Inactive)
REMARK    1  A    between atoms: O_1  and  C_11
REMARK    2  A    between atoms: O_2  and  C_14
REMARK    3  A    between atoms: O_3  and  C_16
REMARK    4  A    between atoms: N_7  and  C_12
REMARK    5  A    between atoms: N_8  and  C_19
REMARK    6  A    between atoms: N_9  and  C_22
REMARK    7  A    between atoms: C_11  and  C_17
REMARK    8  A    between atoms: C_19  and  C_20
REMARK    9  A    between atoms: C_19  and  C_21
REMARK   10  A    between atoms: C_22  and  C_23
REMARK   11  A    between atoms: C_23  and  C_24
REMARK                            x       y       z     vdW  Elec       q    Type
REMARK                         _______ _______ _______ _____ _____    ______ ____
ROOT
ATOM     11  C   UNL     1      13.046   8.159  20.197  0.00  0.00    +0.146 C 
ATOM     12  C   UNL     1      11.197   8.905  21.774  0.00  0.00    +0.109 C 
ATOM     13  C   UNL     1      12.665   9.070  21.366  0.00  0.00    +0.069 C 
ATOM     14  C   UNL     1      10.844   7.439  22.054  0.00  0.00    +0.163 C 
ATOM     15  C   UNL     1      12.707   6.700  20.497  0.00  0.00    +0.078 C 
ATOM     16  C   UNL     1      11.241   6.520  20.895  0.00  0.00    +0.148 C 
ENDROOT
BRANCH  12   7
ATOM      5  O   UNL     1      10.969  11.780  21.848  0.00  0.00    -0.253 OA
ATOM      7  N   UNL     1      10.916   9.727  22.930  0.00  0.00    -0.294 N 
ATOM      9  N   UNL     1      10.545  11.651  24.126  0.00  0.00    -0.299 N 
ATOM     18  C   UNL     1      10.824  11.114  22.872  0.00  0.00    +0.300 C 
ATOM     25  H   UNL     1      10.854   9.279  23.839  0.00  0.00    +0.151 HD
ATOM     30  H   UNL     1      10.434  11.023  24.914  0.00  0.00    +0.150 HD
BRANCH   9  22
ATOM     22  C   UNL     1      10.396  13.071  24.353  0.00  0.00    +0.105 C 
BRANCH  22  23
ATOM     23  C   UNL     1      10.591  13.448  25.816  0.00  0.00    +0.015 C 
ATOM     24  C   UNL     1      11.058  14.886  25.996  0.00  0.00    +0.005 C 
ENDBRANCH  22  23
ENDBRANCH   9  22
ENDBRANCH  12   7
BRANCH  11  17
ATOM      4  O   UNL     1      14.979   9.344  19.443  0.00  0.00    -0.273 OA
ATOM      8  N   UNL     1      15.202   7.120  20.095  0.00  0.00    -0.302 N 
ATOM     17  C   UNL     1      14.504   8.295  19.873  0.00  0.00    +0.245 C 
ATOM     29  H   UNL     1      14.712   6.292  20.417  0.00  0.00    +0.150 HD
BRANCH   8  19
ATOM     19  C   UNL     1      16.618   6.981  19.839  0.00  0.00    +0.156 C 
ATOM     20  C   UNL     1      16.882   5.918  18.785  0.00  0.00    +0.038 C 
BRANCH  19  21
ATOM      6  O   UNL     1      18.496   6.842  21.373  0.00  0.00    -0.274 OA
ATOM     10  N   UNL     1      16.442   6.092  22.080  0.00  0.00    -0.328 N 
ATOM     21  C   UNL     1      17.306   6.632  21.149  0.00  0.00    +0.231 C 
ATOM     31  H   UNL     1      15.458   5.942  21.888  0.00  0.00    +0.145 HD
ATOM     32  H   UNL     1      16.772   5.826  23.002  0.00  0.00    +0.145 HD
ENDBRANCH  19  21
ENDBRANCH   8  19
ENDBRANCH  11  17
BRANCH  11   1
ATOM      1  O   UNL     1      12.366   8.560  19.012  0.00  0.00    -0.379 OA
ATOM     26  H   UNL     1      12.188   9.514  19.067  0.00  0.00    +0.211 HD
ENDBRANCH  11   1
BRANCH  14   2
ATOM      2  O   UNL     1       9.429   7.324  22.230  0.00  0.00    -0.387 OA
ATOM     27  H   UNL     1       9.062   6.886  21.443  0.00  0.00    +0.210 HD
ENDBRANCH  14   2
BRANCH  16   3
ATOM      3  O   UNL     1      11.037   5.166  21.301  0.00  0.00    -0.389 OA
ATOM     28  H   UNL     1      11.866   4.853  21.701  0.00  0.00    +0.210 HD
ENDBRANCH  16   3
TORSDOF 9
ENDMDL
MODEL 2
REMARK VINA RESULT:      -6.9      1.993      7.365
REMARK  Name = 11865650
REMARK  11 active torsions:
REMARK  status: ('A' for Active; 'I' for Inactive)
REMARK    1  A    between atoms: O_1  and  C_11
REMARK    2  A    between atoms: O_2  and  C_14
REMARK    3  A    between atoms: O_3  and  C_16
REMARK    4  A    between atoms: N_7  and  C_12
REMARK    5  A    between atoms: N_8  and  C_19
REMARK    6  A    between atoms: N_9  and  C_22
REMARK    7  A    between atoms: C_11  and  C_17
REMARK    8  A    between atoms: C_19  and  C_20
REMARK    9  A    between atoms: C_19  and  C_21
REMARK   10  A    between atoms: C_22  and  C_23
REMARK   11  A    between atoms: C_23  and  C_24
REMARK                            x       y       z     vdW  Elec       q    Type
REMARK                         _______ _______ _______ _____ _____    ______ ____
ROOT
ATOM     11  C   UNL     1      12.352   9.342  22.023  0.00  0.00    +0.146 C 
ATOM     12  C   UNL     1      13.228   7.098  21.212  0.00  0.00    +0.109 C 
ATOM     13  C   UNL     1      13.584   8.455  21.831  0.00  0.00    +0.069 C 
ATOM     14  C   UNL     1      12.430   7.256  19.912  0.00  0.00    +0.163 C 
ATOM     15  C   UNL     1      11.577   9.506  20.717  0.00  0.00    +0.078 C 
ATOM     16  C   UNL     1      11.208   8.159  20.093  0.00  0.00    +0.148 C 
ENDROOT
BRANCH  12   7
ATOM      5  O   UNL     1      15.541   7.922  19.695  0.00  0.00    -0.253 OA
ATOM      7  N   UNL     1      14.436   6.336  20.981  0.00  0.00    -0.294 N 
ATOM      9  N   UNL     1      16.535   5.880  20.171  0.00  0.00    -0.299 N 
ATOM     18  C   UNL     1      15.506   6.816  20.233  0.00  0.00    +0.300 C 
ATOM     25  H   UNL     1      14.476   5.380  21.320  0.00  0.00    +0.151 HD
ATOM     30  H   UNL     1      16.421   4.994  20.653  0.00  0.00    +0.150 HD
BRANCH   9  22
ATOM     22  C   UNL     1      17.768   6.119  19.457  0.00  0.00    +0.105 C 
BRANCH  22  23
ATOM     23  C   UNL     1      18.942   6.370  20.393  0.00  0.00    +0.015 C 
ATOM     24  C   UNL     1      19.968   5.245  20.366  0.00  0.00    +0.005 C 
ENDBRANCH  22  23
ENDBRANCH   9  22
ENDBRANCH  12   7
BRANCH  11  17
ATOM      4  O   UNL     1      13.636  11.356  22.047  0.00  0.00    -0.273 OA
ATOM      8  N   UNL     1      12.013  11.034  23.684  0.00  0.00    -0.302 N 
ATOM     17  C   UNL     1      12.746  10.685  22.563  0.00  0.00    +0.245 C 
ATOM     29  H   UNL     1      11.322  10.393  24.059  0.00  0.00    +0.150 HD
BRANCH   8  19
ATOM     19  C   UNL     1      12.215  12.269  24.408  0.00  0.00    +0.156 C 
ATOM     20  C   UNL     1      13.198  12.080  25.552  0.00  0.00    +0.038 C 
BRANCH  19  21
ATOM      6  O   UNL     1      10.699  13.263  26.024  0.00  0.00    -0.274 OA
ATOM     10  N   UNL     1       9.853  12.576  24.001  0.00  0.00    -0.328 N 
ATOM     21  C   UNL     1      10.866  12.745  24.921  0.00  0.00    +0.231 C 
ATOM     31  H   UNL     1      10.009  12.165  23.087  0.00  0.00    +0.145 HD
ATOM     32  H   UNL     1       8.903  12.863  24.214  0.00  0.00    +0.145 HD
ENDBRANCH  19  21
ENDBRANCH   8  19
ENDBRANCH  11  17
BRANCH  11   1
ATOM      1  O   UNL     1      11.488   8.788  23.009  0.00  0.00    -0.379 OA
ATOM     26  H   UNL     1      11.919   8.005  23.391  0.00  0.00    +0.211 HD
ENDBRANCH  11   1
BRANCH  14   2
ATOM      2  O   UNL     1      11.959   5.971  19.494  0.00  0.00    -0.387 OA
ATOM     27  H   UNL     1      12.111   5.892  18.536  0.00  0.00    +0.210 HD
ENDBRANCH  14   2
BRANCH  16   3
ATOM      3  O   UNL     1      10.621   8.390  18.812  0.00  0.00    -0.389 OA
ATOM     28  H   UNL     1      10.657   9.346  18.642  0.00  0.00    +0.210 HD
ENDBRANCH  16   3
TORSDOF 9
ENDMDL
MODEL 3
REMARK VINA RESULT:      -6.7      3.007      7.680
REMARK  Name = 11865650
REMARK  11 active torsions:
REMARK  status: ('A' for Active; 'I' for Inactive)
REMARK    1  A    between atoms: O_1  and  C_11
REMARK    2  A    between atoms: O_2  and  C_14
REMARK    3  A    between atoms: O_3  and  C_16
REMARK    4  A    between atoms: N_7  and  C_12
REMARK    5  A    between atoms: N_8  and  C_19
REMARK    6  A    between atoms: N_9  and  C_22
REMARK    7  A    between atoms: C_11  and  C_17
REMARK    8  A    between atoms: C_19  and  C_20
REMARK    9  A    between atoms: C_19  and  C_21
REMARK   10  A    between atoms: C_22  and  C_23
REMARK   11  A    between atoms: C_23  and  C_24
REMARK                            x       y       z     vdW  Elec       q    Type
REMARK                         _______ _______ _______ _____ _____    ______ ____
ROOT
ATOM     11  C   UNL     1      15.536   6.910  20.415  0.00  0.00    +0.146 C 
ATOM     12  C   UNL     1      17.906   6.984  21.331  0.00  0.00    +0.109 C 
ATOM     13  C   UNL     1      16.582   7.738  21.164  0.00  0.00    +0.069 C 
ATOM     14  C   UNL     1      18.441   6.468  19.989  0.00  0.00    +0.163 C 
ATOM     15  C   UNL     1      16.075   6.419  19.073  0.00  0.00    +0.078 C 
ATOM     16  C   UNL     1      17.391   5.656  19.226  0.00  0.00    +0.148 C 
ENDROOT
BRANCH  12   7
ATOM      5  O   UNL     1      19.911   6.204  23.254  0.00  0.00    -0.253 OA
ATOM      7  N   UNL     1      18.879   7.841  21.973  0.00  0.00    -0.294 N 
ATOM      9  N   UNL     1      20.623   8.410  23.351  0.00  0.00    -0.299 N 
ATOM     18  C   UNL     1      19.813   7.376  22.892  0.00  0.00    +0.300 C 
ATOM     25  H   UNL     1      18.832   8.841  21.798  0.00  0.00    +0.151 HD
ATOM     30  H   UNL     1      20.474   9.347  22.990  0.00  0.00    +0.150 HD
BRANCH   9  22
ATOM     22  C   UNL     1      21.680   8.207  24.315  0.00  0.00    +0.105 C 
BRANCH  22  23
ATOM     23  C   UNL     1      21.297   8.692  25.708  0.00  0.00    +0.015 C 
ATOM     24  C   UNL     1      20.453   7.681  26.473  0.00  0.00    +0.005 C 
ENDBRANCH  22  23
ENDBRANCH   9  22
ENDBRANCH  12   7
BRANCH  11  17
ATOM      4  O   UNL     1      14.201   8.582  19.351  0.00  0.00    -0.273 OA
ATOM      8  N   UNL     1      13.279   7.342  21.093  0.00  0.00    -0.302 N 
ATOM     17  C   UNL     1      14.280   7.705  20.209  0.00  0.00    +0.245 C 
ATOM     29  H   UNL     1      13.455   6.629  21.793  0.00  0.00    +0.150 HD
BRANCH   8  19
ATOM     19  C   UNL     1      11.979   7.972  21.117  0.00  0.00    +0.156 C 
ATOM     20  C   UNL     1      11.933   9.096  22.140  0.00  0.00    +0.038 C 
BRANCH  19  21
ATOM      6  O   UNL     1      11.098   5.710  21.199  0.00  0.00    -0.274 OA
ATOM     10  N   UNL     1       9.817   7.419  22.045  0.00  0.00    -0.328 N 
ATOM     21  C   UNL     1      10.940   6.907  21.431  0.00  0.00    +0.231 C 
ATOM     31  H   UNL     1       9.708   8.407  22.248  0.00  0.00    +0.145 HD
ATOM     32  H   UNL     1       9.051   6.812  22.319  0.00  0.00    +0.145 HD
ENDBRANCH  19  21
ENDBRANCH   8  19
ENDBRANCH  11  17
BRANCH  11   1
ATOM      1  O   UNL     1      15.138   5.788  21.194  0.00  0.00    -0.379 OA
ATOM     26  H   UNL     1      15.775   5.676  21.920  0.00  0.00    +0.211 HD
ENDBRANCH  11   1
BRANCH  14   2
ATOM      2  O   UNL     1      19.559   5.609  20.231  0.00  0.00    -0.387 OA
ATOM     27  H   UNL     1      19.377   4.752  19.810  0.00  0.00    +0.210 HD
ENDBRANCH  14   2
BRANCH  16   3
ATOM      3  O   UNL     1      17.906   5.359  17.927  0.00  0.00    -0.389 OA
ATOM     28  H   UNL     1      17.231   5.623  17.278  0.00  0.00    +0.210 HD
ENDBRANCH  16   3
TORSDOF 9
ENDMDL
MODEL 4
REMARK VINA RESULT:      -6.7      2.490      3.492
REMARK  Name = 11865650
REMARK  11 active torsions:
REMARK  status: ('A' for Active; 'I' for Inactive)
REMARK    1  A    between atoms: O_1  and  C_11
REMARK    2  A    between atoms: O_2  and  C_14
REMARK    3  A    between atoms: O_3  and  C_16
REMARK    4  A    between atoms: N_7  and  C_12
REMARK    5  A    between atoms: N_8  and  C_19
REMARK    6  A    between atoms: N_9  and  C_22
REMARK    7  A    between atoms: C_11  and  C_17
REMARK    8  A    between atoms: C_19  and  C_20
REMARK    9  A    between atoms: C_19  and  C_21
REMARK   10  A    between atoms: C_22  and  C_23
REMARK   11  A    between atoms: C_23  and  C_24
REMARK                            x       y       z     vdW  Elec       q    Type
REMARK                         _______ _______ _______ _____ _____    ______ ____
ROOT
ATOM     11  C   UNL     1      12.403   8.218  19.502  0.00  0.00    +0.146 C 
ATOM     12  C   UNL     1      10.602   8.764  21.210  0.00  0.00    +0.109 C 
ATOM     13  C   UNL     1      11.854   9.261  20.477  0.00  0.00    +0.069 C 
ATOM     14  C   UNL     1      10.840   7.413  21.894  0.00  0.00    +0.163 C 
ATOM     15  C   UNL     1      12.654   6.883  20.200  0.00  0.00    +0.078 C 
ATOM     16  C   UNL     1      11.409   6.371  20.927  0.00  0.00    +0.148 C 
ENDROOT
BRANCH  12   7
ATOM      5  O   UNL     1      12.262  10.189  23.092  0.00  0.00    -0.253 OA
ATOM      7  N   UNL     1      10.175   9.756  22.172  0.00  0.00    -0.294 N 
ATOM      9  N   UNL     1      10.375  11.300  23.860  0.00  0.00    -0.299 N 
ATOM     18  C   UNL     1      11.050  10.395  23.045  0.00  0.00    +0.300 C 
ATOM     25  H   UNL     1       9.181   9.943  22.265  0.00  0.00    +0.151 HD
ATOM     30  H   UNL     1       9.372  11.409  23.744  0.00  0.00    +0.150 HD
BRANCH   9  22
ATOM     22  C   UNL     1      11.042  12.101  24.860  0.00  0.00    +0.105 C 
BRANCH  22  23
ATOM     23  C   UNL     1      10.474  13.511  24.949  0.00  0.00    +0.015 C 
ATOM     24  C   UNL     1       9.871  13.987  23.633  0.00  0.00    +0.005 C 
ENDBRANCH  22  23
ENDBRANCH   9  22
ENDBRANCH  12   7
BRANCH  11  17
ATOM      4  O   UNL     1      14.776   8.373  19.265  0.00  0.00    -0.273 OA
ATOM      8  N   UNL     1      13.416   9.570  17.803  0.00  0.00    -0.302 N 
ATOM     17  C   UNL     1      13.666   8.709  18.857  0.00  0.00    +0.245 C 
ATOM     29  H   UNL     1      12.460   9.818  17.566  0.00  0.00    +0.150 HD
BRANCH   8  19
ATOM     19  C   UNL     1      14.462  10.200  17.030  0.00  0.00    +0.156 C 
ATOM     20  C   UNL     1      14.314  11.713  17.038  0.00  0.00    +0.038 C 
BRANCH  19  21
ATOM      6  O   UNL     1      13.634   8.762  15.258  0.00  0.00    -0.274 OA
ATOM     10  N   UNL     1      15.268  10.295  14.754  0.00  0.00    -0.328 N 
ATOM     21  C   UNL     1      14.401   9.654  15.613  0.00  0.00    +0.231 C 
ATOM     31  H   UNL     1      15.882  11.044  15.057  0.00  0.00    +0.145 HD
ATOM     32  H   UNL     1      15.319  10.034  13.775  0.00  0.00    +0.145 HD
ENDBRANCH  19  21
ENDBRANCH   8  19
ENDBRANCH  11  17
BRANCH  11   1
ATOM      1  O   UNL     1      11.495   8.016  18.425  0.00  0.00    -0.379 OA
ATOM     26  H   UNL     1      12.005   7.775  17.633  0.00  0.00    +0.211 HD
ENDBRANCH  11   1
BRANCH  14   2
ATOM      2  O   UNL     1       9.593   6.911  22.384  0.00  0.00    -0.387 OA
ATOM     27  H   UNL     1       9.162   6.419  21.664  0.00  0.00    +0.210 HD
ENDBRANCH  14   2
BRANCH  16   3
ATOM      3  O   UNL     1      11.758   5.205  21.673  0.00  0.00    -0.389 OA
ATOM     28  H   UNL     1      10.945   4.688  21.806  0.00  0.00    +0.210 HD
ENDBRANCH  16   3
TORSDOF 9
ENDMDL
MODEL 5
REMARK VINA RESULT:      -6.3      3.997      7.921
REMARK  Name = 11865650
REMARK  11 active torsions:
REMARK  status: ('A' for Active; 'I' for Inactive)
REMARK    1  A    between atoms: O_1  and  C_11
REMARK    2  A    between atoms: O_2  and  C_14
REMARK    3  A    between atoms: O_3  and  C_16
REMARK    4  A    between atoms: N_7  and  C_12
REMARK    5  A    between atoms: N_8  and  C_19
REMARK    6  A    between atoms: N_9  and  C_22
REMARK    7  A    between atoms: C_11  and  C_17
REMARK    8  A    between atoms: C_19  and  C_20
REMARK    9  A    between atoms: C_19  and  C_21
REMARK   10  A    between atoms: C_22  and  C_23
REMARK   11  A    between atoms: C_23  and  C_24
REMARK                            x       y       z     vdW  Elec       q    Type
REMARK                         _______ _______ _______ _____ _____    ______ ____
ROOT
ATOM     11  C   UNL     1      15.561   7.372  20.520  0.00  0.00    +0.146 C 
ATOM     12  C   UNL     1      17.983   7.092  21.237  0.00  0.00    +0.109 C 
ATOM     13  C   UNL     1      16.787   8.046  21.139  0.00  0.00    +0.069 C 
ATOM     14  C   UNL     1      18.308   6.443  19.885  0.00  0.00    +0.163 C 
ATOM     15  C   UNL     1      15.894   6.748  19.166  0.00  0.00    +0.078 C 
ATOM     16  C   UNL     1      17.079   5.786  19.252  0.00  0.00    +0.148 C 
ENDROOT
BRANCH  12   7
ATOM      5  O   UNL     1      19.919   6.117  23.142  0.00  0.00    -0.253 OA
ATOM      7  N   UNL     1      19.132   7.802  21.753  0.00  0.00    -0.294 N 
ATOM      9  N   UNL     1      21.030   8.148  22.997  0.00  0.00    -0.299 N 
ATOM     18  C   UNL     1      20.017   7.250  22.673  0.00  0.00    +0.300 C 
ATOM     25  H   UNL     1      19.260   8.773  21.485  0.00  0.00    +0.151 HD
ATOM     30  H   UNL     1      21.035   9.062  22.554  0.00  0.00    +0.150 HD
BRANCH   9  22
ATOM     22  C   UNL     1      22.086   7.833  23.932  0.00  0.00    +0.105 C 
BRANCH  22  23
ATOM     23  C   UNL     1      21.717   8.192  25.366  0.00  0.00    +0.015 C 
ATOM     24  C   UNL     1      22.116   7.113  26.364  0.00  0.00    +0.005 C 
ENDBRANCH  22  23
ENDBRANCH   9  22
ENDBRANCH  12   7
BRANCH  11  17
ATOM      4  O   UNL     1      14.360   9.363  21.070  0.00  0.00    -0.273 OA
ATOM      8  N   UNL     1      13.525   7.967  19.405  0.00  0.00    -0.302 N 
ATOM     17  C   UNL     1      14.435   8.353  20.374  0.00  0.00    +0.245 C 
ATOM     29  H   UNL     1      13.655   7.092  18.907  0.00  0.00    +0.150 HD
BRANCH   8  19
ATOM     19  C   UNL     1      12.338   8.727  19.086  0.00  0.00    +0.156 C 
ATOM     20  C   UNL     1      11.180   8.341  19.991  0.00  0.00    +0.038 C 
BRANCH  19  21
ATOM      6  O   UNL     1      11.507   7.434  17.206  0.00  0.00    -0.274 OA
ATOM     10  N   UNL     1      12.245   9.575  16.825  0.00  0.00    -0.328 N 
ATOM     21  C   UNL     1      11.994   8.481  17.625  0.00  0.00    +0.231 C 
ATOM     31  H   UNL     1      12.630  10.441  17.188  0.00  0.00    +0.145 HD
ATOM     32  H   UNL     1      12.049   9.547  15.829  0.00  0.00    +0.145 HD
ENDBRANCH  19  21
ENDBRANCH   8  19
ENDBRANCH  11  17
BRANCH  11   1
ATOM      1  O   UNL     1      15.058   6.361  21.387  0.00  0.00    -0.379 OA
ATOM     26  H   UNL     1      15.519   5.529  21.188  0.00  0.00    +0.211 HD
ENDBRANCH  11   1
BRANCH  14   2
ATOM      2  O   UNL     1      19.292   5.423  20.081  0.00  0.00    -0.387 OA
ATOM     27  H   UNL     1      20.097   5.844  20.428  0.00  0.00    +0.210 HD
ENDBRANCH  14   2
BRANCH  16   3
ATOM      3  O   UNL     1      17.424   5.359  17.934  0.00  0.00    -0.389 OA
ATOM     28  H   UNL     1      16.988   5.963  17.309  0.00  0.00    +0.210 HD
ENDBRANCH  16   3
TORSDOF 9
ENDMDL
MODEL 6
REMARK VINA RESULT:      -6.2     25.601     27.522
REMARK  Name = 11865650
REMARK  11 active torsions:
REMARK  status: ('A' for Active; 'I' for Inactive)
REMARK    1  A    between atoms: O_1  and  C_11
REMARK    2  A    between atoms: O_2  and  C_14
REMARK    3  A    between atoms: O_3  and  C_16
REMARK    4  A    between atoms: N_7  and  C_12
REMARK    5  A    between atoms: N_8  and  C_19
REMARK    6  A    between atoms: N_9  and  C_22
REMARK    7  A    between atoms: C_11  and  C_17
REMARK    8  A    between atoms: C_19  and  C_20
REMARK    9  A    between atoms: C_19  and  C_21
REMARK   10  A    between atoms: C_22  and  C_23
REMARK   11  A    between atoms: C_23  and  C_24
REMARK                            x       y       z     vdW  Elec       q    Type
REMARK                         _______ _______ _______ _____ _____    ______ ____
ROOT
ATOM     11  C   UNL     1      -5.250 -11.119  16.709  0.00  0.00    +0.146 C 
ATOM     12  C   UNL     1      -7.308 -10.052  17.750  0.00  0.00    +0.109 C 
ATOM     13  C   UNL     1      -6.192  -9.914  16.708  0.00  0.00    +0.069 C 
ATOM     14  C   UNL     1      -6.749 -10.338  19.150  0.00  0.00    +0.163 C 
ATOM     15  C   UNL     1      -4.685 -11.381  18.104  0.00  0.00    +0.078 C 
ATOM     16  C   UNL     1      -5.789 -11.530  19.153  0.00  0.00    +0.148 C 
ENDROOT
BRANCH  12   7
ATOM      5  O   UNL     1      -9.790  -9.619  16.344  0.00  0.00    -0.253 OA
ATOM      7  N   UNL     1      -8.117  -8.853  17.759  0.00  0.00    -0.294 N 
ATOM      9  N   UNL     1      -9.879  -7.478  17.234  0.00  0.00    -0.299 N 
ATOM     18  C   UNL     1      -9.306  -8.734  17.048  0.00  0.00    +0.300 C 
ATOM     25  H   UNL     1      -7.766  -8.036  18.250  0.00  0.00    +0.151 HD
ATOM     30  H   UNL     1      -9.412  -6.812  17.840  0.00  0.00    +0.150 HD
BRANCH   9  22
ATOM     22  C   UNL     1     -11.121  -7.085  16.609  0.00  0.00    +0.105 C 
BRANCH  22  23
ATOM     23  C   UNL     1     -10.917  -6.044  15.516  0.00  0.00    +0.015 C 
ATOM     24  C   UNL     1     -12.199  -5.724  14.760  0.00  0.00    +0.005 C 
ENDBRANCH  22  23
ENDBRANCH   9  22
ENDBRANCH  12   7
BRANCH  11  17
ATOM      4  O   UNL     1      -4.314 -10.385  14.637  0.00  0.00    -0.273 OA
ATOM      8  N   UNL     1      -2.928 -11.414  16.198  0.00  0.00    -0.302 N 
ATOM     17  C   UNL     1      -4.132 -10.918  15.728  0.00  0.00    +0.245 C 
ATOM     29  H   UNL     1      -2.885 -11.873  17.101  0.00  0.00    +0.150 HD
BRANCH   8  19
ATOM     19  C   UNL     1      -1.701 -11.365  15.435  0.00  0.00    +0.156 C 
ATOM     20  C   UNL     1      -1.334  -9.933  15.079  0.00  0.00    +0.038 C 
BRANCH  19  21
ATOM      6  O   UNL     1      -1.772 -11.767  13.041  0.00  0.00    -0.274 OA
ATOM     10  N   UNL     1      -2.149 -13.531  14.464  0.00  0.00    -0.328 N 
ATOM     21  C   UNL     1      -1.885 -12.207  14.183  0.00  0.00    +0.231 C 
ATOM     31  H   UNL     1      -2.220 -13.885  15.412  0.00  0.00    +0.145 HD
ATOM     32  H   UNL     1      -2.282 -14.205  13.716  0.00  0.00    +0.145 HD
ENDBRANCH  19  21
ENDBRANCH   8  19
ENDBRANCH  11  17
BRANCH  11   1
ATOM      1  O   UNL     1      -5.930 -12.284  16.257  0.00  0.00    -0.379 OA
ATOM     26  H   UNL     1      -5.517 -13.062  16.669  0.00  0.00    +0.211 HD
ENDBRANCH  11   1
BRANCH  14   2
ATOM      2  O   UNL     1      -7.831 -10.653  20.030  0.00  0.00    -0.387 OA
ATOM     27  H   UNL     1      -8.568 -10.050  19.829  0.00  0.00    +0.210 HD
ENDBRANCH  14   2
BRANCH  16   3
ATOM      3  O   UNL     1      -5.187 -11.623  20.445  0.00  0.00    -0.389 OA
ATOM     28  H   UNL     1      -4.250 -11.385  20.348  0.00  0.00    +0.210 HD
ENDBRANCH  16   3
TORSDOF 9
ENDMDL
MODEL 7
REMARK VINA RESULT:      -5.8     26.611     28.835
REMARK  Name = 11865650
REMARK  11 active torsions:
REMARK  status: ('A' for Active; 'I' for Inactive)
REMARK    1  A    between atoms: O_1  and  C_11
REMARK    2  A    between atoms: O_2  and  C_14
REMARK    3  A    between atoms: O_3  and  C_16
REMARK    4  A    between atoms: N_7  and  C_12
REMARK    5  A    between atoms: N_8  and  C_19
REMARK    6  A    between atoms: N_9  and  C_22
REMARK    7  A    between atoms: C_11  and  C_17
REMARK    8  A    between atoms: C_19  and  C_20
REMARK    9  A    between atoms: C_19  and  C_21
REMARK   10  A    between atoms: C_22  and  C_23
REMARK   11  A    between atoms: C_23  and  C_24
REMARK                            x       y       z     vdW  Elec       q    Type
REMARK                         _______ _______ _______ _____ _____    ______ ____
ROOT
ATOM     11  C   UNL     1      -6.758 -10.840  18.908  0.00  0.00    +0.146 C 
ATOM     12  C   UNL     1      -4.949 -10.240  17.227  0.00  0.00    +0.109 C 
ATOM     13  C   UNL     1      -6.452 -10.258  17.527  0.00  0.00    +0.069 C 
ATOM     14  C   UNL     1      -4.313 -11.623  17.418  0.00  0.00    +0.163 C 
ATOM     15  C   UNL     1      -6.136 -12.225  19.077  0.00  0.00    +0.078 C 
ATOM     16  C   UNL     1      -4.634 -12.219  18.791  0.00  0.00    +0.148 C 
ENDROOT
BRANCH  12   7
ATOM      5  O   UNL     1      -5.521 -11.627  14.762  0.00  0.00    -0.253 OA
ATOM      7  N   UNL     1      -4.725  -9.756  15.883  0.00  0.00    -0.294 N 
ATOM      9  N   UNL     1      -4.717  -9.794  13.587  0.00  0.00    -0.299 N 
ATOM     18  C   UNL     1      -5.034 -10.497  14.747  0.00  0.00    +0.300 C 
ATOM     25  H   UNL     1      -4.256  -8.863  15.762  0.00  0.00    +0.151 HD
ATOM     30  H   UNL     1      -4.325  -8.862  13.672  0.00  0.00    +0.150 HD
BRANCH   9  22
ATOM     22  C   UNL     1      -4.935 -10.330  12.263  0.00  0.00    +0.105 C 
BRANCH  22  23
ATOM     23  C   UNL     1      -3.635 -10.732  11.579  0.00  0.00    +0.015 C 
ATOM     24  C   UNL     1      -3.108  -9.657  10.638  0.00  0.00    +0.005 C 
ENDBRANCH  22  23
ENDBRANCH   9  22
ENDBRANCH  12   7
BRANCH  11  17
ATOM      4  O   UNL     1      -8.732 -11.648  19.986  0.00  0.00    -0.273 OA
ATOM      8  N   UNL     1      -8.941 -10.074  18.283  0.00  0.00    -0.302 N 
ATOM     17  C   UNL     1      -8.240 -10.908  19.137  0.00  0.00    +0.245 C 
ATOM     29  H   UNL     1      -8.444  -9.527  17.587  0.00  0.00    +0.150 HD
BRANCH   8  19
ATOM     19  C   UNL     1     -10.383  -9.971  18.285  0.00  0.00    +0.156 C 
ATOM     20  C   UNL     1     -11.016 -11.130  17.532  0.00  0.00    +0.038 C 
BRANCH  19  21
ATOM      6  O   UNL     1     -11.885  -8.387  17.222  0.00  0.00    -0.274 OA
ATOM     10  N   UNL     1      -9.732  -7.726  17.671  0.00  0.00    -0.328 N 
ATOM     21  C   UNL     1     -10.765  -8.639  17.658  0.00  0.00    +0.231 C 
ATOM     31  H   UNL     1      -8.817  -7.942  18.053  0.00  0.00    +0.145 HD
ATOM     32  H   UNL     1      -9.858  -6.793  17.293  0.00  0.00    +0.145 HD
ENDBRANCH  19  21
ENDBRANCH   8  19
ENDBRANCH  11  17
BRANCH  11   1
ATOM      1  O   UNL     1      -6.266  -9.981  19.931  0.00  0.00    -0.379 OA
ATOM     26  H   UNL     1      -5.397  -9.644  19.657  0.00  0.00    +0.211 HD
ENDBRANCH  11   1
BRANCH  14   2
ATOM      2  O   UNL     1      -2.891 -11.500  17.321  0.00  0.00    -0.387 OA
ATOM     27  H   UNL     1      -2.586 -12.088  16.609  0.00  0.00    +0.210 HD
ENDBRANCH  14   2
BRANCH  16   3
ATOM      3  O   UNL     1      -4.153 -13.564  18.823  0.00  0.00    -0.389 OA
ATOM     28  H   UNL     1      -4.365 -13.928  19.699  0.00  0.00    +0.210 HD
ENDBRANCH  16   3
TORSDOF 9
ENDMDL
MODEL 8
REMARK VINA RESULT:      -5.7     18.533     20.805
REMARK  Name = 11865650
REMARK  11 active torsions:
REMARK  status: ('A' for Active; 'I' for Inactive)
REMARK    1  A    between atoms: O_1  and  C_11
REMARK    2  A    between atoms: O_2  and  C_14
REMARK    3  A    between atoms: O_3  and  C_16
REMARK    4  A    between atoms: N_7  and  C_12
REMARK    5  A    between atoms: N_8  and  C_19
REMARK    6  A    between atoms: N_9  and  C_22
REMARK    7  A    between atoms: C_11  and  C_17
REMARK    8  A    between atoms: C_19  and  C_20
REMARK    9  A    between atoms: C_19  and  C_21
REMARK   10  A    between atoms: C_22  and  C_23
REMARK   11  A    between atoms: C_23  and  C_24
REMARK                            x       y       z     vdW  Elec       q    Type
REMARK                         _______ _______ _______ _____ _____    ______ ____
ROOT
ATOM     11  C   UNL     1      11.942   4.820   0.702  0.00  0.00    +0.146 C 
ATOM     12  C   UNL     1      11.038   5.456   2.990  0.00  0.00    +0.109 C 
ATOM     13  C   UNL     1      11.445   4.311   2.057  0.00  0.00    +0.069 C 
ATOM     14  C   UNL     1      10.026   6.400   2.328  0.00  0.00    +0.163 C 
ATOM     15  C   UNL     1      10.917   5.742   0.045  0.00  0.00    +0.078 C 
ATOM     16  C   UNL     1      10.509   6.895   0.963  0.00  0.00    +0.148 C 
ENDROOT
BRANCH  12   7
ATOM      5  O   UNL     1      11.348   6.542   5.646  0.00  0.00    -0.253 OA
ATOM      7  N   UNL     1      10.504   4.916   4.221  0.00  0.00    -0.294 N 
ATOM      9  N   UNL     1      10.081   4.783   6.473  0.00  0.00    -0.299 N 
ATOM     18  C   UNL     1      10.704   5.510   5.462  0.00  0.00    +0.300 C 
ATOM     25  H   UNL     1      10.020   4.023   4.187  0.00  0.00    +0.151 HD
ATOM     30  H   UNL     1       9.564   3.946   6.227  0.00  0.00    +0.150 HD
BRANCH   9  22
ATOM     22  C   UNL     1      10.129   5.177   7.863  0.00  0.00    +0.105 C 
BRANCH  22  23
ATOM     23  C   UNL     1       9.569   4.105   8.789  0.00  0.00    +0.015 C 
ATOM     24  C   UNL     1       9.151   4.658  10.145  0.00  0.00    +0.005 C 
ENDBRANCH  22  23
ENDBRANCH   9  22
ENDBRANCH  12   7
BRANCH  11  17
ATOM      4  O   UNL     1      13.215   2.923   0.000  0.00  0.00    -0.273 OA
ATOM      8  N   UNL     1      11.390   3.592  -1.280  0.00  0.00    -0.302 N 
ATOM     17  C   UNL     1      12.264   3.671  -0.209  0.00  0.00    +0.245 C 
ATOM     29  H   UNL     1      10.654   4.283  -1.387  0.00  0.00    +0.150 HD
BRANCH   8  19
ATOM     19  C   UNL     1      11.496   2.589  -2.315  0.00  0.00    +0.156 C 
ATOM     20  C   UNL     1      12.494   3.006  -3.383  0.00  0.00    +0.038 C 
BRANCH  19  21
ATOM      6  O   UNL     1       9.597   1.269  -3.057  0.00  0.00    -0.274 OA
ATOM     10  N   UNL     1       9.483   3.556  -3.237  0.00  0.00    -0.328 N 
ATOM     21  C   UNL     1      10.115   2.374  -2.913  0.00  0.00    +0.231 C 
ATOM     31  H   UNL     1       9.915   4.463  -3.095  0.00  0.00    +0.145 HD
ATOM     32  H   UNL     1       8.549   3.555  -3.635  0.00  0.00    +0.145 HD
ENDBRANCH  19  21
ENDBRANCH   8  19
ENDBRANCH  11  17
BRANCH  11   1
ATOM      1  O   UNL     1      13.170   5.523   0.854  0.00  0.00    -0.379 OA
ATOM     26  H   UNL     1      12.969   6.452   1.059  0.00  0.00    +0.211 HD
ENDBRANCH  11   1
BRANCH  14   2
ATOM      2  O   UNL     1       9.841   7.546   3.163  0.00  0.00    -0.387 OA
ATOM     27  H   UNL     1       9.259   8.169   2.694  0.00  0.00    +0.210 HD
ENDBRANCH  14   2
BRANCH  16   3
ATOM      3  O   UNL     1       9.448   7.623   0.345  0.00  0.00    -0.389 OA
ATOM     28  H   UNL     1       9.762   8.532   0.200  0.00  0.00    +0.210 HD
ENDBRANCH  16   3
TORSDOF 9
ENDMDL
MODEL 9
REMARK VINA RESULT:      -5.7      3.809      6.456
REMARK  Name = 11865650
REMARK  11 active torsions:
REMARK  status: ('A' for Active; 'I' for Inactive)
REMARK    1  A    between atoms: O_1  and  C_11
REMARK    2  A    between atoms: O_2  and  C_14
REMARK    3  A    between atoms: O_3  and  C_16
REMARK    4  A    between atoms: N_7  and  C_12
REMARK    5  A    between atoms: N_8  and  C_19
REMARK    6  A    between atoms: N_9  and  C_22
REMARK    7  A    between atoms: C_11  and  C_17
REMARK    8  A    between atoms: C_19  and  C_20
REMARK    9  A    between atoms: C_19  and  C_21
REMARK   10  A    between atoms: C_22  and  C_23
REMARK   11  A    between atoms: C_23  and  C_24
REMARK                            x       y       z     vdW  Elec       q    Type
REMARK                         _______ _______ _______ _____ _____    ______ ____
ROOT
ATOM     11  C   UNL     1      19.642   6.442  20.901  0.00  0.00    +0.146 C 
ATOM     12  C   UNL     1      17.448   7.709  21.098  0.00  0.00    +0.109 C 
ATOM     13  C   UNL     1      18.629   7.085  21.850  0.00  0.00    +0.069 C 
ATOM     14  C   UNL     1      16.783   6.706  20.147  0.00  0.00    +0.163 C 
ATOM     15  C   UNL     1      18.970   5.432  19.973  0.00  0.00    +0.078 C 
ATOM     16  C   UNL     1      17.796   6.045  19.209  0.00  0.00    +0.148 C 
ENDROOT
BRANCH  12   7
ATOM      5  O   UNL     1      15.887  10.123  20.844  0.00  0.00    -0.253 OA
ATOM      7  N   UNL     1      16.487   8.230  22.045  0.00  0.00    -0.294 N 
ATOM      9  N   UNL     1      14.922   9.672  22.905  0.00  0.00    -0.299 N 
ATOM     18  C   UNL     1      15.776   9.407  21.838  0.00  0.00    +0.300 C 
ATOM     25  H   UNL     1      16.377   7.751  22.935  0.00  0.00    +0.151 HD
ATOM     30  H   UNL     1      14.891   9.020  23.682  0.00  0.00    +0.150 HD
BRANCH   9  22
ATOM     22  C   UNL     1      14.065  10.834  22.951  0.00  0.00    +0.105 C 
BRANCH  22  23
ATOM     23  C   UNL     1      12.615  10.500  22.625  0.00  0.00    +0.015 C 
ATOM     24  C   UNL     1      12.291  10.663  21.146  0.00  0.00    +0.005 C 
ENDBRANCH  22  23
ENDBRANCH   9  22
ENDBRANCH  12   7
BRANCH  11  17
ATOM      4  O   UNL     1      20.731   5.718  22.901  0.00  0.00    -0.273 OA
ATOM      8  N   UNL     1      21.744   5.293  20.848  0.00  0.00    -0.302 N 
ATOM     17  C   UNL     1      20.745   5.781  21.674  0.00  0.00    +0.245 C 
ATOM     29  H   UNL     1      21.683   5.428  19.844  0.00  0.00    +0.150 HD
BRANCH   8  19
ATOM     19  C   UNL     1      22.929   4.633  21.346  0.00  0.00    +0.156 C 
ATOM     20  C   UNL     1      24.088   4.779  20.372  0.00  0.00    +0.038 C 
BRANCH  19  21
ATOM      6  O   UNL     1      22.202   2.720  22.654  0.00  0.00    -0.274 OA
ATOM     10  N   UNL     1      22.737   2.400  20.443  0.00  0.00    -0.328 N 
ATOM     21  C   UNL     1      22.595   3.168  21.579  0.00  0.00    +0.231 C 
ATOM     31  H   UNL     1      23.044   2.787  19.557  0.00  0.00    +0.145 HD
ATOM     32  H   UNL     1      22.534   1.405  20.459  0.00  0.00    +0.145 HD
ENDBRANCH  19  21
ENDBRANCH   8  19
ENDBRANCH  11  17
BRANCH  11   1
ATOM      1  O   UNL     1      20.288   7.436  20.114  0.00  0.00    -0.379 OA
ATOM     26  H   UNL     1      19.825   8.281  20.245  0.00  0.00    +0.211 HD
ENDBRANCH  11   1
BRANCH  14   2
ATOM      2  O   UNL     1      15.828   7.395  19.335  0.00  0.00    -0.387 OA
ATOM     27  H   UNL     1      16.290   8.117  18.873  0.00  0.00    +0.210 HD
ENDBRANCH  14   2
BRANCH  16   3
ATOM      3  O   UNL     1      17.130   5.012  18.481  0.00  0.00    -0.389 OA
ATOM     28  H   UNL     1      17.539   4.167  18.734  0.00  0.00    +0.210 HD
ENDBRANCH  16   3
TORSDOF 9
ENDMDL
MODEL 10
REMARK VINA RESULT:      -5.7     25.290     27.872
REMARK  Name = 11865650
REMARK  11 active torsions:
REMARK  status: ('A' for Active; 'I' for Inactive)
REMARK    1  A    between atoms: O_1  and  C_11
REMARK    2  A    between atoms: O_2  and  C_14
REMARK    3  A    between atoms: O_3  and  C_16
REMARK    4  A    between atoms: N_7  and  C_12
REMARK    5  A    between atoms: N_8  and  C_19
REMARK    6  A    between atoms: N_9  and  C_22
REMARK    7  A    between atoms: C_11  and  C_17
REMARK    8  A    between atoms: C_19  and  C_20
REMARK    9  A    between atoms: C_19  and  C_21
REMARK   10  A    between atoms: C_22  and  C_23
REMARK   11  A    between atoms: C_23  and  C_24
REMARK                            x       y       z     vdW  Elec       q    Type
REMARK                         _______ _______ _______ _____ _____    ______ ____
ROOT
ATOM     11  C   UNL     1      -5.218 -11.577  16.539  0.00  0.00    +0.146 C 
ATOM     12  C   UNL     1      -7.006 -11.169  18.299  0.00  0.00    +0.109 C 
ATOM     13  C   UNL     1      -6.410 -10.715  16.962  0.00  0.00    +0.069 C 
ATOM     14  C   UNL     1      -5.942 -11.250  19.400  0.00  0.00    +0.163 C 
ATOM     15  C   UNL     1      -4.157 -11.633  17.637  0.00  0.00    +0.078 C 
ATOM     16  C   UNL     1      -4.737 -12.094  18.975  0.00  0.00    +0.148 C 
ENDROOT
BRANCH  12   7
ATOM      5  O   UNL     1      -9.843 -11.676  18.146  0.00  0.00    -0.253 OA
ATOM      7  N   UNL     1      -8.074 -10.274  18.686  0.00  0.00    -0.294 N 
ATOM      9  N   UNL     1     -10.231  -9.562  19.019  0.00  0.00    -0.299 N 
ATOM     18  C   UNL     1      -9.420 -10.604  18.577  0.00  0.00    +0.300 C 
ATOM     25  H   UNL     1      -7.832  -9.333  18.984  0.00  0.00    +0.151 HD
ATOM     30  H   UNL     1      -9.793  -8.715  19.366  0.00  0.00    +0.150 HD
BRANCH   9  22
ATOM     22  C   UNL     1     -11.674  -9.638  19.016  0.00  0.00    +0.105 C 
BRANCH  22  23
ATOM     23  C   UNL     1     -12.240  -9.976  20.389  0.00  0.00    +0.015 C 
ATOM     24  C   UNL     1     -13.713  -9.611  20.525  0.00  0.00    +0.005 C 
ENDBRANCH  22  23
ENDBRANCH   9  22
ENDBRANCH  12   7
BRANCH  11  17
ATOM      4  O   UNL     1      -5.311 -10.732  14.306  0.00  0.00    -0.273 OA
ATOM      8  N   UNL     1      -3.234 -11.029  15.313  0.00  0.00    -0.302 N 
ATOM     17  C   UNL     1      -4.617 -11.060  15.265  0.00  0.00    +0.245 C 
ATOM     29  H   UNL     1      -2.747 -11.359  16.141  0.00  0.00    +0.150 HD
BRANCH   8  19
ATOM     19  C   UNL     1      -2.413 -10.594  14.206  0.00  0.00    +0.156 C 
ATOM     20  C   UNL     1      -2.003 -11.769  13.332  0.00  0.00    +0.038 C 
BRANCH  19  21
ATOM      6  O   UNL     1      -0.636 -10.206  15.815  0.00  0.00    -0.274 OA
ATOM     10  N   UNL     1      -0.750  -8.858  13.958  0.00  0.00    -0.328 N 
ATOM     21  C   UNL     1      -1.194  -9.881  14.769  0.00  0.00    +0.231 C 
ATOM     31  H   UNL     1      -1.209  -8.614  13.087  0.00  0.00    +0.145 HD
ATOM     32  H   UNL     1       0.064  -8.309  14.212  0.00  0.00    +0.145 HD
ENDBRANCH  19  21
ENDBRANCH   8  19
ENDBRANCH  11  17
BRANCH  11   1
ATOM      1  O   UNL     1      -5.643 -12.901  16.236  0.00  0.00    -0.379 OA
ATOM     26  H   UNL     1      -6.570 -12.867  15.946  0.00  0.00    +0.211 HD
ENDBRANCH  11   1
BRANCH  14   2
ATOM      2  O   UNL     1      -6.513 -11.866  20.558  0.00  0.00    -0.387 OA
ATOM     27  H   UNL     1      -7.351 -11.413  20.757  0.00  0.00    +0.210 HD
ENDBRANCH  14   2
BRANCH  16   3
ATOM      3  O   UNL     1      -3.728 -11.980  19.979  0.00  0.00    -0.389 OA
ATOM     28  H   UNL     1      -2.874 -12.177  19.558  0.00  0.00    +0.210 HD
ENDBRANCH  16   3
TORSDOF 9
ENDMDL
