MODEL 1
REMARK VINA RESULT:      -6.6      0.000      0.000
REMARK  Name = 51137886
REMARK  7 active torsions:
REMARK  status: ('A' for Active; 'I' for Inactive)
REMARK    1  A    between atoms: N_1  and  C_10
REMARK    2  A    between atoms: N_2  and  C_14
REMARK    3  A    between atoms: N_4  and  C_23
REMARK    4  A    between atoms: N_4  and  C_24
REMARK    5  A    between atoms: N_4  and  C_25
REMARK    6  A    between atoms: C_5  and  C_9
REMARK    7  A    between atoms: C_10  and  C_12
REMARK                            x       y       z     vdW  Elec       q    Type
REMARK                         _______ _______ _______ _____ _____    ______ ____
ROOT
ATOM      1  N   UNL     1      13.285   8.870  20.695  0.00  0.00    -0.297 NA
ATOM      5  C   UNL     1      12.030  10.109  22.241  0.00  0.00    +0.070 C 
ATOM      6  C   UNL     1      11.115   9.099  21.527  0.00  0.00    +0.028 C 
ATOM      7  C   UNL     1      13.294  10.168  21.374  0.00  0.00    +0.096 C 
ATOM      8  C   UNL     1      11.893   8.667  20.291  0.00  0.00    +0.085 C 
ENDROOT
BRANCH   5   9
ATOM      2  N   UNL     1      11.099  11.920  23.728  0.00  0.00    -0.330 N 
ATOM      3  N   UNL     1      11.115  12.350  21.548  0.00  0.00    -0.232 NA
ATOM      9  C   UNL     1      11.413  11.469  22.476  0.00  0.00    +0.115 A 
ATOM     11  C   UNL     1      10.562  13.175  23.598  0.00  0.00    +0.069 A 
ATOM     13  C   UNL     1      10.583  13.421  22.229  0.00  0.00    +0.089 A 
ATOM     14  C   UNL     1      11.296  11.204  24.968  0.00  0.00    +0.150 C 
ATOM     15  C   UNL     1      10.075  14.089  24.534  0.00  0.00    +0.028 A 
ATOM     18  C   UNL     1      10.093  14.645  21.745  0.00  0.00    +0.030 A 
ATOM     19  C   UNL     1       9.592  15.302  24.035  0.00  0.00    +0.002 A 
ATOM     22  C   UNL     1       9.598  15.578  22.666  0.00  0.00    +0.002 A 
ENDBRANCH   5   9
BRANCH   1  10
ATOM     10  C   UNL     1      14.201   8.828  19.566  0.00  0.00    +0.119 C 
BRANCH  10  12
ATOM     12  C   UNL     1      15.489   8.129  19.915  0.00  0.00    -0.033 A 
ATOM     16  C   UNL     1      15.782   6.886  19.354  0.00  0.00    +0.007 A 
ATOM     17  C   UNL     1      16.388   8.725  20.800  0.00  0.00    +0.007 A 
ATOM     20  C   UNL     1      16.975   6.238  19.678  0.00  0.00    +0.023 A 
ATOM     21  C   UNL     1      17.580   8.078  21.124  0.00  0.00    +0.023 A 
ATOM     23  C   UNL     1      17.874   6.835  20.563  0.00  0.00    +0.029 A 
BRANCH  23   4
ATOM      4  N   UNL     1      19.080   6.181  20.890  0.00  0.00    -0.336 N 
ATOM     24  C   UNL     1      19.850   6.595  22.045  0.00  0.00    +0.129 C 
ATOM     25  C   UNL     1      19.560   5.081  20.079  0.00  0.00    +0.129 C 
ENDBRANCH  23   4
ENDBRANCH  10  12
ENDBRANCH   1  10
TORSDOF 4
ENDMDL
MODEL 2
REMARK VINA RESULT:      -6.5     28.249     30.707
REMARK  Name = 51137886
REMARK  7 active torsions:
REMARK  status: ('A' for Active; 'I' for Inactive)
REMARK    1  A    between atoms: N_1  and  C_10
REMARK    2  A    between atoms: N_2  and  C_14
REMARK    3  A    between atoms: N_4  and  C_23
REMARK    4  A    between atoms: N_4  and  C_24
REMARK    5  A    between atoms: N_4  and  C_25
REMARK    6  A    between atoms: C_5  and  C_9
REMARK    7  A    between atoms: C_10  and  C_12
REMARK                            x       y       z     vdW  Elec       q    Type
REMARK                         _______ _______ _______ _____ _____    ______ ____
ROOT
ATOM      1  N   UNL     1       2.999   5.031  -5.986  0.00  0.00    -0.297 NA
ATOM      5  C   UNL     1       2.240   2.814  -6.092  0.00  0.00    +0.070 C 
ATOM      6  C   UNL     1       3.207   3.083  -7.258  0.00  0.00    +0.028 C 
ATOM      7  C   UNL     1       1.860   4.207  -5.574  0.00  0.00    +0.096 C 
ATOM      8  C   UNL     1       3.299   4.600  -7.353  0.00  0.00    +0.085 C 
ENDROOT
BRANCH   5   9
ATOM      2  N   UNL     1       0.801   0.758  -5.860  0.00  0.00    -0.330 N 
ATOM      3  N   UNL     1       0.110   2.281  -7.324  0.00  0.00    -0.232 NA
ATOM      9  C   UNL     1       1.038   1.970  -6.447  0.00  0.00    +0.115 A 
ATOM     11  C   UNL     1      -0.357   0.253  -6.395  0.00  0.00    +0.069 A 
ATOM     13  C   UNL     1      -0.768   1.222  -7.306  0.00  0.00    +0.089 A 
ATOM     14  C   UNL     1       1.620   0.120  -4.856  0.00  0.00    +0.150 C 
ATOM     15  C   UNL     1      -1.058  -0.932  -6.168  0.00  0.00    +0.028 A 
ATOM     18  C   UNL     1      -1.947   1.014  -8.042  0.00  0.00    +0.030 A 
ATOM     19  C   UNL     1      -2.229  -1.123  -6.908  0.00  0.00    +0.002 A 
ATOM     22  C   UNL     1      -2.667  -0.169  -7.830  0.00  0.00    +0.002 A 
ENDBRANCH   5   9
BRANCH   1  10
ATOM     10  C   UNL     1       2.713   6.455  -5.905  0.00  0.00    +0.119 C 
BRANCH  10  12
ATOM     12  C   UNL     1       3.399   7.097  -4.728  0.00  0.00    -0.033 A 
ATOM     16  C   UNL     1       3.273   8.470  -4.511  0.00  0.00    +0.007 A 
ATOM     17  C   UNL     1       4.161   6.320  -3.855  0.00  0.00    +0.007 A 
ATOM     20  C   UNL     1       3.908   9.065  -3.420  0.00  0.00    +0.023 A 
ATOM     21  C   UNL     1       4.796   6.915  -2.765  0.00  0.00    +0.023 A 
ATOM     23  C   UNL     1       4.670   8.287  -2.548  0.00  0.00    +0.029 A 
BRANCH  23   4
ATOM      4  N   UNL     1       5.312   8.889  -1.445  0.00  0.00    -0.336 N 
ATOM     24  C   UNL     1       4.607   9.065  -0.192  0.00  0.00    +0.129 C 
ATOM     25  C   UNL     1       6.688   9.330  -1.550  0.00  0.00    +0.129 C 
ENDBRANCH  23   4
ENDBRANCH  10  12
ENDBRANCH   1  10
TORSDOF 4
ENDMDL
MODEL 3
REMARK VINA RESULT:      -6.4      1.367      2.048
REMARK  Name = 51137886
REMARK  7 active torsions:
REMARK  status: ('A' for Active; 'I' for Inactive)
REMARK    1  A    between atoms: N_1  and  C_10
REMARK    2  A    between atoms: N_2  and  C_14
REMARK    3  A    between atoms: N_4  and  C_23
REMARK    4  A    between atoms: N_4  and  C_24
REMARK    5  A    between atoms: N_4  and  C_25
REMARK    6  A    between atoms: C_5  and  C_9
REMARK    7  A    between atoms: C_10  and  C_12
REMARK                            x       y       z     vdW  Elec       q    Type
REMARK                         _______ _______ _______ _____ _____    ______ ____
ROOT
ATOM      1  N   UNL     1      13.911   7.370  20.262  0.00  0.00    -0.297 NA
ATOM      5  C   UNL     1      12.835   9.085  21.446  0.00  0.00    +0.070 C 
ATOM      6  C   UNL     1      11.799   8.038  21.003  0.00  0.00    +0.028 C 
ATOM      7  C   UNL     1      14.077   8.786  20.597  0.00  0.00    +0.096 C 
ATOM      8  C   UNL     1      12.496   7.230  19.916  0.00  0.00    +0.085 C 
ENDROOT
BRANCH   5   9
ATOM      2  N   UNL     1      11.521  11.085  22.240  0.00  0.00    -0.330 N 
ATOM      3  N   UNL     1      12.724  11.369  20.393  0.00  0.00    -0.232 NA
ATOM      9  C   UNL     1      12.376  10.520  21.334  0.00  0.00    +0.115 A 
ATOM     11  C   UNL     1      11.304  12.384  21.857  0.00  0.00    +0.069 A 
ATOM     13  C   UNL     1      12.066  12.537  20.703  0.00  0.00    +0.089 A 
ATOM     14  C   UNL     1      10.947  10.433  23.394  0.00  0.00    +0.150 C 
ATOM     15  C   UNL     1      10.530  13.407  22.406  0.00  0.00    +0.028 A 
ATOM     18  C   UNL     1      12.068  13.777  20.042  0.00  0.00    +0.030 A 
ATOM     19  C   UNL     1      10.545  14.635  21.737  0.00  0.00    +0.002 A 
ATOM     22  C   UNL     1      11.298  14.819  20.575  0.00  0.00    +0.002 A 
ENDBRANCH   5   9
BRANCH   1  10
ATOM     10  C   UNL     1      14.790   6.948  19.182  0.00  0.00    +0.119 C 
BRANCH  10  12
ATOM     12  C   UNL     1      16.183   6.658  19.675  0.00  0.00    -0.033 A 
ATOM     16  C   UNL     1      16.633   7.224  20.868  0.00  0.00    +0.007 A 
ATOM     17  C   UNL     1      17.023   5.823  18.939  0.00  0.00    +0.007 A 
ATOM     20  C   UNL     1      17.923   6.955  21.325  0.00  0.00    +0.023 A 
ATOM     21  C   UNL     1      18.313   5.554  19.395  0.00  0.00    +0.023 A 
ATOM     23  C   UNL     1      18.763   6.119  20.588  0.00  0.00    +0.029 A 
BRANCH  23   4
ATOM      4  N   UNL     1      20.068   5.847  21.050  0.00  0.00    -0.336 N 
ATOM     24  C   UNL     1      20.654   6.646  22.107  0.00  0.00    +0.129 C 
ATOM     25  C   UNL     1      20.836   4.759  20.479  0.00  0.00    +0.129 C 
ENDBRANCH  23   4
ENDBRANCH  10  12
ENDBRANCH   1  10
TORSDOF 4
ENDMDL
MODEL 4
REMARK VINA RESULT:      -6.3      3.898      6.613
REMARK  Name = 51137886
REMARK  7 active torsions:
REMARK  status: ('A' for Active; 'I' for Inactive)
REMARK    1  A    between atoms: N_1  and  C_10
REMARK    2  A    between atoms: N_2  and  C_14
REMARK    3  A    between atoms: N_4  and  C_23
REMARK    4  A    between atoms: N_4  and  C_24
REMARK    5  A    between atoms: N_4  and  C_25
REMARK    6  A    between atoms: C_5  and  C_9
REMARK    7  A    between atoms: C_10  and  C_12
REMARK                            x       y       z     vdW  Elec       q    Type
REMARK                         _______ _______ _______ _____ _____    ______ ____
ROOT
ATOM      1  N   UNL     1      18.738   6.268  20.153  0.00  0.00    -0.297 NA
ATOM      5  C   UNL     1      16.862   7.676  20.101  0.00  0.00    +0.070 C 
ATOM      6  C   UNL     1      17.695   7.974  21.360  0.00  0.00    +0.028 C 
ATOM      7  C   UNL     1      17.380   6.319  19.605  0.00  0.00    +0.096 C 
ATOM      8  C   UNL     1      18.609   6.767  21.523  0.00  0.00    +0.085 C 
ENDROOT
BRANCH   5   9
ATOM      2  N   UNL     1      14.589   8.748  19.916  0.00  0.00    -0.330 N 
ATOM      3  N   UNL     1      14.655   6.742  20.872  0.00  0.00    -0.232 NA
ATOM      9  C   UNL     1      15.366   7.694  20.310  0.00  0.00    +0.115 A 
ATOM     11  C   UNL     1      13.289   8.456  20.246  0.00  0.00    +0.069 A 
ATOM     13  C   UNL     1      13.357   7.200  20.840  0.00  0.00    +0.089 A 
ATOM     14  C   UNL     1      15.049   9.955  19.269  0.00  0.00    +0.150 C 
ATOM     15  C   UNL     1      12.098   9.162  20.080  0.00  0.00    +0.028 A 
ATOM     18  C   UNL     1      12.176   6.596  21.303  0.00  0.00    +0.030 A 
ATOM     19  C   UNL     1      10.931   8.547  20.545  0.00  0.00    +0.002 A 
ATOM     22  C   UNL     1      10.967   7.287  21.147  0.00  0.00    +0.002 A 
ENDBRANCH   5   9
BRANCH   1  10
ATOM     10  C   UNL     1      19.307   4.930  20.102  0.00  0.00    +0.119 C 
BRANCH  10  12
ATOM     12  C   UNL     1      20.759   4.924  20.503  0.00  0.00    -0.033 A 
ATOM     16  C   UNL     1      21.531   6.074  20.343  0.00  0.00    +0.007 A 
ATOM     17  C   UNL     1      21.331   3.768  21.034  0.00  0.00    +0.007 A 
ATOM     20  C   UNL     1      22.876   6.069  20.714  0.00  0.00    +0.023 A 
ATOM     21  C   UNL     1      22.675   3.762  21.405  0.00  0.00    +0.023 A 
ATOM     23  C   UNL     1      23.448   4.912  21.245  0.00  0.00    +0.029 A 
BRANCH  23   4
ATOM      4  N   UNL     1      24.808   4.907  21.621  0.00  0.00    -0.336 N 
ATOM     24  C   UNL     1      25.258   4.097  22.735  0.00  0.00    +0.129 C 
ATOM     25  C   UNL     1      25.772   5.705  20.893  0.00  0.00    +0.129 C 
ENDBRANCH  23   4
ENDBRANCH  10  12
ENDBRANCH   1  10
TORSDOF 4
ENDMDL
MODEL 5
REMARK VINA RESULT:      -6.3      3.816     11.983
REMARK  Name = 51137886
REMARK  7 active torsions:
REMARK  status: ('A' for Active; 'I' for Inactive)
REMARK    1  A    between atoms: N_1  and  C_10
REMARK    2  A    between atoms: N_2  and  C_14
REMARK    3  A    between atoms: N_4  and  C_23
REMARK    4  A    between atoms: N_4  and  C_24
REMARK    5  A    between atoms: N_4  and  C_25
REMARK    6  A    between atoms: C_5  and  C_9
REMARK    7  A    between atoms: C_10  and  C_12
REMARK                            x       y       z     vdW  Elec       q    Type
REMARK                         _______ _______ _______ _____ _____    ______ ____
ROOT
ATOM      1  N   UNL     1      19.067   5.860  20.654  0.00  0.00    -0.297 NA
ATOM      5  C   UNL     1      21.046   5.039  21.605  0.00  0.00    +0.070 C 
ATOM      6  C   UNL     1      20.925   6.545  21.890  0.00  0.00    +0.028 C 
ATOM      7  C   UNL     1      20.033   4.772  20.485  0.00  0.00    +0.096 C 
ATOM      8  C   UNL     1      19.880   7.050  20.904  0.00  0.00    +0.085 C 
ENDROOT
BRANCH   5   9
ATOM      2  N   UNL     1      23.118   3.670  22.042  0.00  0.00    -0.330 N 
ATOM      3  N   UNL     1      23.146   4.943  20.220  0.00  0.00    -0.232 NA
ATOM      9  C   UNL     1      22.441   4.567  21.263  0.00  0.00    +0.115 A 
ATOM     11  C   UNL     1      24.343   3.453  21.462  0.00  0.00    +0.069 A 
ATOM     13  C   UNL     1      24.335   4.259  20.327  0.00  0.00    +0.089 A 
ATOM     14  C   UNL     1      22.635   3.059  23.258  0.00  0.00    +0.150 C 
ATOM     15  C   UNL     1      25.422   2.647  21.823  0.00  0.00    +0.028 A 
ATOM     18  C   UNL     1      25.464   4.273  19.490  0.00  0.00    +0.030 A 
ATOM     19  C   UNL     1      26.536   2.672  20.979  0.00  0.00    +0.002 A 
ATOM     22  C   UNL     1      26.560   3.470  19.833  0.00  0.00    +0.002 A 
ENDBRANCH   5   9
BRANCH   1  10
ATOM     10  C   UNL     1      18.198   6.016  19.497  0.00  0.00    +0.119 C 
BRANCH  10  12
ATOM     12  C   UNL     1      16.808   6.438  19.893  0.00  0.00    -0.033 A 
ATOM     16  C   UNL     1      15.846   6.678  18.912  0.00  0.00    +0.007 A 
ATOM     17  C   UNL     1      16.483   6.591  21.241  0.00  0.00    +0.007 A 
ATOM     20  C   UNL     1      14.558   7.069  19.278  0.00  0.00    +0.023 A 
ATOM     21  C   UNL     1      15.196   6.982  21.607  0.00  0.00    +0.023 A 
ATOM     23  C   UNL     1      14.233   7.221  20.627  0.00  0.00    +0.029 A 
BRANCH  23   4
ATOM      4  N   UNL     1      12.930   7.616  20.998  0.00  0.00    -0.336 N 
ATOM     24  C   UNL     1      12.549   9.014  20.962  0.00  0.00    +0.129 C 
ATOM     25  C   UNL     1      11.955   6.628  21.412  0.00  0.00    +0.129 C 
ENDBRANCH  23   4
ENDBRANCH  10  12
ENDBRANCH   1  10
TORSDOF 4
ENDMDL
MODEL 6
REMARK VINA RESULT:      -6.3      4.560      5.959
REMARK  Name = 51137886
REMARK  7 active torsions:
REMARK  status: ('A' for Active; 'I' for Inactive)
REMARK    1  A    between atoms: N_1  and  C_10
REMARK    2  A    between atoms: N_2  and  C_14
REMARK    3  A    between atoms: N_4  and  C_23
REMARK    4  A    between atoms: N_4  and  C_24
REMARK    5  A    between atoms: N_4  and  C_25
REMARK    6  A    between atoms: C_5  and  C_9
REMARK    7  A    between atoms: C_10  and  C_12
REMARK                            x       y       z     vdW  Elec       q    Type
REMARK                         _______ _______ _______ _____ _____    ______ ____
ROOT
ATOM      1  N   UNL     1      17.246   7.927  21.344  0.00  0.00    -0.297 NA
ATOM      5  C   UNL     1      15.035   7.947  20.561  0.00  0.00    +0.070 C 
ATOM      6  C   UNL     1      15.547   6.498  20.619  0.00  0.00    +0.028 C 
ATOM      7  C   UNL     1      16.300   8.810  20.657  0.00  0.00    +0.096 C 
ATOM      8  C   UNL     1      17.062   6.618  20.716  0.00  0.00    +0.085 C 
ENDROOT
BRANCH   5   9
ATOM      2  N   UNL     1      12.838   8.075  19.332  0.00  0.00    -0.330 N 
ATOM      3  N   UNL     1      14.630   8.771  18.216  0.00  0.00    -0.232 NA
ATOM      9  C   UNL     1      14.191   8.275  19.351  0.00  0.00    +0.115 A 
ATOM     11  C   UNL     1      12.375   8.468  18.101  0.00  0.00    +0.069 A 
ATOM     13  C   UNL     1      13.512   8.898  17.425  0.00  0.00    +0.089 A 
ATOM     14  C   UNL     1      12.037   7.544  20.411  0.00  0.00    +0.150 C 
ATOM     15  C   UNL     1      11.097   8.483  17.541  0.00  0.00    +0.028 A 
ATOM     18  C   UNL     1      13.386   9.376  16.109  0.00  0.00    +0.030 A 
ATOM     19  C   UNL     1      10.990   8.962  16.232  0.00  0.00    +0.002 A 
ATOM     22  C   UNL     1      12.113   9.400  15.526  0.00  0.00    +0.002 A 
ENDBRANCH   5   9
BRANCH   1  10
ATOM     10  C   UNL     1      18.618   8.399  21.247  0.00  0.00    +0.119 C 
BRANCH  10  12
ATOM     12  C   UNL     1      19.608   7.316  21.585  0.00  0.00    -0.033 A 
ATOM     16  C   UNL     1      20.202   6.571  20.566  0.00  0.00    +0.007 A 
ATOM     17  C   UNL     1      19.933   7.057  22.917  0.00  0.00    +0.007 A 
ATOM     20  C   UNL     1      21.119   5.567  20.878  0.00  0.00    +0.023 A 
ATOM     21  C   UNL     1      20.849   6.054  23.229  0.00  0.00    +0.023 A 
ATOM     23  C   UNL     1      21.443   5.309  22.211  0.00  0.00    +0.029 A 
BRANCH  23   4
ATOM      4  N   UNL     1      22.371   4.295  22.527  0.00  0.00    -0.336 N 
ATOM     24  C   UNL     1      23.081   4.317  23.789  0.00  0.00    +0.129 C 
ATOM     25  C   UNL     1      22.619   3.213  21.595  0.00  0.00    +0.129 C 
ENDBRANCH  23   4
ENDBRANCH  10  12
ENDBRANCH   1  10
TORSDOF 4
ENDMDL
MODEL 7
REMARK VINA RESULT:      -6.2     26.975     29.284
REMARK  Name = 51137886
REMARK  7 active torsions:
REMARK  status: ('A' for Active; 'I' for Inactive)
REMARK    1  A    between atoms: N_1  and  C_10
REMARK    2  A    between atoms: N_2  and  C_14
REMARK    3  A    between atoms: N_4  and  C_23
REMARK    4  A    between atoms: N_4  and  C_24
REMARK    5  A    between atoms: N_4  and  C_25
REMARK    6  A    between atoms: C_5  and  C_9
REMARK    7  A    between atoms: C_10  and  C_12
REMARK                            x       y       z     vdW  Elec       q    Type
REMARK                         _______ _______ _______ _____ _____    ______ ____
ROOT
ATOM      1  N   UNL     1      -2.014 -10.896  13.812  0.00  0.00    -0.297 NA
ATOM      5  C   UNL     1      -3.235 -10.241  15.704  0.00  0.00    +0.070 C 
ATOM      6  C   UNL     1      -1.815 -10.653  16.126  0.00  0.00    +0.028 C 
ATOM      7  C   UNL     1      -3.397 -10.802  14.285  0.00  0.00    +0.096 C 
ATOM      8  C   UNL     1      -1.266 -11.443  14.945  0.00  0.00    +0.085 C 
ENDROOT
BRANCH   5   9
ATOM      2  N   UNL     1      -5.651 -10.416  16.403  0.00  0.00    -0.330 N 
ATOM      3  N   UNL     1      -4.164 -11.365  17.756  0.00  0.00    -0.232 NA
ATOM      9  C   UNL     1      -4.332 -10.688  16.642  0.00  0.00    +0.115 A 
ATOM     11  C   UNL     1      -6.382 -10.953  17.433  0.00  0.00    +0.069 A 
ATOM     13  C   UNL     1      -5.431 -11.540  18.263  0.00  0.00    +0.089 A 
ATOM     14  C   UNL     1      -6.183  -9.692  15.272  0.00  0.00    +0.150 C 
ATOM     15  C   UNL     1      -7.751 -10.975  17.700  0.00  0.00    +0.028 A 
ATOM     18  C   UNL     1      -5.853 -12.192  19.434  0.00  0.00    +0.030 A 
ATOM     19  C   UNL     1      -8.154 -11.628  18.868  0.00  0.00    +0.002 A 
ATOM     22  C   UNL     1      -7.224 -12.226  19.722  0.00  0.00    +0.002 A 
ENDBRANCH   5   9
BRANCH   1  10
ATOM     10  C   UNL     1      -1.890 -11.719  12.618  0.00  0.00    +0.119 C 
BRANCH  10  12
ATOM     12  C   UNL     1      -2.798 -11.245  11.515  0.00  0.00    -0.033 A 
ATOM     16  C   UNL     1      -3.789 -12.090  11.015  0.00  0.00    +0.007 A 
ATOM     17  C   UNL     1      -2.648  -9.960  10.992  0.00  0.00    +0.007 A 
ATOM     20  C   UNL     1      -4.630 -11.651   9.992  0.00  0.00    +0.023 A 
ATOM     21  C   UNL     1      -3.489  -9.521   9.970  0.00  0.00    +0.023 A 
ATOM     23  C   UNL     1      -4.480 -10.366   9.470  0.00  0.00    +0.029 A 
BRANCH  23   4
ATOM      4  N   UNL     1      -5.331  -9.921   8.436  0.00  0.00    -0.336 N 
ATOM     24  C   UNL     1      -5.193 -10.449   7.094  0.00  0.00    +0.129 C 
ATOM     25  C   UNL     1      -6.359  -8.937   8.706  0.00  0.00    +0.129 C 
ENDBRANCH  23   4
ENDBRANCH  10  12
ENDBRANCH   1  10
TORSDOF 4
ENDMDL
MODEL 8
REMARK VINA RESULT:      -6.1     20.011     22.693
REMARK  Name = 51137886
REMARK  7 active torsions:
REMARK  status: ('A' for Active; 'I' for Inactive)
REMARK    1  A    between atoms: N_1  and  C_10
REMARK    2  A    between atoms: N_2  and  C_14
REMARK    3  A    between atoms: N_4  and  C_23
REMARK    4  A    between atoms: N_4  and  C_24
REMARK    5  A    between atoms: N_4  and  C_25
REMARK    6  A    between atoms: C_5  and  C_9
REMARK    7  A    between atoms: C_10  and  C_12
REMARK                            x       y       z     vdW  Elec       q    Type
REMARK                         _______ _______ _______ _____ _____    ______ ____
ROOT
ATOM      1  N   UNL     1      -2.040   9.925   5.451  0.00  0.00    -0.297 NA
ATOM      5  C   UNL     1      -1.259  11.792   6.635  0.00  0.00    +0.070 C 
ATOM      6  C   UNL     1      -0.891  11.935   5.148  0.00  0.00    +0.028 C 
ATOM      7  C   UNL     1      -1.631  10.314   6.803  0.00  0.00    +0.096 C 
ATOM      8  C   UNL     1      -1.046  10.536   4.568  0.00  0.00    +0.085 C 
ENDROOT
BRANCH   5   9
ATOM      2  N   UNL     1      -0.486  12.782   8.821  0.00  0.00    -0.330 N 
ATOM      3  N   UNL     1       1.109  12.176   7.398  0.00  0.00    -0.232 NA
ATOM      9  C   UNL     1      -0.187  12.243   7.601  0.00  0.00    +0.115 A 
ATOM     11  C   UNL     1       0.697  13.084   9.447  0.00  0.00    +0.069 A 
ATOM     13  C   UNL     1       1.677  12.696   8.538  0.00  0.00    +0.089 A 
ATOM     14  C   UNL     1      -1.810  12.998   9.359  0.00  0.00    +0.150 C 
ATOM     15  C   UNL     1       0.984  13.645  10.691  0.00  0.00    +0.028 A 
ATOM     18  C   UNL     1       3.030  12.871   8.875  0.00  0.00    +0.030 A 
ATOM     19  C   UNL     1       2.335  13.811  11.010  0.00  0.00    +0.002 A 
ATOM     22  C   UNL     1       3.342  13.433  10.120  0.00  0.00    +0.002 A 
ENDBRANCH   5   9
BRANCH   1  10
ATOM     10  C   UNL     1      -2.114   8.481   5.287  0.00  0.00    +0.119 C 
BRANCH  10  12
ATOM     12  C   UNL     1      -3.529   8.013   5.074  0.00  0.00    -0.033 A 
ATOM     16  C   UNL     1      -4.517   8.925   4.701  0.00  0.00    +0.007 A 
ATOM     17  C   UNL     1      -3.853   6.668   5.251  0.00  0.00    +0.007 A 
ATOM     20  C   UNL     1      -5.829   8.492   4.505  0.00  0.00    +0.023 A 
ATOM     21  C   UNL     1      -5.164   6.235   5.054  0.00  0.00    +0.023 A 
ATOM     23  C   UNL     1      -6.151   7.146   4.681  0.00  0.00    +0.029 A 
BRANCH  23   4
ATOM      4  N   UNL     1      -7.478   6.708   4.481  0.00  0.00    -0.336 N 
ATOM     24  C   UNL     1      -8.059   5.707   5.352  0.00  0.00    +0.129 C 
ATOM     25  C   UNL     1      -8.278   7.260   3.407  0.00  0.00    +0.129 C 
ENDBRANCH  23   4
ENDBRANCH  10  12
ENDBRANCH   1  10
TORSDOF 4
ENDMDL
MODEL 9
REMARK VINA RESULT:      -6.0     18.616     20.867
REMARK  Name = 51137886
REMARK  7 active torsions:
REMARK  status: ('A' for Active; 'I' for Inactive)
REMARK    1  A    between atoms: N_1  and  C_10
REMARK    2  A    between atoms: N_2  and  C_14
REMARK    3  A    between atoms: N_4  and  C_23
REMARK    4  A    between atoms: N_4  and  C_24
REMARK    5  A    between atoms: N_4  and  C_25
REMARK    6  A    between atoms: C_5  and  C_9
REMARK    7  A    between atoms: C_10  and  C_12
REMARK                            x       y       z     vdW  Elec       q    Type
REMARK                         _______ _______ _______ _____ _____    ______ ____
ROOT
ATOM      1  N   UNL     1      11.520   5.021   1.691  0.00  0.00    -0.297 NA
ATOM      5  C   UNL     1      10.409   5.946   3.538  0.00  0.00    +0.070 C 
ATOM      6  C   UNL     1      11.702   6.734   3.268  0.00  0.00    +0.028 C 
ATOM      7  C   UNL     1      10.575   4.643   2.744  0.00  0.00    +0.096 C 
ATOM      8  C   UNL     1      12.534   5.830   2.368  0.00  0.00    +0.085 C 
ENDROOT
BRANCH   5   9
ATOM      2  N   UNL     1       9.611   6.698   5.807  0.00  0.00    -0.330 N 
ATOM      3  N   UNL     1      10.260   4.578   5.646  0.00  0.00    -0.232 NA
ATOM      9  C   UNL     1      10.102   5.711   4.999  0.00  0.00    +0.115 A 
ATOM     11  C   UNL     1       9.442   6.166   7.061  0.00  0.00    +0.069 A 
ATOM     13  C   UNL     1       9.854   4.843   6.934  0.00  0.00    +0.089 A 
ATOM     14  C   UNL     1       9.322   8.058   5.416  0.00  0.00    +0.150 C 
ATOM     15  C   UNL     1       8.979   6.714   8.258  0.00  0.00    +0.028 A 
ATOM     18  C   UNL     1       9.808   4.000   8.057  0.00  0.00    +0.030 A 
ATOM     19  C   UNL     1       8.938   5.861   9.365  0.00  0.00    +0.002 A 
ATOM     22  C   UNL     1       9.345   4.528   9.270  0.00  0.00    +0.002 A 
ENDBRANCH   5   9
BRANCH   1  10
ATOM     10  C   UNL     1      12.092   3.865   1.017  0.00  0.00    +0.119 C 
BRANCH  10  12
ATOM     12  C   UNL     1      11.850   3.907  -0.468  0.00  0.00    -0.033 A 
ATOM     16  C   UNL     1      12.722   3.247  -1.336  0.00  0.00    +0.007 A 
ATOM     17  C   UNL     1      10.756   4.605  -0.978  0.00  0.00    +0.007 A 
ATOM     20  C   UNL     1      12.498   3.285  -2.712  0.00  0.00    +0.023 A 
ATOM     21  C   UNL     1      10.532   4.643  -2.354  0.00  0.00    +0.023 A 
ATOM     23  C   UNL     1      11.403   3.984  -3.221  0.00  0.00    +0.029 A 
BRANCH  23   4
ATOM      4  N   UNL     1      11.176   4.022  -4.613  0.00  0.00    -0.336 N 
ATOM     24  C   UNL     1      10.220   4.954  -5.176  0.00  0.00    +0.129 C 
ATOM     25  C   UNL     1      11.904   3.136  -5.498  0.00  0.00    +0.129 C 
ENDBRANCH  23   4
ENDBRANCH  10  12
ENDBRANCH   1  10
TORSDOF 4
ENDMDL
MODEL 10
REMARK VINA RESULT:      -6.0     26.612     29.445
REMARK  Name = 51137886
REMARK  7 active torsions:
REMARK  status: ('A' for Active; 'I' for Inactive)
REMARK    1  A    between atoms: N_1  and  C_10
REMARK    2  A    between atoms: N_2  and  C_14
REMARK    3  A    between atoms: N_4  and  C_23
REMARK    4  A    between atoms: N_4  and  C_24
REMARK    5  A    between atoms: N_4  and  C_25
REMARK    6  A    between atoms: C_5  and  C_9
REMARK    7  A    between atoms: C_10  and  C_12
REMARK                            x       y       z     vdW  Elec       q    Type
REMARK                         _______ _______ _______ _____ _____    ______ ____
ROOT
ATOM      1  N   UNL     1     -14.542   6.341  21.622  0.00  0.00    -0.297 NA
ATOM      5  C   UNL     1     -16.019   4.796  22.588  0.00  0.00    +0.070 C 
ATOM      6  C   UNL     1     -16.622   6.209  22.675  0.00  0.00    +0.028 C 
ATOM      7  C   UNL     1     -14.537   5.026  22.268  0.00  0.00    +0.096 C 
ATOM      8  C   UNL     1     -15.453   7.153  22.431  0.00  0.00    +0.085 C 
ENDROOT
BRANCH   5   9
ATOM      2  N   UNL     1     -16.942   2.771  23.771  0.00  0.00    -0.330 N 
ATOM      3  N   UNL     1     -15.780   4.195  25.020  0.00  0.00    -0.232 NA
ATOM      9  C   UNL     1     -16.231   3.938  23.813  0.00  0.00    +0.115 A 
ATOM     11  C   UNL     1     -16.949   2.239  25.035  0.00  0.00    +0.069 A 
ATOM     13  C   UNL     1     -16.217   3.146  25.796  0.00  0.00    +0.089 A 
ATOM     14  C   UNL     1     -17.575   2.197  22.605  0.00  0.00    +0.150 C 
ATOM     15  C   UNL     1     -17.516   1.078  25.562  0.00  0.00    +0.028 A 
ATOM     18  C   UNL     1     -16.029   2.896  27.166  0.00  0.00    +0.030 A 
ATOM     19  C   UNL     1     -17.319   0.844  26.926  0.00  0.00    +0.002 A 
ATOM     22  C   UNL     1     -16.589   1.736  27.717  0.00  0.00    +0.002 A 
ENDBRANCH   5   9
BRANCH   1  10
ATOM     10  C   UNL     1     -13.211   6.922  21.535  0.00  0.00    +0.119 C 
BRANCH  10  12
ATOM     12  C   UNL     1     -12.877   7.349  20.130  0.00  0.00    -0.033 A 
ATOM     16  C   UNL     1     -11.559   7.293  19.679  0.00  0.00    +0.007 A 
ATOM     17  C   UNL     1     -13.887   7.801  19.280  0.00  0.00    +0.007 A 
ATOM     20  C   UNL     1     -11.249   7.689  18.377  0.00  0.00    +0.023 A 
ATOM     21  C   UNL     1     -13.578   8.197  17.979  0.00  0.00    +0.023 A 
ATOM     23  C   UNL     1     -12.260   8.141  17.528  0.00  0.00    +0.029 A 
BRANCH  23   4
ATOM      4  N   UNL     1     -11.947   8.541  16.211  0.00  0.00    -0.336 N 
ATOM     24  C   UNL     1     -10.613   8.997  15.880  0.00  0.00    +0.129 C 
ATOM     25  C   UNL     1     -12.956   8.493  15.172  0.00  0.00    +0.129 C 
ENDBRANCH  23   4
ENDBRANCH  10  12
ENDBRANCH   1  10
TORSDOF 4
ENDMDL
