MODEL 1
REMARK VINA RESULT:      -6.6      0.000      0.000
REMARK  Name = 45361598
REMARK  13 active torsions:
REMARK  status: ('A' for Active; 'I' for Inactive)
REMARK    1  A    between atoms: O_2  and  C_11
REMARK    2  A    between atoms: O_5  and  C_26
REMARK    3  A    between atoms: O_5  and  C_29
REMARK    4  A    between atoms: N_6  and  C_15
REMARK    5  A    between atoms: N_7  and  C_25
REMARK    6  A    between atoms: C_8  and  C_18
REMARK    7  A    between atoms: C_10  and  C_20
REMARK    8  A    between atoms: C_14  and  C_19
REMARK    9  A    between atoms: C_19  and  C_21
REMARK   10  A    between atoms: C_19  and  C_22
REMARK   11  A    between atoms: C_23  and  C_24
REMARK   12  A    between atoms: C_24  and  C_26
REMARK   13  A    between atoms: C_25  and  C_27
REMARK                            x       y       z     vdW  Elec       q    Type
REMARK                         _______ _______ _______ _____ _____    ______ ____
ROOT
ATOM      8  C   UNL     1     -16.191   6.569  22.135  0.00  0.00    -0.027 C 
ATOM      9  C   UNL     1     -14.815   6.020  22.640  0.00  0.00    +0.028 C 
ATOM     10  C   UNL     1     -13.757   6.009  21.480  0.00  0.00    +0.012 C 
ATOM     11  C   UNL     1     -14.989   4.673  23.399  0.00  0.00    +0.122 C 
ATOM     12  C   UNL     1     -17.174   6.672  23.326  0.00  0.00    +0.007 C 
ATOM     13  C   UNL     1     -15.988   7.993  21.568  0.00  0.00    +0.009 C 
ATOM     14  C   UNL     1     -16.051   4.754  24.521  0.00  0.00    +0.029 C 
ATOM     15  C   UNL     1     -13.616   7.430  20.866  0.00  0.00    +0.076 C 
ATOM     16  C   UNL     1     -17.377   5.346  24.047  0.00  0.00    +0.007 C 
ATOM     17  C   UNL     1     -14.952   8.049  20.454  0.00  0.00    +0.023 C 
ATOM     18  C   UNL     1     -16.825   5.670  21.044  0.00  0.00    +0.011 C 
ATOM     20  C   UNL     1     -12.371   5.507  21.914  0.00  0.00    +0.010 C 
ENDROOT
BRANCH  15   6
ATOM      4  O   UNL     1     -11.602   9.395  20.225  0.00  0.00    -0.276 OA
ATOM      6  N   UNL     1     -12.736   7.434  19.716  0.00  0.00    -0.312 N 
ATOM     23  C   UNL     1     -11.796   8.427  19.495  0.00  0.00    +0.215 C 
ATOM     32  H   UNL     1     -12.862   6.708  19.016  0.00  0.00    +0.149 HD
BRANCH  23  24
ATOM     24  C   UNL     1     -11.012   8.175  18.216  0.00  0.00    +0.124 C 
BRANCH  24  26
ATOM     26  C   UNL     1     -10.037   9.295  17.887  0.00  0.00    +0.168 C 
BRANCH  26   5
ATOM      5  O   UNL     1     -10.153   9.633  16.511  0.00  0.00    -0.382 OA
ATOM     29  C   UNL     1     -10.663   8.548  15.750  0.00  0.00    +0.194 C 
ENDBRANCH  26   5
ENDBRANCH  24  26
ENDBRANCH  23  24
ENDBRANCH  15   6
BRANCH  11   2
ATOM      2  O   UNL     1     -13.757   4.315  24.026  0.00  0.00    -0.391 OA
ATOM     33  H   UNL     1     -13.202   5.111  24.076  0.00  0.00    +0.210 HD
ENDBRANCH  11   2
BRANCH  14  19
ATOM     19  C   UNL     1     -16.301   3.387  25.167  0.00  0.00    +0.077 C 
ATOM     21  C   UNL     1     -17.450   2.675  24.463  0.00  0.00    +0.017 C 
BRANCH  19  22
ATOM      3  O   UNL     1     -17.709   3.790  27.096  0.00  0.00    -0.276 OA
ATOM      7  N   UNL     1     -15.442   3.430  27.434  0.00  0.00    -0.310 N 
ATOM     22  C   UNL     1     -16.585   3.560  26.657  0.00  0.00    +0.216 C 
ATOM     34  H   UNL     1     -14.548   3.265  26.982  0.00  0.00    +0.149 HD
BRANCH   7  25
ATOM     25  C   UNL     1     -15.458   3.555  28.873  0.00  0.00    +0.146 C 
BRANCH  25  27
ATOM      1  S   UNL     1     -16.016   0.902  29.475  0.00  0.00    -0.100 S 
ATOM     27  C   UNL     1     -15.017   2.290  29.551  0.00  0.00    +0.007 A 
ATOM     28  C   UNL     1     -13.864   2.059  30.268  0.00  0.00    +0.013 A 
ATOM     30  C   UNL     1     -13.800   0.724  30.761  0.00  0.00    +0.008 A 
ATOM     31  C   UNL     1     -14.906  -0.014  30.403  0.00  0.00    +0.045 A 
ENDBRANCH  25  27
ENDBRANCH   7  25
ENDBRANCH  19  22
ENDBRANCH  14  19
TORSDOF 9
ENDMDL
MODEL 2
REMARK VINA RESULT:      -6.5     19.126     22.147
REMARK  Name = 45361598
REMARK  13 active torsions:
REMARK  status: ('A' for Active; 'I' for Inactive)
REMARK    1  A    between atoms: O_2  and  C_11
REMARK    2  A    between atoms: O_5  and  C_26
REMARK    3  A    between atoms: O_5  and  C_29
REMARK    4  A    between atoms: N_6  and  C_15
REMARK    5  A    between atoms: N_7  and  C_25
REMARK    6  A    between atoms: C_8  and  C_18
REMARK    7  A    between atoms: C_10  and  C_20
REMARK    8  A    between atoms: C_14  and  C_19
REMARK    9  A    between atoms: C_19  and  C_21
REMARK   10  A    between atoms: C_19  and  C_22
REMARK   11  A    between atoms: C_23  and  C_24
REMARK   12  A    between atoms: C_24  and  C_26
REMARK   13  A    between atoms: C_25  and  C_27
REMARK                            x       y       z     vdW  Elec       q    Type
REMARK                         _______ _______ _______ _____ _____    ______ ____
ROOT
ATOM      8  C   UNL     1      -4.636 -11.061  16.940  0.00  0.00    -0.027 C 
ATOM      9  C   UNL     1      -5.465 -10.507  15.734  0.00  0.00    +0.028 C 
ATOM     10  C   UNL     1      -7.005 -10.684  15.985  0.00  0.00    +0.012 C 
ATOM     11  C   UNL     1      -4.939 -11.070  14.382  0.00  0.00    +0.122 C 
ATOM     12  C   UNL     1      -3.134 -10.769  16.712  0.00  0.00    +0.007 C 
ATOM     13  C   UNL     1      -5.068 -10.324  18.229  0.00  0.00    +0.009 C 
ATOM     14  C   UNL     1      -3.416 -10.868  14.206  0.00  0.00    +0.029 C 
ATOM     15  C   UNL     1      -7.415 -10.004  17.322  0.00  0.00    +0.076 C 
ATOM     16  C   UNL     1      -2.606 -11.353  15.408  0.00  0.00    +0.007 C 
ATOM     17  C   UNL     1      -6.559 -10.439  18.511  0.00  0.00    +0.023 C 
ATOM     18  C   UNL     1      -4.822 -12.587  17.138  0.00  0.00    +0.011 C 
ATOM     20  C   UNL     1      -7.883 -10.134  14.849  0.00  0.00    +0.010 C 
ENDROOT
BRANCH  15   6
ATOM      4  O   UNL     1      -9.521  -8.041  17.528  0.00  0.00    -0.276 OA
ATOM      6  N   UNL     1      -8.805 -10.247  17.644  0.00  0.00    -0.312 N 
ATOM     23  C   UNL     1      -9.746  -9.233  17.720  0.00  0.00    +0.215 C 
ATOM     32  H   UNL     1      -9.081 -11.196  17.884  0.00  0.00    +0.149 HD
BRANCH  23  24
ATOM     24  C   UNL     1     -11.122  -9.777  18.073  0.00  0.00    +0.124 C 
BRANCH  24  26
ATOM     26  C   UNL     1     -11.341  -9.910  19.573  0.00  0.00    +0.168 C 
BRANCH  26   5
ATOM      5  O   UNL     1     -10.251 -10.616  20.149  0.00  0.00    -0.382 OA
ATOM     29  C   UNL     1     -10.526 -12.005  20.252  0.00  0.00    +0.194 C 
ENDBRANCH  26   5
ENDBRANCH  24  26
ENDBRANCH  23  24
ENDBRANCH  15   6
BRANCH  11   2
ATOM      2  O   UNL     1      -5.570 -10.383  13.301  0.00  0.00    -0.391 OA
ATOM     33  H   UNL     1      -5.491  -9.428  13.463  0.00  0.00    +0.210 HD
ENDBRANCH  11   2
BRANCH  14  19
ATOM     19  C   UNL     1      -2.896 -11.544  12.932  0.00  0.00    +0.077 C 
ATOM     21  C   UNL     1      -1.697 -12.426  13.257  0.00  0.00    +0.017 C 
BRANCH  19  22
ATOM      3  O   UNL     1      -1.461  -9.903  11.877  0.00  0.00    -0.276 OA
ATOM      7  N   UNL     1      -3.569 -10.270  10.982  0.00  0.00    -0.310 N 
ATOM     22  C   UNL     1      -2.542 -10.486  11.890  0.00  0.00    +0.216 C 
ATOM     34  H   UNL     1      -4.441 -10.781  11.083  0.00  0.00    +0.149 HD
BRANCH   7  25
ATOM     25  C   UNL     1      -3.469  -9.314   9.903  0.00  0.00    +0.146 C 
BRANCH  25  27
ATOM      1  S   UNL     1      -5.247 -10.027   7.891  0.00  0.00    -0.100 S 
ATOM     27  C   UNL     1      -4.796  -9.075   9.241  0.00  0.00    +0.007 A 
ATOM     28  C   UNL     1      -5.765  -8.153   9.571  0.00  0.00    +0.013 A 
ATOM     30  C   UNL     1      -6.892  -8.229   8.703  0.00  0.00    +0.008 A 
ATOM     31  C   UNL     1      -6.742  -9.206   7.744  0.00  0.00    +0.045 A 
ENDBRANCH  25  27
ENDBRANCH   7  25
ENDBRANCH  19  22
ENDBRANCH  14  19
TORSDOF 9
ENDMDL
MODEL 3
REMARK VINA RESULT:      -6.3     28.304     33.028
REMARK  Name = 45361598
REMARK  13 active torsions:
REMARK  status: ('A' for Active; 'I' for Inactive)
REMARK    1  A    between atoms: O_2  and  C_11
REMARK    2  A    between atoms: O_5  and  C_26
REMARK    3  A    between atoms: O_5  and  C_29
REMARK    4  A    between atoms: N_6  and  C_15
REMARK    5  A    between atoms: N_7  and  C_25
REMARK    6  A    between atoms: C_8  and  C_18
REMARK    7  A    between atoms: C_10  and  C_20
REMARK    8  A    between atoms: C_14  and  C_19
REMARK    9  A    between atoms: C_19  and  C_21
REMARK   10  A    between atoms: C_19  and  C_22
REMARK   11  A    between atoms: C_23  and  C_24
REMARK   12  A    between atoms: C_24  and  C_26
REMARK   13  A    between atoms: C_25  and  C_27
REMARK                            x       y       z     vdW  Elec       q    Type
REMARK                         _______ _______ _______ _____ _____    ______ ____
ROOT
ATOM      8  C   UNL     1       9.455   6.437   6.321  0.00  0.00    -0.027 C 
ATOM      9  C   UNL     1      10.540   7.449   5.822  0.00  0.00    +0.028 C 
ATOM     10  C   UNL     1      10.148   8.921   6.204  0.00  0.00    +0.012 C 
ATOM     11  C   UNL     1      10.881   7.216   4.322  0.00  0.00    +0.122 C 
ATOM     12  C   UNL     1       9.925   4.992   6.030  0.00  0.00    +0.007 C 
ATOM     13  C   UNL     1       9.298   6.581   7.853  0.00  0.00    +0.009 C 
ATOM     14  C   UNL     1      11.249   5.744   4.018  0.00  0.00    +0.029 C 
ATOM     15  C   UNL     1       9.919   9.038   7.737  0.00  0.00    +0.076 C 
ATOM     16  C   UNL     1      10.222   4.749   4.556  0.00  0.00    +0.007 C 
ATOM     17  C   UNL     1       8.943   7.996   8.286  0.00  0.00    +0.023 C 
ATOM     18  C   UNL     1       8.079   6.659   5.644  0.00  0.00    +0.011 C 
ATOM     20  C   UNL     1      11.187   9.968   5.768  0.00  0.00    +0.010 C 
ENDROOT
BRANCH  15   6
ATOM      4  O   UNL     1      11.234  10.934   9.471  0.00  0.00    -0.276 OA
ATOM      6  N   UNL     1       9.443  10.353   8.111  0.00  0.00    -0.312 N 
ATOM     23  C   UNL     1      10.150  11.194   8.954  0.00  0.00    +0.215 C 
ATOM     32  H   UNL     1       8.523  10.638   7.787  0.00  0.00    +0.149 HD
BRANCH  23  24
ATOM     24  C   UNL     1       9.416  12.509   9.170  0.00  0.00    +0.124 C 
BRANCH  24  26
ATOM     26  C   UNL     1       8.418  12.450  10.318  0.00  0.00    +0.168 C 
BRANCH  26   5
ATOM      5  O   UNL     1       7.149  12.896   9.862  0.00  0.00    -0.382 OA
ATOM     29  C   UNL     1       7.273  13.804   8.777  0.00  0.00    +0.194 C 
ENDBRANCH  26   5
ENDBRANCH  24  26
ENDBRANCH  23  24
ENDBRANCH  15   6
BRANCH  11   2
ATOM      2  O   UNL     1      12.016   8.004   3.963  0.00  0.00    -0.391 OA
ATOM     33  H   UNL     1      12.815   7.471   4.115  0.00  0.00    +0.210 HD
ENDBRANCH  11   2
BRANCH  14  19
ATOM     19  C   UNL     1      11.453   5.509   2.517  0.00  0.00    +0.077 C 
ATOM     21  C   UNL     1      10.617   4.322   2.053  0.00  0.00    +0.017 C 
BRANCH  19  22
ATOM      3  O   UNL     1      13.766   6.195   2.308  0.00  0.00    -0.276 OA
ATOM      7  N   UNL     1      13.219   3.988   1.850  0.00  0.00    -0.310 N 
ATOM     22  C   UNL     1      12.935   5.294   2.221  0.00  0.00    +0.216 C 
ATOM     34  H   UNL     1      12.463   3.313   1.781  0.00  0.00    +0.149 HD
BRANCH   7  25
ATOM     25  C   UNL     1      14.553   3.542   1.520  0.00  0.00    +0.146 C 
BRANCH  25  27
ATOM      1  S   UNL     1      13.779   3.985  -1.110  0.00  0.00    -0.100 S 
ATOM     27  C   UNL     1      14.955   3.954   0.133  0.00  0.00    +0.007 A 
ATOM     28  C   UNL     1      16.199   4.334  -0.322  0.00  0.00    +0.013 A 
ATOM     30  C   UNL     1      16.185   4.654  -1.709  0.00  0.00    +0.008 A 
ATOM     31  C   UNL     1      14.933   4.508  -2.263  0.00  0.00    +0.045 A 
ENDBRANCH  25  27
ENDBRANCH   7  25
ENDBRANCH  19  22
ENDBRANCH  14  19
TORSDOF 9
ENDMDL
MODEL 4
REMARK VINA RESULT:      -6.2     19.881     21.526
REMARK  Name = 45361598
REMARK  13 active torsions:
REMARK  status: ('A' for Active; 'I' for Inactive)
REMARK    1  A    between atoms: O_2  and  C_11
REMARK    2  A    between atoms: O_5  and  C_26
REMARK    3  A    between atoms: O_5  and  C_29
REMARK    4  A    between atoms: N_6  and  C_15
REMARK    5  A    between atoms: N_7  and  C_25
REMARK    6  A    between atoms: C_8  and  C_18
REMARK    7  A    between atoms: C_10  and  C_20
REMARK    8  A    between atoms: C_14  and  C_19
REMARK    9  A    between atoms: C_19  and  C_21
REMARK   10  A    between atoms: C_19  and  C_22
REMARK   11  A    between atoms: C_23  and  C_24
REMARK   12  A    between atoms: C_24  and  C_26
REMARK   13  A    between atoms: C_25  and  C_27
REMARK                            x       y       z     vdW  Elec       q    Type
REMARK                         _______ _______ _______ _____ _____    ______ ____
ROOT
ATOM      8  C   UNL     1      -3.339 -11.121  11.497  0.00  0.00    -0.027 C 
ATOM      9  C   UNL     1      -4.672 -10.648  12.169  0.00  0.00    +0.028 C 
ATOM     10  C   UNL     1      -5.427  -9.621  11.252  0.00  0.00    +0.012 C 
ATOM     11  C   UNL     1      -4.429 -10.183  13.634  0.00  0.00    +0.122 C 
ATOM     12  C   UNL     1      -2.679 -12.213  12.373  0.00  0.00    +0.007 C 
ATOM     13  C   UNL     1      -3.666 -11.753  10.124  0.00  0.00    +0.009 C 
ATOM     14  C   UNL     1      -3.675 -11.238  14.477  0.00  0.00    +0.029 C 
ATOM     15  C   UNL     1      -5.682 -10.240   9.848  0.00  0.00    +0.076 C 
ATOM     16  C   UNL     1      -2.405 -11.748  13.797  0.00  0.00    +0.007 C 
ATOM     17  C   UNL     1      -4.422 -10.811   9.198  0.00  0.00    +0.023 C 
ATOM     18  C   UNL     1      -2.329  -9.963  11.300  0.00  0.00    +0.011 C 
ATOM     20  C   UNL     1      -6.762  -9.135  11.840  0.00  0.00    +0.010 C 
ENDROOT
BRANCH  15   6
ATOM      4  O   UNL     1      -7.713 -10.750   7.863  0.00  0.00    -0.276 OA
ATOM      6  N   UNL     1      -6.273  -9.281   8.938  0.00  0.00    -0.312 N 
ATOM     23  C   UNL     1      -7.247  -9.625   8.015  0.00  0.00    +0.215 C 
ATOM     32  H   UNL     1      -5.908  -8.333   8.941  0.00  0.00    +0.149 HD
BRANCH  23  24
ATOM     24  C   UNL     1      -7.685  -8.420   7.196  0.00  0.00    +0.124 C 
BRANCH  24  26
ATOM     26  C   UNL     1      -7.950  -7.187   8.047  0.00  0.00    +0.168 C 
BRANCH  26   5
ATOM      5  O   UNL     1      -8.722  -7.554   9.183  0.00  0.00    -0.382 OA
ATOM     29  C   UNL     1     -10.085  -7.188   9.026  0.00  0.00    +0.194 C 
ENDBRANCH  26   5
ENDBRANCH  24  26
ENDBRANCH  23  24
ENDBRANCH  15   6
BRANCH  11   2
ATOM      2  O   UNL     1      -5.684  -9.966  14.279  0.00  0.00    -0.391 OA
ATOM     33  H   UNL     1      -5.946 -10.793  14.718  0.00  0.00    +0.210 HD
ENDBRANCH  11   2
BRANCH  14  19
ATOM     19  C   UNL     1      -3.331 -10.710  15.874  0.00  0.00    +0.077 C 
ATOM     21  C   UNL     1      -1.821 -10.714  16.081  0.00  0.00    +0.017 C 
BRANCH  19  22
ATOM      3  O   UNL     1      -3.690 -11.560  18.113  0.00  0.00    -0.276 OA
ATOM      7  N   UNL     1      -5.099 -12.277  16.416  0.00  0.00    -0.310 N 
ATOM     22  C   UNL     1      -4.039 -11.548  16.935  0.00  0.00    +0.216 C 
ATOM     34  H   UNL     1      -5.301 -12.226  15.422  0.00  0.00    +0.149 HD
BRANCH   7  25
ATOM     25  C   UNL     1      -5.920 -13.147  17.227  0.00  0.00    +0.146 C 
BRANCH  25  27
ATOM      1  S   UNL     1      -7.874 -11.177  17.084  0.00  0.00    -0.100 S 
ATOM     27  C   UNL     1      -7.013 -12.393  17.929  0.00  0.00    +0.007 A 
ATOM     28  C   UNL     1      -7.456 -12.535  19.225  0.00  0.00    +0.013 A 
ATOM     30  C   UNL     1      -8.517 -11.634  19.529  0.00  0.00    +0.008 A 
ATOM     31  C   UNL     1      -8.845 -10.838  18.454  0.00  0.00    +0.045 A 
ENDBRANCH  25  27
ENDBRANCH   7  25
ENDBRANCH  19  22
ENDBRANCH  14  19
TORSDOF 9
ENDMDL
MODEL 5
REMARK VINA RESULT:      -6.2     26.498     29.091
REMARK  Name = 45361598
REMARK  13 active torsions:
REMARK  status: ('A' for Active; 'I' for Inactive)
REMARK    1  A    between atoms: O_2  and  C_11
REMARK    2  A    between atoms: O_5  and  C_26
REMARK    3  A    between atoms: O_5  and  C_29
REMARK    4  A    between atoms: N_6  and  C_15
REMARK    5  A    between atoms: N_7  and  C_25
REMARK    6  A    between atoms: C_8  and  C_18
REMARK    7  A    between atoms: C_10  and  C_20
REMARK    8  A    between atoms: C_14  and  C_19
REMARK    9  A    between atoms: C_19  and  C_21
REMARK   10  A    between atoms: C_19  and  C_22
REMARK   11  A    between atoms: C_23  and  C_24
REMARK   12  A    between atoms: C_24  and  C_26
REMARK   13  A    between atoms: C_25  and  C_27
REMARK                            x       y       z     vdW  Elec       q    Type
REMARK                         _______ _______ _______ _____ _____    ______ ____
ROOT
ATOM      8  C   UNL     1      13.032   8.982  17.243  0.00  0.00    -0.027 C 
ATOM      9  C   UNL     1      13.499  10.048  18.289  0.00  0.00    +0.028 C 
ATOM     10  C   UNL     1      14.826  10.746  17.823  0.00  0.00    +0.012 C 
ATOM     11  C   UNL     1      13.526   9.453  19.727  0.00  0.00    +0.122 C 
ATOM     12  C   UNL     1      11.667   8.397  17.677  0.00  0.00    +0.007 C 
ATOM     13  C   UNL     1      12.834   9.673  15.874  0.00  0.00    +0.009 C 
ATOM     14  C   UNL     1      12.191   8.776  20.116  0.00  0.00    +0.029 C 
ATOM     15  C   UNL     1      14.639  11.372  16.412  0.00  0.00    +0.076 C 
ATOM     16  C   UNL     1      11.700   7.778  19.068  0.00  0.00    +0.007 C 
ATOM     17  C   UNL     1      14.083  10.390  15.381  0.00  0.00    +0.023 C 
ATOM     18  C   UNL     1      14.045   7.820  17.086  0.00  0.00    +0.011 C 
ATOM     20  C   UNL     1      15.328  11.828  18.793  0.00  0.00    +0.010 C 
ENDROOT
BRANCH  15   6
ATOM      4  O   UNL     1      14.994  13.910  15.084  0.00  0.00    -0.276 OA
ATOM      6  N   UNL     1      15.876  11.923  15.900  0.00  0.00    -0.312 N 
ATOM     23  C   UNL     1      15.945  13.157  15.274  0.00  0.00    +0.215 C 
ATOM     32  H   UNL     1      16.712  11.347  15.951  0.00  0.00    +0.149 HD
BRANCH  23  24
ATOM     24  C   UNL     1      17.367  13.481  14.841  0.00  0.00    +0.124 C 
BRANCH  24  26
ATOM     26  C   UNL     1      18.405  12.577  15.489  0.00  0.00    +0.168 C 
BRANCH  26   5
ATOM      5  O   UNL     1      18.458  12.842  16.884  0.00  0.00    -0.382 OA
ATOM     29  C   UNL     1      19.783  12.738  17.384  0.00  0.00    +0.194 C 
ENDBRANCH  26   5
ENDBRANCH  24  26
ENDBRANCH  23  24
ENDBRANCH  15   6
BRANCH  11   2
ATOM      2  O   UNL     1      13.745  10.500  20.672  0.00  0.00    -0.391 OA
ATOM     33  H   UNL     1      12.878  10.819  20.976  0.00  0.00    +0.210 HD
ENDBRANCH  11   2
BRANCH  14  19
ATOM     19  C   UNL     1      12.282   8.083  21.481  0.00  0.00    +0.077 C 
ATOM     21  C   UNL     1      11.935   6.605  21.344  0.00  0.00    +0.017 C 
BRANCH  19  22
ATOM      3  O   UNL     1      10.220   8.389  22.713  0.00  0.00    -0.276 OA
ATOM      7  N   UNL     1      11.958   9.882  23.073  0.00  0.00    -0.310 N 
ATOM     22  C   UNL     1      11.361   8.780  22.479  0.00  0.00    +0.216 C 
ATOM     34  H   UNL     1      12.899  10.148  22.799  0.00  0.00    +0.149 HD
BRANCH   7  25
ATOM     25  C   UNL     1      11.283  10.704  24.051  0.00  0.00    +0.146 C 
BRANCH  25  27
ATOM      1  S   UNL     1      10.543  13.326  24.591  0.00  0.00    -0.100 S 
ATOM     27  C   UNL     1      10.950  12.064  23.508  0.00  0.00    +0.007 A 
ATOM     28  C   UNL     1      10.918  12.478  22.195  0.00  0.00    +0.013 A 
ATOM     30  C   UNL     1      10.555  13.850  22.077  0.00  0.00    +0.008 A 
ATOM     31  C   UNL     1      10.323  14.433  23.303  0.00  0.00    +0.045 A 
ENDBRANCH  25  27
ENDBRANCH   7  25
ENDBRANCH  19  22
ENDBRANCH  14  19
TORSDOF 9
ENDMDL
MODEL 6
REMARK VINA RESULT:      -6.1     20.192     23.258
REMARK  Name = 45361598
REMARK  13 active torsions:
REMARK  status: ('A' for Active; 'I' for Inactive)
REMARK    1  A    between atoms: O_2  and  C_11
REMARK    2  A    between atoms: O_5  and  C_26
REMARK    3  A    between atoms: O_5  and  C_29
REMARK    4  A    between atoms: N_6  and  C_15
REMARK    5  A    between atoms: N_7  and  C_25
REMARK    6  A    between atoms: C_8  and  C_18
REMARK    7  A    between atoms: C_10  and  C_20
REMARK    8  A    between atoms: C_14  and  C_19
REMARK    9  A    between atoms: C_19  and  C_21
REMARK   10  A    between atoms: C_19  and  C_22
REMARK   11  A    between atoms: C_23  and  C_24
REMARK   12  A    between atoms: C_24  and  C_26
REMARK   13  A    between atoms: C_25  and  C_27
REMARK                            x       y       z     vdW  Elec       q    Type
REMARK                         _______ _______ _______ _____ _____    ______ ____
ROOT
ATOM      8  C   UNL     1      -5.267 -11.282  17.854  0.00  0.00    -0.027 C 
ATOM      9  C   UNL     1      -5.533 -12.355  16.746  0.00  0.00    +0.028 C 
ATOM     10  C   UNL     1      -6.253 -13.614  17.348  0.00  0.00    +0.012 C 
ATOM     11  C   UNL     1      -4.243 -12.651  15.927  0.00  0.00    +0.122 C 
ATOM     12  C   UNL     1      -4.661 -10.013  17.208  0.00  0.00    +0.007 C 
ATOM     13  C   UNL     1      -6.613 -10.883  18.502  0.00  0.00    +0.009 C 
ATOM     14  C   UNL     1      -3.583 -11.367  15.372  0.00  0.00    +0.029 C 
ATOM     15  C   UNL     1      -7.568 -13.191  18.063  0.00  0.00    +0.076 C 
ATOM     16  C   UNL     1      -3.377 -10.293  16.439  0.00  0.00    +0.007 C 
ATOM     17  C   UNL     1      -7.371 -12.068  19.082  0.00  0.00    +0.023 C 
ATOM     18  C   UNL     1      -4.301 -11.790  18.954  0.00  0.00    +0.011 C 
ATOM     20  C   UNL     1      -6.571 -14.699  16.307  0.00  0.00    +0.010 C 
ENDROOT
BRANCH  15   6
ATOM      4  O   UNL     1     -10.383 -13.826  18.106  0.00  0.00    -0.276 OA
ATOM      6  N   UNL     1      -8.199 -14.310  18.731  0.00  0.00    -0.312 N 
ATOM     23  C   UNL     1      -9.566 -14.531  18.693  0.00  0.00    +0.215 C 
ATOM     32  H   UNL     1      -7.616 -14.917  19.300  0.00  0.00    +0.149 HD
BRANCH  23  24
ATOM     24  C   UNL     1      -9.949 -15.777  19.477  0.00  0.00    +0.124 C 
BRANCH  24  26
ATOM     26  C   UNL     1     -10.149 -15.506  20.961  0.00  0.00    +0.168 C 
BRANCH  26   5
ATOM      5  O   UNL     1      -8.980 -14.899  21.493  0.00  0.00    -0.382 OA
ATOM     29  C   UNL     1      -8.652 -15.428  22.769  0.00  0.00    +0.194 C 
ENDBRANCH  26   5
ENDBRANCH  24  26
ENDBRANCH  23  24
ENDBRANCH  15   6
BRANCH  11   2
ATOM      2  O   UNL     1      -4.571 -13.463  14.799  0.00  0.00    -0.391 OA
ATOM     33  H   UNL     1      -3.741 -13.770  14.396  0.00  0.00    +0.210 HD
ENDBRANCH  11   2
BRANCH  14  19
ATOM     19  C   UNL     1      -2.248 -11.667  14.681  0.00  0.00    +0.077 C 
ATOM     21  C   UNL     1      -1.101 -11.026  15.454  0.00  0.00    +0.017 C 
BRANCH  19  22
ATOM      3  O   UNL     1      -1.685 -10.175  12.860  0.00  0.00    -0.276 OA
ATOM      7  N   UNL     1      -3.071 -11.982  12.423  0.00  0.00    -0.310 N 
ATOM     22  C   UNL     1      -2.287 -11.177  13.237  0.00  0.00    +0.216 C 
ATOM     34  H   UNL     1      -3.555 -12.779  12.827  0.00  0.00    +0.149 HD
BRANCH   7  25
ATOM     25  C   UNL     1      -3.263 -11.720  11.016  0.00  0.00    +0.146 C 
BRANCH  25  27
ATOM      1  S   UNL     1      -5.598 -10.320  11.565  0.00  0.00    -0.100 S 
ATOM     27  C   UNL     1      -4.084 -10.484  10.782  0.00  0.00    +0.007 A 
ATOM     28  C   UNL     1      -3.792  -9.398   9.988  0.00  0.00    +0.013 A 
ATOM     30  C   UNL     1      -4.824  -8.417  10.023  0.00  0.00    +0.008 A 
ATOM     31  C   UNL     1      -5.866  -8.791  10.842  0.00  0.00    +0.045 A 
ENDBRANCH  25  27
ENDBRANCH   7  25
ENDBRANCH  19  22
ENDBRANCH  14  19
TORSDOF 9
ENDMDL
MODEL 7
REMARK VINA RESULT:      -6.0     27.552     31.100
REMARK  Name = 45361598
REMARK  13 active torsions:
REMARK  status: ('A' for Active; 'I' for Inactive)
REMARK    1  A    between atoms: O_2  and  C_11
REMARK    2  A    between atoms: O_5  and  C_26
REMARK    3  A    between atoms: O_5  and  C_29
REMARK    4  A    between atoms: N_6  and  C_15
REMARK    5  A    between atoms: N_7  and  C_25
REMARK    6  A    between atoms: C_8  and  C_18
REMARK    7  A    between atoms: C_10  and  C_20
REMARK    8  A    between atoms: C_14  and  C_19
REMARK    9  A    between atoms: C_19  and  C_21
REMARK   10  A    between atoms: C_19  and  C_22
REMARK   11  A    between atoms: C_23  and  C_24
REMARK   12  A    between atoms: C_24  and  C_26
REMARK   13  A    between atoms: C_25  and  C_27
REMARK                            x       y       z     vdW  Elec       q    Type
REMARK                         _______ _______ _______ _____ _____    ______ ____
ROOT
ATOM      8  C   UNL     1       9.781   6.660   6.405  0.00  0.00    -0.027 C 
ATOM      9  C   UNL     1      10.413   7.546   5.280  0.00  0.00    +0.028 C 
ATOM     10  C   UNL     1      11.467   6.729   4.451  0.00  0.00    +0.012 C 
ATOM     11  C   UNL     1      10.917   8.904   5.848  0.00  0.00    +0.122 C 
ATOM     12  C   UNL     1       8.669   7.459   7.127  0.00  0.00    +0.007 C 
ATOM     13  C   UNL     1       9.124   5.418   5.759  0.00  0.00    +0.009 C 
ATOM     14  C   UNL     1       9.831   9.650   6.659  0.00  0.00    +0.029 C 
ATOM     15  C   UNL     1      10.816   5.443   3.869  0.00  0.00    +0.076 C 
ATOM     16  C   UNL     1       9.168   8.770   7.718  0.00  0.00    +0.007 C 
ATOM     17  C   UNL     1      10.094   4.599   4.920  0.00  0.00    +0.023 C 
ATOM     18  C   UNL     1      10.824   6.199   7.454  0.00  0.00    +0.011 C 
ATOM     20  C   UNL     1      12.109   7.531   3.308  0.00  0.00    +0.010 C 
ENDROOT
BRANCH  15   6
ATOM      4  O   UNL     1      10.482   4.072   1.351  0.00  0.00    -0.276 OA
ATOM      6  N   UNL     1      11.787   4.605   3.197  0.00  0.00    -0.312 N 
ATOM     23  C   UNL     1      11.531   3.987   1.984  0.00  0.00    +0.215 C 
ATOM     32  H   UNL     1      12.666   4.419   3.671  0.00  0.00    +0.149 HD
BRANCH  23  24
ATOM     24  C   UNL     1      12.727   3.174   1.513  0.00  0.00    +0.124 C 
BRANCH  24  26
ATOM     26  C   UNL     1      14.048   3.914   1.671  0.00  0.00    +0.168 C 
BRANCH  26   5
ATOM      5  O   UNL     1      13.888   5.261   1.248  0.00  0.00    -0.382 OA
ATOM     29  C   UNL     1      15.065   5.754   0.624  0.00  0.00    +0.194 C 
ENDBRANCH  26   5
ENDBRANCH  24  26
ENDBRANCH  23  24
ENDBRANCH  15   6
BRANCH  11   2
ATOM      2  O   UNL     1      11.285   9.764   4.770  0.00  0.00    -0.391 OA
ATOM     33  H   UNL     1      10.989   9.353   3.940  0.00  0.00    +0.210 HD
ENDBRANCH  11   2
BRANCH  14  19
ATOM     19  C   UNL     1      10.384  10.918   7.318  0.00  0.00    +0.077 C 
ATOM     21  C   UNL     1      11.246  10.553   8.520  0.00  0.00    +0.017 C 
BRANCH  19  22
ATOM      3  O   UNL     1       8.473  12.344   6.896  0.00  0.00    -0.276 OA
ATOM      7  N   UNL     1       9.161  12.034   9.089  0.00  0.00    -0.310 N 
ATOM     22  C   UNL     1       9.235  11.840   7.717  0.00  0.00    +0.216 C 
ATOM     34  H   UNL     1       9.851  11.597   9.693  0.00  0.00    +0.149 HD
BRANCH   7  25
ATOM     25  C   UNL     1       8.157  12.869   9.707  0.00  0.00    +0.146 C 
BRANCH  25  27
ATOM      1  S   UNL     1       8.604  14.731  11.719  0.00  0.00    -0.100 S 
ATOM     27  C   UNL     1       8.452  13.120  11.158  0.00  0.00    +0.007 A 
ATOM     28  C   UNL     1       8.630  12.201  12.168  0.00  0.00    +0.013 A 
ATOM     30  C   UNL     1       8.894  12.828  13.420  0.00  0.00    +0.008 A 
ATOM     31  C   UNL     1       8.908  14.201  13.319  0.00  0.00    +0.045 A 
ENDBRANCH  25  27
ENDBRANCH   7  25
ENDBRANCH  19  22
ENDBRANCH  14  19
TORSDOF 9
ENDMDL
MODEL 8
REMARK VINA RESULT:      -5.9     20.355     23.781
REMARK  Name = 45361598
REMARK  13 active torsions:
REMARK  status: ('A' for Active; 'I' for Inactive)
REMARK    1  A    between atoms: O_2  and  C_11
REMARK    2  A    between atoms: O_5  and  C_26
REMARK    3  A    between atoms: O_5  and  C_29
REMARK    4  A    between atoms: N_6  and  C_15
REMARK    5  A    between atoms: N_7  and  C_25
REMARK    6  A    between atoms: C_8  and  C_18
REMARK    7  A    between atoms: C_10  and  C_20
REMARK    8  A    between atoms: C_14  and  C_19
REMARK    9  A    between atoms: C_19  and  C_21
REMARK   10  A    between atoms: C_19  and  C_22
REMARK   11  A    between atoms: C_23  and  C_24
REMARK   12  A    between atoms: C_24  and  C_26
REMARK   13  A    between atoms: C_25  and  C_27
REMARK                            x       y       z     vdW  Elec       q    Type
REMARK                         _______ _______ _______ _____ _____    ______ ____
ROOT
ATOM      8  C   UNL     1      -3.127 -10.664  12.061  0.00  0.00    -0.027 C 
ATOM      9  C   UNL     1      -4.614 -10.402  12.476  0.00  0.00    +0.028 C 
ATOM     10  C   UNL     1      -4.996 -11.241  13.747  0.00  0.00    +0.012 C 
ATOM     11  C   UNL     1      -5.573 -10.556  11.260  0.00  0.00    +0.122 C 
ATOM     12  C   UNL     1      -2.751  -9.740  10.878  0.00  0.00    +0.007 C 
ATOM     13  C   UNL     1      -2.204 -10.307  13.249  0.00  0.00    +0.009 C 
ATOM     14  C   UNL     1      -5.132  -9.710  10.043  0.00  0.00    +0.029 C 
ATOM     15  C   UNL     1      -4.015 -10.931  14.912  0.00  0.00    +0.076 C 
ATOM     16  C   UNL     1      -3.664  -9.917   9.672  0.00  0.00    +0.007 C 
ATOM     17  C   UNL     1      -2.544 -11.072  14.520  0.00  0.00    +0.023 C 
ATOM     18  C   UNL     1      -2.877 -12.135  11.644  0.00  0.00    +0.011 C 
ATOM     20  C   UNL     1      -6.439 -11.010  14.227  0.00  0.00    +0.010 C 
ENDROOT
BRANCH  15   6
ATOM      4  O   UNL     1      -4.831 -10.075  17.545  0.00  0.00    -0.276 OA
ATOM      6  N   UNL     1      -4.265 -11.772  16.064  0.00  0.00    -0.312 N 
ATOM     23  C   UNL     1      -4.655 -11.264  17.292  0.00  0.00    +0.215 C 
ATOM     32  H   UNL     1      -4.084 -12.768  15.976  0.00  0.00    +0.149 HD
BRANCH  23  24
ATOM     24  C   UNL     1      -4.848 -12.373  18.315  0.00  0.00    +0.124 C 
BRANCH  24  26
ATOM     26  C   UNL     1      -6.311 -12.731  18.534  0.00  0.00    +0.168 C 
BRANCH  26   5
ATOM      5  O   UNL     1      -7.012 -12.629  17.303  0.00  0.00    -0.382 OA
ATOM     29  C   UNL     1      -8.288 -12.029  17.478  0.00  0.00    +0.194 C 
ENDBRANCH  26   5
ENDBRANCH  24  26
ENDBRANCH  23  24
ENDBRANCH  15   6
BRANCH  11   2
ATOM      2  O   UNL     1      -6.878 -10.103  11.622  0.00  0.00    -0.391 OA
ATOM     33  H   UNL     1      -6.789  -9.500  12.379  0.00  0.00    +0.210 HD
ENDBRANCH  11   2
BRANCH  14  19
ATOM     19  C   UNL     1      -6.013  -9.976   8.817  0.00  0.00    +0.077 C 
ATOM     21  C   UNL     1      -5.144 -10.288   7.603  0.00  0.00    +0.017 C 
BRANCH  19  22
ATOM      3  O   UNL     1      -7.326  -8.045   9.457  0.00  0.00    -0.276 OA
ATOM      7  N   UNL     1      -7.220  -8.617   7.212  0.00  0.00    -0.310 N 
ATOM     22  C   UNL     1      -6.919  -8.775   8.557  0.00  0.00    +0.216 C 
ATOM     34  H   UNL     1      -6.859  -9.285   6.538  0.00  0.00    +0.149 HD
BRANCH   7  25
ATOM     25  C   UNL     1      -8.062  -7.551   6.720  0.00  0.00    +0.146 C 
BRANCH  25  27
ATOM      1  S   UNL     1      -9.943  -7.305   4.692  0.00  0.00    -0.100 S 
ATOM     27  C   UNL     1      -8.382  -7.717   5.262  0.00  0.00    +0.007 A 
ATOM     28  C   UNL     1      -7.567  -8.176   4.252  0.00  0.00    +0.013 A 
ATOM     30  C   UNL     1      -8.232  -8.190   2.993  0.00  0.00    +0.008 A 
ATOM     31  C   UNL     1      -9.530  -7.741   3.088  0.00  0.00    +0.045 A 
ENDBRANCH  25  27
ENDBRANCH   7  25
ENDBRANCH  19  22
ENDBRANCH  14  19
TORSDOF 9
ENDMDL
MODEL 9
REMARK VINA RESULT:      -5.9     17.799     19.439
REMARK  Name = 45361598
REMARK  13 active torsions:
REMARK  status: ('A' for Active; 'I' for Inactive)
REMARK    1  A    between atoms: O_2  and  C_11
REMARK    2  A    between atoms: O_5  and  C_26
REMARK    3  A    between atoms: O_5  and  C_29
REMARK    4  A    between atoms: N_6  and  C_15
REMARK    5  A    between atoms: N_7  and  C_25
REMARK    6  A    between atoms: C_8  and  C_18
REMARK    7  A    between atoms: C_10  and  C_20
REMARK    8  A    between atoms: C_14  and  C_19
REMARK    9  A    between atoms: C_19  and  C_21
REMARK   10  A    between atoms: C_19  and  C_22
REMARK   11  A    between atoms: C_23  and  C_24
REMARK   12  A    between atoms: C_24  and  C_26
REMARK   13  A    between atoms: C_25  and  C_27
REMARK                            x       y       z     vdW  Elec       q    Type
REMARK                         _______ _______ _______ _____ _____    ______ ____
ROOT
ATOM      8  C   UNL     1      -6.743 -11.484  18.857  0.00  0.00    -0.027 C 
ATOM      9  C   UNL     1      -7.193 -10.950  17.457  0.00  0.00    +0.028 C 
ATOM     10  C   UNL     1      -5.974 -10.350  16.669  0.00  0.00    +0.012 C 
ATOM     11  C   UNL     1      -8.432 -10.017  17.581  0.00  0.00    +0.122 C 
ATOM     12  C   UNL     1      -7.941 -12.168  19.558  0.00  0.00    +0.007 C 
ATOM     13  C   UNL     1      -5.642 -12.553  18.658  0.00  0.00    +0.009 C 
ATOM     14  C   UNL     1      -9.590 -10.667  18.375  0.00  0.00    +0.029 C 
ATOM     15  C   UNL     1      -4.843 -11.409  16.540  0.00  0.00    +0.076 C 
ATOM     16  C   UNL     1      -9.142 -11.245  19.717  0.00  0.00    +0.007 C 
ATOM     17  C   UNL     1      -4.443 -12.036  17.876  0.00  0.00    +0.023 C 
ATOM     18  C   UNL     1      -6.203 -10.361  19.777  0.00  0.00    +0.011 C 
ATOM     20  C   UNL     1      -6.341  -9.830  15.269  0.00  0.00    +0.010 C 
ENDROOT
BRANCH  15   6
ATOM      4  O   UNL     1      -2.982 -12.780  14.813  0.00  0.00    -0.276 OA
ATOM      6  N   UNL     1      -3.657 -10.855  15.921  0.00  0.00    -0.312 N 
ATOM     23  C   UNL     1      -2.822 -11.598  15.103  0.00  0.00    +0.215 C 
ATOM     32  H   UNL     1      -3.400  -9.899  16.151  0.00  0.00    +0.149 HD
BRANCH  23  24
ATOM     24  C   UNL     1      -1.659 -10.762  14.591  0.00  0.00    +0.124 C 
BRANCH  24  26
ATOM     26  C   UNL     1      -1.848 -10.298  13.155  0.00  0.00    +0.168 C 
BRANCH  26   5
ATOM      5  O   UNL     1      -3.236 -10.223  12.861  0.00  0.00    -0.382 OA
ATOM     29  C   UNL     1      -3.470 -10.166  11.461  0.00  0.00    +0.194 C 
ENDBRANCH  26   5
ENDBRANCH  24  26
ENDBRANCH  23  24
ENDBRANCH  15   6
BRANCH  11   2
ATOM      2  O   UNL     1      -8.942  -9.725  16.280  0.00  0.00    -0.391 OA
ATOM     33  H   UNL     1      -9.280  -8.813  16.285  0.00  0.00    +0.210 HD
ENDBRANCH  11   2
BRANCH  14  19
ATOM     19  C   UNL     1     -10.747  -9.687  18.599  0.00  0.00    +0.077 C 
ATOM     21  C   UNL     1     -11.314  -9.856  20.004  0.00  0.00    +0.017 C 
BRANCH  19  22
ATOM      3  O   UNL     1     -12.647 -10.808  17.601  0.00  0.00    -0.276 OA
ATOM      7  N   UNL     1     -11.751  -8.966  16.514  0.00  0.00    -0.310 N 
ATOM     22  C   UNL     1     -11.822  -9.900  17.537  0.00  0.00    +0.216 C 
ATOM     34  H   UNL     1     -11.017  -8.263  16.530  0.00  0.00    +0.149 HD
BRANCH   7  25
ATOM     25  C   UNL     1     -12.662  -8.963  15.393  0.00  0.00    +0.146 C 
BRANCH  25  27
ATOM      1  S   UNL     1     -11.668  -6.374  15.242  0.00  0.00    -0.100 S 
ATOM     27  C   UNL     1     -12.689  -7.635  14.694  0.00  0.00    +0.007 A 
ATOM     28  C   UNL     1     -13.453  -7.249  13.615  0.00  0.00    +0.013 A 
ATOM     30  C   UNL     1     -13.197  -5.901  13.234  0.00  0.00    +0.008 A 
ATOM     31  C   UNL     1     -12.247  -5.307  14.035  0.00  0.00    +0.045 A 
ENDBRANCH  25  27
ENDBRANCH   7  25
ENDBRANCH  19  22
ENDBRANCH  14  19
TORSDOF 9
ENDMDL
MODEL 10
REMARK VINA RESULT:      -5.9     28.733     31.605
REMARK  Name = 45361598
REMARK  13 active torsions:
REMARK  status: ('A' for Active; 'I' for Inactive)
REMARK    1  A    between atoms: O_2  and  C_11
REMARK    2  A    between atoms: O_5  and  C_26
REMARK    3  A    between atoms: O_5  and  C_29
REMARK    4  A    between atoms: N_6  and  C_15
REMARK    5  A    between atoms: N_7  and  C_25
REMARK    6  A    between atoms: C_8  and  C_18
REMARK    7  A    between atoms: C_10  and  C_20
REMARK    8  A    between atoms: C_14  and  C_19
REMARK    9  A    between atoms: C_19  and  C_21
REMARK   10  A    between atoms: C_19  and  C_22
REMARK   11  A    between atoms: C_23  and  C_24
REMARK   12  A    between atoms: C_24  and  C_26
REMARK   13  A    between atoms: C_25  and  C_27
REMARK                            x       y       z     vdW  Elec       q    Type
REMARK                         _______ _______ _______ _____ _____    ______ ____
ROOT
ATOM      8  C   UNL     1       9.785   6.528   6.558  0.00  0.00    -0.027 C 
ATOM      9  C   UNL     1      10.290   7.463   5.409  0.00  0.00    +0.028 C 
ATOM     10  C   UNL     1      11.356   6.729   4.520  0.00  0.00    +0.012 C 
ATOM     11  C   UNL     1      10.723   8.852   5.962  0.00  0.00    +0.122 C 
ATOM     12  C   UNL     1       8.657   7.239   7.344  0.00  0.00    +0.007 C 
ATOM     13  C   UNL     1       9.187   5.244   5.936  0.00  0.00    +0.009 C 
ATOM     14  C   UNL     1       9.629   9.511   6.835  0.00  0.00    +0.029 C 
ATOM     15  C   UNL     1      10.770   5.402   3.961  0.00  0.00    +0.076 C 
ATOM     16  C   UNL     1       9.089   8.581   7.920  0.00  0.00    +0.007 C 
ATOM     17  C   UNL     1      10.169   4.502   5.040  0.00  0.00    +0.023 C 
ATOM     18  C   UNL     1      10.912   6.139   7.547  0.00  0.00    +0.011 C 
ATOM     20  C   UNL     1      11.877   7.583   3.351  0.00  0.00    +0.010 C 
ENDROOT
BRANCH  15   6
ATOM      4  O   UNL     1      10.391   3.976   1.481  0.00  0.00    -0.276 OA
ATOM      6  N   UNL     1      11.763   4.641   3.231  0.00  0.00    -0.312 N 
ATOM     23  C   UNL     1      11.482   3.988   2.042  0.00  0.00    +0.215 C 
ATOM     32  H   UNL     1      12.684   4.536   3.647  0.00  0.00    +0.149 HD
BRANCH  23  24
ATOM     24  C   UNL     1      12.710   3.274   1.498  0.00  0.00    +0.124 C 
BRANCH  24  26
ATOM     26  C   UNL     1      13.862   4.220   1.193  0.00  0.00    +0.168 C 
BRANCH  26   5
ATOM      5  O   UNL     1      13.345   5.501   0.859  0.00  0.00    -0.382 OA
ATOM     29  C   UNL     1      13.909   5.991  -0.349  0.00  0.00    +0.194 C 
ENDBRANCH  26   5
ENDBRANCH  24  26
ENDBRANCH  23  24
ENDBRANCH  15   6
BRANCH  11   2
ATOM      2  O   UNL     1      10.970   9.742   4.874  0.00  0.00    -0.391 OA
ATOM     33  H   UNL     1      11.061   9.212   4.064  0.00  0.00    +0.210 HD
ENDBRANCH  11   2
BRANCH  14  19
ATOM     19  C   UNL     1      10.122  10.814   7.475  0.00  0.00    +0.077 C 
ATOM     21  C   UNL     1      10.101  10.694   8.995  0.00  0.00    +0.017 C 
BRANCH  19  22
ATOM      3  O   UNL     1       9.258  13.074   7.565  0.00  0.00    -0.276 OA
ATOM      7  N   UNL     1       8.517  11.671   5.873  0.00  0.00    -0.310 N 
ATOM     22  C   UNL     1       9.267  11.984   6.998  0.00  0.00    +0.216 C 
ATOM     34  H   UNL     1       8.568  10.734   5.485  0.00  0.00    +0.149 HD
BRANCH   7  25
ATOM     25  C   UNL     1       7.629  12.616   5.238  0.00  0.00    +0.146 C 
BRANCH  25  27
ATOM      1  S   UNL     1       5.001  12.730   4.345  0.00  0.00    -0.100 S 
ATOM     27  C   UNL     1       6.507  11.932   4.511  0.00  0.00    +0.007 A 
ATOM     28  C   UNL     1       6.501  10.687   3.922  0.00  0.00    +0.013 A 
ATOM     30  C   UNL     1       5.243  10.384   3.326  0.00  0.00    +0.008 A 
ATOM     31  C   UNL     1       4.336  11.408   3.482  0.00  0.00    +0.045 A 
ENDBRANCH  25  27
ENDBRANCH   7  25
ENDBRANCH  19  22
ENDBRANCH  14  19
TORSDOF 9
ENDMDL
