REMARK  Name = 51138170
REMARK  8 active torsions:
REMARK  status: ('A' for Active; 'I' for Inactive)
REMARK    1  A    between atoms: O_1  and  C_22
REMARK    2  A    between atoms: N_3  and  C_8
REMARK    3  A    between atoms: C_5  and  C_8
REMARK    4  A    between atoms: C_11  and  C_17
REMARK    5  A    between atoms: CA_16  and  C_22
REMARK    6  A    between atoms: C_17  and  C_18
REMARK    7  A    between atoms: C_18  and  C_23
REMARK    8  A    between atoms: C_18  and  C_24
REMARK                            x       y       z     vdW  Elec       q    Type
REMARK                         _______ _______ _______ _____ _____    ______ ____
ROOT
ATOM      3  N   UNL     1       2.769   0.076  -0.707  0.00  0.00    -0.346 N 
ATOM      4  N   UNL     1      -2.242   0.540  -0.286  0.00  0.00    -0.297 NA
ATOM      9  C   UNL     1       0.633  -0.378  -0.207  0.00  0.00    +0.008 A 
ATOM     10  C   UNL     1       1.918  -0.925  -0.302  0.00  0.00    +0.050 A 
ATOM     11  C   UNL     1      -1.907  -0.745   0.342  0.00  0.00    +0.085 C 
ATOM     12  C   UNL     1       0.759   1.016  -0.536  0.00  0.00    -0.020 A 
ATOM     13  C   UNL     1      -0.456  -1.210   0.182  0.00  0.00    -0.021 A 
ATOM     14  C   UNL     1       2.085   1.248  -0.845  0.00  0.00    +0.090 A 
ATOM     15  C   UNL     1      -0.313   2.053  -0.558  0.00  0.00    +0.067 C 
ATOM     16  CA  UNL     1      -1.543   1.690   0.271  0.00  0.00    +0.168 C 
ATOM     19  C   UNL     1       2.209  -2.260  -0.014  0.00  0.00    +0.026 A 
ATOM     20  C   UNL     1      -0.132  -2.549   0.516  0.00  0.00    +0.006 A 
ATOM     21  C   UNL     1       1.159  -3.063   0.411  0.00  0.00    +0.002 A 
ATOM     25  H   UNL     1      -2.126   0.492  -1.298  0.00  0.00    +0.123 HD
ENDROOT
BRANCH  16  22
ATOM      2  OXT UNL     1      -3.402   2.939  -0.638  0.00  0.00    -0.249 OA
ATOM     22  C   UNL     1      -2.528   2.817   0.207  0.00  0.00    +0.322 C 
BRANCH  22   1
ATOM      1  O   UNL     1      -2.318   3.693   1.220  0.00  0.00    -0.480 OA
ATOM     26  H   UNL     1      -2.954   4.440   1.196  0.00  0.00    +0.295 HD
ENDBRANCH  22   1
ENDBRANCH  16  22
BRANCH   3   8
ATOM      8  C   UNL     1       4.190  -0.068  -0.939  0.00  0.00    +0.125 C 
BRANCH   8   5
ATOM      5  C   UNL     1       4.947  -0.138   0.350  0.00  0.00    +0.009 C 
ATOM      6  C   UNL     1       5.218   1.126   1.112  0.00  0.00    +0.005 C 
ATOM      7  C   UNL     1       6.340   0.417   0.413  0.00  0.00    +0.005 C 
ENDBRANCH   8   5
ENDBRANCH   3   8
BRANCH  11  17
ATOM     17  C   UNL     1      -2.916  -1.744  -0.254  0.00  0.00    +0.026 C 
BRANCH  17  18
ATOM     18  C   UNL     1      -4.314  -1.619   0.358  0.00  0.00    -0.015 C 
ATOM     23  C   UNL     1      -5.229  -2.684  -0.252  0.00  0.00    +0.007 C 
ATOM     24  C   UNL     1      -4.926  -0.233   0.153  0.00  0.00    +0.007 C 
ENDBRANCH  17  18
ENDBRANCH  11  17
TORSDOF 6
