REMARK  Name = 45784187
REMARK  4 active torsions:
REMARK  status: ('A' for Active; 'I' for Inactive)
REMARK    1  A    between atoms: N_4  and  C_10
REMARK    2  A    between atoms: C_6  and  C_11
REMARK    3  A    between atoms: C_10  and  C_12
REMARK    4  A    between atoms: C_19  and  C_24
REMARK                            x       y       z     vdW  Elec       q    Type
REMARK                         _______ _______ _______ _____ _____    ______ ____
ROOT
ATOM      4  N   UNL     1      -1.368  -0.406  -0.195  0.00  0.00    -0.297 NA
ATOM      6  C   UNL     1       0.820  -0.908   0.484  0.00  0.00    +0.090 C 
ATOM      7  C   UNL     1       0.083  -0.176   1.620  0.00  0.00    +0.029 C 
ATOM      8  C   UNL     1      -0.042  -0.658  -0.761  0.00  0.00    +0.097 C 
ATOM      9  C   UNL     1      -1.128   0.466   0.955  0.00  0.00    +0.085 C 
ENDROOT
BRANCH   6  11
ATOM      3  O   UNL     1       3.186  -1.489   0.436  0.00  0.00    -0.439 OA
ATOM      5  N   UNL     1       2.743   0.693   0.011  0.00  0.00    -0.213 NA
ATOM     11  C   UNL     1       2.262  -0.498   0.295  0.00  0.00    +0.201 A 
ATOM     13  C   UNL     1       4.099   0.482  -0.042  0.00  0.00    +0.110 A 
ATOM     14  C   UNL     1       4.375  -0.853   0.218  0.00  0.00    +0.155 A 
ATOM     17  C   UNL     1       5.165   1.355  -0.301  0.00  0.00    +0.035 A 
ATOM     18  C   UNL     1       5.648  -1.409   0.242  0.00  0.00    +0.049 A 
ATOM     19  C   UNL     1       6.466   0.831  -0.284  0.00  0.00    -0.048 A 
ATOM     20  C   UNL     1       6.700  -0.524  -0.018  0.00  0.00    +0.007 A 
ATOM     24  C   UNL     1       7.622   1.736  -0.556  0.00  0.00    +0.044 C 
ENDBRANCH   6  11
BRANCH   4  10
ATOM     10  C   UNL     1      -2.280   0.189  -1.160  0.00  0.00    +0.119 C 
BRANCH  10  12
ATOM      1  F   UNL     1      -6.391   2.056   0.694  0.00  0.00    -0.202 F 
ATOM      2  F   UNL     1      -7.660  -0.351   0.426  0.00  0.00    -0.202 F 
ATOM     12  C   UNL     1      -3.718   0.044  -0.736  0.00  0.00    -0.030 A 
ATOM     15  C   UNL     1      -4.402   1.138  -0.207  0.00  0.00    +0.046 A 
ATOM     16  C   UNL     1      -4.366  -1.184  -0.874  0.00  0.00    +0.008 A 
ATOM     21  C   UNL     1      -5.734   1.005   0.186  0.00  0.00    +0.159 A 
ATOM     22  C   UNL     1      -5.698  -1.317  -0.481  0.00  0.00    +0.041 A 
ATOM     23  C   UNL     1      -6.382  -0.223   0.049  0.00  0.00    +0.158 A 
ENDBRANCH  10  12
ENDBRANCH   4  10
TORSDOF 3
