REMARK  Name = 45784229
REMARK  3 active torsions:
REMARK  status: ('A' for Active; 'I' for Inactive)
REMARK    1  A    between atoms: N_3  and  C_11
REMARK    2  A    between atoms: C_6  and  C_10
REMARK    3  A    between atoms: C_11  and  C_12
REMARK                            x       y       z     vdW  Elec       q    Type
REMARK                         _______ _______ _______ _____ _____    ______ ____
ROOT
ATOM      3  N   UNL     1      -1.659  -0.269  -0.141  0.00  0.00    -0.297 NA
ATOM      6  C   UNL     1       0.531  -0.750   0.542  0.00  0.00    +0.070 C 
ATOM      7  C   UNL     1      -0.186   0.054   1.641  0.00  0.00    +0.028 C 
ATOM      8  C   UNL     1      -0.342  -0.567  -0.706  0.00  0.00    +0.096 C 
ATOM      9  C   UNL     1      -1.399   0.667   0.952  0.00  0.00    +0.085 C 
ENDROOT
BRANCH   6  10
ATOM      2  F   UNL     1       7.758  -0.491  -0.151  0.00  0.00    -0.205 F 
ATOM      4  N   UNL     1       2.985  -1.273   0.473  0.00  0.00    -0.341 N 
ATOM      5  N   UNL     1       2.427   0.815  -0.045  0.00  0.00    -0.232 NA
ATOM     10  C   UNL     1       1.975  -0.366   0.314  0.00  0.00    +0.113 A 
ATOM     13  C   UNL     1       4.168  -0.635   0.198  0.00  0.00    +0.069 A 
ATOM     14  C   UNL     1       3.792   0.667  -0.123  0.00  0.00    +0.089 A 
ATOM     17  C   UNL     1       5.493  -1.072   0.202  0.00  0.00    +0.066 A 
ATOM     18  C   UNL     1       4.785   1.602  -0.462  0.00  0.00    +0.032 A 
ATOM     19  C   UNL     1       6.468  -0.128  -0.138  0.00  0.00    +0.125 A 
ATOM     20  C   UNL     1       6.122   1.186  -0.464  0.00  0.00    +0.040 A 
ATOM     24  H   UNL     1       2.883  -2.242   0.744  0.00  0.00    +0.167 HD
ENDBRANCH   6  10
BRANCH   3  11
ATOM     11  C   UNL     1      -2.577   0.276  -1.131  0.00  0.00    +0.119 C 
BRANCH  11  12
ATOM      1 CL   UNL     1      -8.306  -0.149   0.658  0.00  0.00    -0.084 Cl
ATOM     12  C   UNL     1      -4.011   0.171  -0.683  0.00  0.00    -0.033 A 
ATOM     15  C   UNL     1      -4.758  -0.965  -0.999  0.00  0.00    +0.006 A 
ATOM     16  C   UNL     1      -4.593   1.208   0.046  0.00  0.00    +0.006 A 
ATOM     21  C   UNL     1      -6.086  -1.063  -0.585  0.00  0.00    +0.020 A 
ATOM     22  C   UNL     1      -5.921   1.109   0.460  0.00  0.00    +0.020 A 
ATOM     23  C   UNL     1      -6.668  -0.026   0.144  0.00  0.00    +0.041 A 
ENDBRANCH  11  12
ENDBRANCH   3  11
TORSDOF 3
