MODEL 1
REMARK VINA RESULT:      -7.2      0.000      0.000
REMARK  Name = 11884055
REMARK  7 active torsions:
REMARK  status: ('A' for Active; 'I' for Inactive)
REMARK    1  A    between atoms: O_3  and  C_13
REMARK    2  A    between atoms: O_3  and  C_17
REMARK    3  A    between atoms: O_7  and  C_27
REMARK    4  A    between atoms: O_7  and  C_28
REMARK    5  A    between atoms: N_8  and  C_12
REMARK    6  A    between atoms: N_9  and  C_20
REMARK    7  A    between atoms: C_16  and  C_18
REMARK                            x       y       z     vdW  Elec       q    Type
REMARK                         _______ _______ _______ _____ _____    ______ ____
ROOT
ATOM      1  O   UNL     1      12.284  10.154  20.898  0.00  0.00    -0.368 OA
ATOM      2  O   UNL     1      10.464   8.093  22.256  0.00  0.00    -0.368 OA
ATOM     10  C   UNL     1      11.540   8.905  22.771  0.00  0.00    +0.173 C 
ATOM     11  C   UNL     1      12.588   8.987  21.680  0.00  0.00    +0.192 C 
ATOM     12  C   UNL     1      11.078  10.334  22.939  0.00  0.00    +0.130 C 
ATOM     13  C   UNL     1      12.352   7.715  20.903  0.00  0.00    +0.235 C 
ATOM     14  C   UNL     1      11.223  10.887  21.531  0.00  0.00    +0.185 C 
ATOM     15  C   UNL     1      10.849   7.571  20.975  0.00  0.00    +0.207 C 
ENDROOT
BRANCH  12   8
ATOM      4  O   UNL     1      10.232  12.399  24.664  0.00  0.00    -0.267 OA
ATOM      8  N   UNL     1      11.914  11.048  23.872  0.00  0.00    -0.301 N 
ATOM     16  C   UNL     1      11.417  12.059  24.694  0.00  0.00    +0.280 C 
ATOM     29  H   UNL     1      12.886  10.767  23.969  0.00  0.00    +0.150 HD
BRANCH  16  18
ATOM      6  O   UNL     1      13.427  11.908  25.966  0.00  0.00    -0.458 OA
ATOM     18  C   UNL     1      12.385  12.670  25.616  0.00  0.00    +0.189 A 
ATOM     19  C   UNL     1      12.394  13.893  26.177  0.00  0.00    +0.054 A 
ATOM     21  C   UNL     1      13.566  13.914  26.969  0.00  0.00    +0.042 A 
ATOM     22  C   UNL     1      14.160  12.685  26.806  0.00  0.00    +0.196 A 
ENDBRANCH  16  18
ENDBRANCH  12   8
BRANCH  13   3
ATOM      3  O   UNL     1      12.817   7.774  19.573  0.00  0.00    -0.442 OA
BRANCH   3  17
ATOM      5  O   UNL     1      14.678   8.759  18.683  0.00  0.00    -0.226 OA
ATOM      9  N   UNL     1      14.829   6.920  20.122  0.00  0.00    -0.251 N 
ATOM     17  C   UNL     1      14.178   7.896  19.393  0.00  0.00    +0.405 C 
ATOM     30  H   UNL     1      14.238   6.288  20.657  0.00  0.00    +0.158 HD
BRANCH   9  20
ATOM     20  C   UNL     1      16.222   6.689  20.219  0.00  0.00    +0.037 A 
ATOM     23  C   UNL     1      16.929   7.239  21.277  0.00  0.00    +0.027 A 
ATOM     24  C   UNL     1      16.850   5.917  19.256  0.00  0.00    +0.027 A 
ATOM     25  C   UNL     1      18.301   7.011  21.373  0.00  0.00    +0.047 A 
ATOM     26  C   UNL     1      18.223   5.689  19.353  0.00  0.00    +0.047 A 
ATOM     27  C   UNL     1      18.948   6.236  20.411  0.00  0.00    +0.120 A 
BRANCH  27   7
ATOM      7  O   UNL     1      20.287   6.012  20.505  0.00  0.00    -0.495 OA
ATOM     28  C   UNL     1      20.728   4.659  20.400  0.00  0.00    +0.277 C 
ENDBRANCH  27   7
ENDBRANCH   9  20
ENDBRANCH   3  17
ENDBRANCH  13   3
TORSDOF 6
ENDMDL
MODEL 2
REMARK VINA RESULT:      -7.0     26.732     30.089
REMARK  Name = 11884055
REMARK  7 active torsions:
REMARK  status: ('A' for Active; 'I' for Inactive)
REMARK    1  A    between atoms: O_3  and  C_13
REMARK    2  A    between atoms: O_3  and  C_17
REMARK    3  A    between atoms: O_7  and  C_27
REMARK    4  A    between atoms: O_7  and  C_28
REMARK    5  A    between atoms: N_8  and  C_12
REMARK    6  A    between atoms: N_9  and  C_20
REMARK    7  A    between atoms: C_16  and  C_18
REMARK                            x       y       z     vdW  Elec       q    Type
REMARK                         _______ _______ _______ _____ _____    ______ ____
ROOT
ATOM      1  O   UNL     1     -16.597   4.619  25.581  0.00  0.00    -0.368 OA
ATOM      2  O   UNL     1     -17.553   2.174  23.996  0.00  0.00    -0.368 OA
ATOM     10  C   UNL     1     -16.564   2.311  25.038  0.00  0.00    +0.173 C 
ATOM     11  C   UNL     1     -15.873   3.641  24.814  0.00  0.00    +0.192 C 
ATOM     12  C   UNL     1     -17.240   2.474  26.378  0.00  0.00    +0.130 C 
ATOM     13  C   UNL     1     -16.046   3.853  23.330  0.00  0.00    +0.235 C 
ATOM     14  C   UNL     1     -17.580   3.955  26.390  0.00  0.00    +0.185 C 
ATOM     15  C   UNL     1     -17.419   3.271  23.081  0.00  0.00    +0.207 C 
ENDROOT
BRANCH  12   8
ATOM      4  O   UNL     1     -17.599   0.349  28.199  0.00  0.00    -0.267 OA
ATOM      8  N   UNL     1     -16.350   2.131  27.460  0.00  0.00    -0.301 N 
ATOM     16  C   UNL     1     -16.599   1.060  28.318  0.00  0.00    +0.280 C 
ATOM     29  H   UNL     1     -15.487   2.657  27.565  0.00  0.00    +0.150 HD
BRANCH  16  18
ATOM      6  O   UNL     1     -14.784  -0.239  29.154  0.00  0.00    -0.458 OA
ATOM     18  C   UNL     1     -15.582   0.817  29.351  0.00  0.00    +0.189 A 
ATOM     19  C   UNL     1     -15.318   1.493  30.484  0.00  0.00    +0.054 A 
ATOM     21  C   UNL     1     -14.237   0.796  31.072  0.00  0.00    +0.042 A 
ATOM     22  C   UNL     1     -13.948  -0.248  30.225  0.00  0.00    +0.196 A 
ENDBRANCH  16  18
ENDBRANCH  12   8
BRANCH  13   3
ATOM      3  O   UNL     1     -15.965   5.207  22.942  0.00  0.00    -0.442 OA
BRANCH   3  17
ATOM      5  O   UNL     1     -15.726   4.930  20.684  0.00  0.00    -0.226 OA
ATOM      9  N   UNL     1     -14.372   6.409  21.893  0.00  0.00    -0.251 N 
ATOM     17  C   UNL     1     -15.374   5.473  21.724  0.00  0.00    +0.405 C 
ATOM     30  H   UNL     1     -14.226   6.746  22.841  0.00  0.00    +0.158 HD
BRANCH   9  20
ATOM     20  C   UNL     1     -13.520   6.958  20.906  0.00  0.00    +0.037 A 
ATOM     23  C   UNL     1     -12.157   6.716  20.975  0.00  0.00    +0.027 A 
ATOM     24  C   UNL     1     -14.064   7.727  19.891  0.00  0.00    +0.027 A 
ATOM     25  C   UNL     1     -11.316   7.257  20.002  0.00  0.00    +0.047 A 
ATOM     26  C   UNL     1     -13.223   8.269  18.918  0.00  0.00    +0.047 A 
ATOM     27  C   UNL     1     -11.850   8.033  18.975  0.00  0.00    +0.120 A 
BRANCH  27   7
ATOM      7  O   UNL     1     -11.030   8.560  18.024  0.00  0.00    -0.495 OA
ATOM     28  C   UNL     1     -10.134   9.589  18.439  0.00  0.00    +0.277 C 
ENDBRANCH  27   7
ENDBRANCH   9  20
ENDBRANCH   3  17
ENDBRANCH  13   3
TORSDOF 6
ENDMDL
MODEL 3
REMARK VINA RESULT:      -6.8      3.110      8.910
REMARK  Name = 11884055
REMARK  7 active torsions:
REMARK  status: ('A' for Active; 'I' for Inactive)
REMARK    1  A    between atoms: O_3  and  C_13
REMARK    2  A    between atoms: O_3  and  C_17
REMARK    3  A    between atoms: O_7  and  C_27
REMARK    4  A    between atoms: O_7  and  C_28
REMARK    5  A    between atoms: N_8  and  C_12
REMARK    6  A    between atoms: N_9  and  C_20
REMARK    7  A    between atoms: C_16  and  C_18
REMARK                            x       y       z     vdW  Elec       q    Type
REMARK                         _______ _______ _______ _____ _____    ______ ____
ROOT
ATOM      1  O   UNL     1      13.986   8.931  20.324  0.00  0.00    -0.368 OA
ATOM      2  O   UNL     1      12.411   6.710  18.913  0.00  0.00    -0.368 OA
ATOM     10  C   UNL     1      12.674   8.080  18.542  0.00  0.00    +0.173 C 
ATOM     11  C   UNL     1      12.640   8.894  19.819  0.00  0.00    +0.192 C 
ATOM     12  C   UNL     1      14.097   8.223  18.058  0.00  0.00    +0.130 C 
ATOM     13  C   UNL     1      11.732   8.076  20.705  0.00  0.00    +0.235 C 
ATOM     14  C   UNL     1      14.871   8.339  19.360  0.00  0.00    +0.185 C 
ATOM     15  C   UNL     1      12.091   6.661  20.311  0.00  0.00    +0.207 C 
ENDROOT
BRANCH  12   8
ATOM      4  O   UNL     1      13.781   8.351  15.258  0.00  0.00    -0.267 OA
ATOM      8  N   UNL     1      14.258   9.402  17.244  0.00  0.00    -0.301 N 
ATOM     16  C   UNL     1      14.082   9.384  15.861  0.00  0.00    +0.280 C 
ATOM     29  H   UNL     1      14.457  10.287  17.704  0.00  0.00    +0.150 HD
BRANCH  16  18
ATOM      6  O   UNL     1      13.224  11.071  14.413  0.00  0.00    -0.458 OA
ATOM     18  C   UNL     1      14.249  10.673  15.175  0.00  0.00    +0.189 A 
ATOM     19  C   UNL     1      15.283  11.534  15.188  0.00  0.00    +0.054 A 
ATOM     21  C   UNL     1      14.875  12.594  14.345  0.00  0.00    +0.042 A 
ATOM     22  C   UNL     1      13.616  12.266  13.899  0.00  0.00    +0.196 A 
ENDBRANCH  16  18
ENDBRANCH  12   8
BRANCH  13   3
ATOM      3  O   UNL     1      11.928   8.310  22.082  0.00  0.00    -0.442 OA
BRANCH   3  17
ATOM      5  O   UNL     1       9.974   9.308  22.725  0.00  0.00    -0.226 OA
ATOM      9  N   UNL     1      12.052  10.321  23.093  0.00  0.00    -0.251 N 
ATOM     17  C   UNL     1      11.196   9.331  22.651  0.00  0.00    +0.405 C 
ATOM     30  H   UNL     1      13.044  10.158  22.941  0.00  0.00    +0.158 HD
BRANCH   9  20
ATOM     20  C   UNL     1      11.718  11.537  23.734  0.00  0.00    +0.037 A 
ATOM     23  C   UNL     1      11.957  12.736  23.080  0.00  0.00    +0.027 A 
ATOM     24  C   UNL     1      11.158  11.506  25.000  0.00  0.00    +0.027 A 
ATOM     25  C   UNL     1      11.628  13.936  23.711  0.00  0.00    +0.047 A 
ATOM     26  C   UNL     1      10.829  12.707  25.631  0.00  0.00    +0.047 A 
ATOM     27  C   UNL     1      11.064  13.920  24.986  0.00  0.00    +0.120 A 
BRANCH  27   7
ATOM      7  O   UNL     1      10.741  15.091  25.601  0.00  0.00    -0.495 OA
ATOM     28  C   UNL     1      11.216  15.276  26.934  0.00  0.00    +0.277 C 
ENDBRANCH  27   7
ENDBRANCH   9  20
ENDBRANCH   3  17
ENDBRANCH  13   3
TORSDOF 6
ENDMDL
MODEL 4
REMARK VINA RESULT:      -6.7      1.686      8.513
REMARK  Name = 11884055
REMARK  7 active torsions:
REMARK  status: ('A' for Active; 'I' for Inactive)
REMARK    1  A    between atoms: O_3  and  C_13
REMARK    2  A    between atoms: O_3  and  C_17
REMARK    3  A    between atoms: O_7  and  C_27
REMARK    4  A    between atoms: O_7  and  C_28
REMARK    5  A    between atoms: N_8  and  C_12
REMARK    6  A    between atoms: N_9  and  C_20
REMARK    7  A    between atoms: C_16  and  C_18
REMARK                            x       y       z     vdW  Elec       q    Type
REMARK                         _______ _______ _______ _____ _____    ______ ____
ROOT
ATOM      1  O   UNL     1      12.728   7.910  21.804  0.00  0.00    -0.368 OA
ATOM      2  O   UNL     1      12.518   8.105  18.750  0.00  0.00    -0.368 OA
ATOM     10  C   UNL     1      13.651   8.202  19.639  0.00  0.00    +0.173 C 
ATOM     11  C   UNL     1      13.172   8.921  20.884  0.00  0.00    +0.192 C 
ATOM     12  C   UNL     1      14.037   6.830  20.139  0.00  0.00    +0.130 C 
ATOM     13  C   UNL     1      12.021   9.747  20.361  0.00  0.00    +0.235 C 
ATOM     14  C   UNL     1      13.056   6.614  21.279  0.00  0.00    +0.185 C 
ATOM     15  C   UNL     1      11.419   8.832  19.319  0.00  0.00    +0.207 C 
ENDROOT
BRANCH  12   8
ATOM      4  O   UNL     1      16.264   5.871  18.697  0.00  0.00    -0.267 OA
ATOM      8  N   UNL     1      15.401   6.808  20.609  0.00  0.00    -0.301 N 
ATOM     16  C   UNL     1      16.449   6.317  19.832  0.00  0.00    +0.280 C 
ATOM     29  H   UNL     1      15.608   7.213  21.519  0.00  0.00    +0.150 HD
BRANCH  16  18
ATOM      6  O   UNL     1      17.911   7.209  21.489  0.00  0.00    -0.458 OA
ATOM     18  C   UNL     1      17.786   6.393  20.437  0.00  0.00    +0.189 A 
ATOM     19  C   UNL     1      18.927   5.765  20.098  0.00  0.00    +0.054 A 
ATOM     21  C   UNL     1      19.882   6.229  21.034  0.00  0.00    +0.042 A 
ATOM     22  C   UNL     1      19.214   7.104  21.859  0.00  0.00    +0.196 A 
ENDBRANCH  16  18
ENDBRANCH  12   8
BRANCH  13   3
ATOM      3  O   UNL     1      11.088  10.105  21.356  0.00  0.00    -0.442 OA
BRANCH   3  17
ATOM      5  O   UNL     1      11.351  12.377  21.335  0.00  0.00    -0.226 OA
ATOM      9  N   UNL     1      11.322  11.160  23.335  0.00  0.00    -0.251 N 
ATOM     17  C   UNL     1      11.265  11.330  21.965  0.00  0.00    +0.405 C 
ATOM     30  H   UNL     1      11.229  10.206  23.674  0.00  0.00    +0.158 HD
BRANCH   9  20
ATOM     20  C   UNL     1      11.493  12.153  24.328  0.00  0.00    +0.037 A 
ATOM     23  C   UNL     1      10.430  12.982  24.650  0.00  0.00    +0.027 A 
ATOM     24  C   UNL     1      12.720  12.276  24.960  0.00  0.00    +0.027 A 
ATOM     25  C   UNL     1      10.598  13.960  25.630  0.00  0.00    +0.047 A 
ATOM     26  C   UNL     1      12.888  13.255  25.940  0.00  0.00    +0.047 A 
ATOM     27  C   UNL     1      11.827  14.096  26.274  0.00  0.00    +0.120 A 
BRANCH  27   7
ATOM      7  O   UNL     1      11.992  15.049  27.231  0.00  0.00    -0.495 OA
ATOM     28  C   UNL     1      13.176  14.976  28.024  0.00  0.00    +0.277 C 
ENDBRANCH  27   7
ENDBRANCH   9  20
ENDBRANCH   3  17
ENDBRANCH  13   3
TORSDOF 6
ENDMDL
MODEL 5
REMARK VINA RESULT:      -6.6      2.415      4.855
REMARK  Name = 11884055
REMARK  7 active torsions:
REMARK  status: ('A' for Active; 'I' for Inactive)
REMARK    1  A    between atoms: O_3  and  C_13
REMARK    2  A    between atoms: O_3  and  C_17
REMARK    3  A    between atoms: O_7  and  C_27
REMARK    4  A    between atoms: O_7  and  C_28
REMARK    5  A    between atoms: N_8  and  C_12
REMARK    6  A    between atoms: N_9  and  C_20
REMARK    7  A    between atoms: C_16  and  C_18
REMARK                            x       y       z     vdW  Elec       q    Type
REMARK                         _______ _______ _______ _____ _____    ______ ____
ROOT
ATOM      1  O   UNL     1      16.170   9.211  20.028  0.00  0.00    -0.368 OA
ATOM      2  O   UNL     1      14.730   6.503  20.039  0.00  0.00    -0.368 OA
ATOM     10  C   UNL     1      14.580   7.669  20.876  0.00  0.00    +0.173 C 
ATOM     11  C   UNL     1      15.967   8.247  21.075  0.00  0.00    +0.192 C 
ATOM     12  C   UNL     1      13.840   8.753  20.129  0.00  0.00    +0.130 C 
ATOM     13  C   UNL     1      16.853   7.037  20.903  0.00  0.00    +0.235 C 
ATOM     14  C   UNL     1      14.944   9.387  19.301  0.00  0.00    +0.185 C 
ATOM     15  C   UNL     1      16.128   6.262  19.826  0.00  0.00    +0.207 C 
ENDROOT
BRANCH  12   8
ATOM      4  O   UNL     1      11.079   9.107  20.590  0.00  0.00    -0.267 OA
ATOM      8  N   UNL     1      13.251   9.707  21.037  0.00  0.00    -0.301 N 
ATOM     16  C   UNL     1      11.872   9.819  21.210  0.00  0.00    +0.280 C 
ATOM     29  H   UNL     1      13.868  10.281  21.607  0.00  0.00    +0.150 HD
BRANCH  16  18
ATOM      6  O   UNL     1      11.171  10.354  23.424  0.00  0.00    -0.458 OA
ATOM     18  C   UNL     1      11.428  10.815  22.195  0.00  0.00    +0.189 A 
ATOM     19  C   UNL     1      11.231  12.139  22.060  0.00  0.00    +0.054 A 
ATOM     21  C   UNL     1      10.805  12.569  23.338  0.00  0.00    +0.042 A 
ATOM     22  C   UNL     1      10.786  11.447  24.133  0.00  0.00    +0.196 A 
ENDBRANCH  16  18
ENDBRANCH  12   8
BRANCH  13   3
ATOM      3  O   UNL     1      18.175   7.356  20.529  0.00  0.00    -0.442 OA
BRANCH   3  17
ATOM      5  O   UNL     1      19.314   6.720  22.407  0.00  0.00    -0.226 OA
ATOM      9  N   UNL     1      19.980   6.030  20.271  0.00  0.00    -0.251 N 
ATOM     17  C   UNL     1      19.187   6.692  21.189  0.00  0.00    +0.405 C 
ATOM     30  H   UNL     1      19.712   6.127  19.295  0.00  0.00    +0.158 HD
BRANCH   9  20
ATOM     20  C   UNL     1      21.121   5.233  20.521  0.00  0.00    +0.037 A 
ATOM     23  C   UNL     1      20.956   3.898  20.858  0.00  0.00    +0.027 A 
ATOM     24  C   UNL     1      22.380   5.801  20.425  0.00  0.00    +0.027 A 
ATOM     25  C   UNL     1      22.081   3.112  21.104  0.00  0.00    +0.047 A 
ATOM     26  C   UNL     1      23.505   5.014  20.672  0.00  0.00    +0.047 A 
ATOM     27  C   UNL     1      23.355   3.670  21.011  0.00  0.00    +0.120 A 
BRANCH  27   7
ATOM      7  O   UNL     1      24.453   2.902  21.250  0.00  0.00    -0.495 OA
ATOM     28  C   UNL     1      24.265   1.487  21.265  0.00  0.00    +0.277 C 
ENDBRANCH  27   7
ENDBRANCH   9  20
ENDBRANCH   3  17
ENDBRANCH  13   3
TORSDOF 6
ENDMDL
MODEL 6
REMARK VINA RESULT:      -6.6     26.830     29.060
REMARK  Name = 11884055
REMARK  7 active torsions:
REMARK  status: ('A' for Active; 'I' for Inactive)
REMARK    1  A    between atoms: O_3  and  C_13
REMARK    2  A    between atoms: O_3  and  C_17
REMARK    3  A    between atoms: O_7  and  C_27
REMARK    4  A    between atoms: O_7  and  C_28
REMARK    5  A    between atoms: N_8  and  C_12
REMARK    6  A    between atoms: N_9  and  C_20
REMARK    7  A    between atoms: C_16  and  C_18
REMARK                            x       y       z     vdW  Elec       q    Type
REMARK                         _______ _______ _______ _____ _____    ______ ____
ROOT
ATOM      1  O   UNL     1      -3.978 -12.132  14.584  0.00  0.00    -0.368 OA
ATOM      2  O   UNL     1      -2.137 -10.815  16.654  0.00  0.00    -0.368 OA
ATOM     10  C   UNL     1      -3.476 -10.493  16.222  0.00  0.00    +0.173 C 
ATOM     11  C   UNL     1      -3.537 -10.772  14.734  0.00  0.00    +0.192 C 
ATOM     12  C   UNL     1      -4.463 -11.471  16.815  0.00  0.00    +0.130 C 
ATOM     13  C   UNL     1      -2.098 -10.599  14.311  0.00  0.00    +0.235 C 
ATOM     14  C   UNL     1      -4.352 -12.654  15.868  0.00  0.00    +0.185 C 
ATOM     15  C   UNL     1      -1.346 -11.146  15.503  0.00  0.00    +0.207 C 
ENDROOT
BRANCH  12   8
ATOM      4  O   UNL     1      -5.911 -10.691  19.106  0.00  0.00    -0.267 OA
ATOM      8  N   UNL     1      -5.799 -10.928  16.824  0.00  0.00    -0.301 N 
ATOM     16  C   UNL     1      -6.448 -10.565  18.003  0.00  0.00    +0.280 C 
ATOM     29  H   UNL     1      -6.261 -10.758  15.934  0.00  0.00    +0.150 HD
BRANCH  16  18
ATOM      6  O   UNL     1      -7.891  -8.926  17.048  0.00  0.00    -0.458 OA
ATOM     18  C   UNL     1      -7.793  -9.995  17.846  0.00  0.00    +0.189 A 
ATOM     19  C   UNL     1      -8.965 -10.380  18.383  0.00  0.00    +0.054 A 
ATOM     21  C   UNL     1      -9.911  -9.459  17.875  0.00  0.00    +0.042 A 
ATOM     22  C   UNL     1      -9.208  -8.596  17.068  0.00  0.00    +0.196 A 
ENDBRANCH  16  18
ENDBRANCH  12   8
BRANCH  13   3
ATOM      3  O   UNL     1      -1.776 -11.284  13.120  0.00  0.00    -0.442 OA
BRANCH   3  17
ATOM      5  O   UNL     1      -1.364  -9.737  11.487  0.00  0.00    -0.226 OA
ATOM      9  N   UNL     1      -3.209 -11.175  11.383  0.00  0.00    -0.251 N 
ATOM     17  C   UNL     1      -2.060 -10.640  11.935  0.00  0.00    +0.405 C 
ATOM     30  H   UNL     1      -3.651 -11.926  11.907  0.00  0.00    +0.158 HD
BRANCH   9  20
ATOM     20  C   UNL     1      -3.848 -10.806  10.176  0.00  0.00    +0.037 A 
ATOM     23  C   UNL     1      -4.097 -11.775   9.217  0.00  0.00    +0.027 A 
ATOM     24  C   UNL     1      -4.214  -9.485   9.978  0.00  0.00    +0.027 A 
ATOM     25  C   UNL     1      -4.728 -11.412   8.027  0.00  0.00    +0.047 A 
ATOM     26  C   UNL     1      -4.845  -9.122   8.788  0.00  0.00    +0.047 A 
ATOM     27  C   UNL     1      -5.101 -10.086   7.813  0.00  0.00    +0.120 A 
BRANCH  27   7
ATOM      7  O   UNL     1      -5.719  -9.732   6.653  0.00  0.00    -0.495 OA
ATOM     28  C   UNL     1      -5.848 -10.741   5.652  0.00  0.00    +0.277 C 
ENDBRANCH  27   7
ENDBRANCH   9  20
ENDBRANCH   3  17
ENDBRANCH  13   3
TORSDOF 6
ENDMDL
MODEL 7
REMARK VINA RESULT:      -6.5     27.502     29.187
REMARK  Name = 11884055
REMARK  7 active torsions:
REMARK  status: ('A' for Active; 'I' for Inactive)
REMARK    1  A    between atoms: O_3  and  C_13
REMARK    2  A    between atoms: O_3  and  C_17
REMARK    3  A    between atoms: O_7  and  C_27
REMARK    4  A    between atoms: O_7  and  C_28
REMARK    5  A    between atoms: N_8  and  C_12
REMARK    6  A    between atoms: N_9  and  C_20
REMARK    7  A    between atoms: C_16  and  C_18
REMARK                            x       y       z     vdW  Elec       q    Type
REMARK                         _______ _______ _______ _____ _____    ______ ____
ROOT
ATOM      1  O   UNL     1      -6.817 -11.544  16.937  0.00  0.00    -0.368 OA
ATOM      2  O   UNL     1      -6.431 -10.934  19.918  0.00  0.00    -0.368 OA
ATOM     10  C   UNL     1      -6.978 -10.142  18.843  0.00  0.00    +0.173 C 
ATOM     11  C   UNL     1      -6.159 -10.455  17.607  0.00  0.00    +0.192 C 
ATOM     12  C   UNL     1      -8.364 -10.629  18.493  0.00  0.00    +0.130 C 
ATOM     13  C   UNL     1      -4.833 -10.876  18.191  0.00  0.00    +0.235 C 
ATOM     14  C   UNL     1      -8.071 -11.811  17.584  0.00  0.00    +0.185 C 
ATOM     15  C   UNL     1      -5.254 -11.607  19.446  0.00  0.00    +0.207 C 
ENDROOT
BRANCH  12   8
ATOM      4  O   UNL     1     -11.128 -10.143  18.782  0.00  0.00    -0.267 OA
ATOM      8  N   UNL     1      -9.118  -9.611  17.803  0.00  0.00    -0.301 N 
ATOM     16  C   UNL     1     -10.487  -9.434  18.003  0.00  0.00    +0.280 C 
ATOM     29  H   UNL     1      -8.623  -8.970  17.190  0.00  0.00    +0.150 HD
BRANCH  16  18
ATOM      6  O   UNL     1     -10.383  -7.215  17.140  0.00  0.00    -0.458 OA
ATOM     18  C   UNL     1     -11.108  -8.333  17.253  0.00  0.00    +0.189 A 
ATOM     19  C   UNL     1     -12.309  -8.265  16.650  0.00  0.00    +0.054 A 
ATOM     21  C   UNL     1     -12.356  -6.965  16.094  0.00  0.00    +0.042 A 
ATOM     22  C   UNL     1     -11.161  -6.367  16.418  0.00  0.00    +0.196 A 
ENDBRANCH  16  18
ENDBRANCH  12   8
BRANCH  13   3
ATOM      3  O   UNL     1      -4.073 -11.694  17.330  0.00  0.00    -0.442 OA
BRANCH   3  17
ATOM      5  O   UNL     1      -2.434 -10.417  16.374  0.00  0.00    -0.226 OA
ATOM      9  N   UNL     1      -4.183 -11.322  15.109  0.00  0.00    -0.251 N 
ATOM     17  C   UNL     1      -3.461 -11.075  16.260  0.00  0.00    +0.405 C 
ATOM     30  H   UNL     1      -5.016 -11.896  15.216  0.00  0.00    +0.158 HD
BRANCH   9  20
ATOM     20  C   UNL     1      -3.907 -10.876  13.795  0.00  0.00    +0.037 A 
ATOM     23  C   UNL     1      -4.915 -10.276  13.057  0.00  0.00    +0.027 A 
ATOM     24  C   UNL     1      -2.635 -11.046  13.274  0.00  0.00    +0.027 A 
ATOM     25  C   UNL     1      -4.643  -9.835  11.762  0.00  0.00    +0.047 A 
ATOM     26  C   UNL     1      -2.364 -10.605  11.979  0.00  0.00    +0.047 A 
ATOM     27  C   UNL     1      -3.367 -10.000  11.223  0.00  0.00    +0.120 A 
BRANCH  27   7
ATOM      7  O   UNL     1      -3.101  -9.568   9.960  0.00  0.00    -0.495 OA
ATOM     28  C   UNL     1      -4.178  -8.972   9.238  0.00  0.00    +0.277 C 
ENDBRANCH  27   7
ENDBRANCH   9  20
ENDBRANCH   3  17
ENDBRANCH  13   3
TORSDOF 6
ENDMDL
MODEL 8
REMARK VINA RESULT:      -6.3      4.392      7.034
REMARK  Name = 11884055
REMARK  7 active torsions:
REMARK  status: ('A' for Active; 'I' for Inactive)
REMARK    1  A    between atoms: O_3  and  C_13
REMARK    2  A    between atoms: O_3  and  C_17
REMARK    3  A    between atoms: O_7  and  C_27
REMARK    4  A    between atoms: O_7  and  C_28
REMARK    5  A    between atoms: N_8  and  C_12
REMARK    6  A    between atoms: N_9  and  C_20
REMARK    7  A    between atoms: C_16  and  C_18
REMARK                            x       y       z     vdW  Elec       q    Type
REMARK                         _______ _______ _______ _____ _____    ______ ____
ROOT
ATOM      1  O   UNL     1      14.074  10.069  18.165  0.00  0.00    -0.368 OA
ATOM      2  O   UNL     1      12.457   7.858  16.786  0.00  0.00    -0.368 OA
ATOM     10  C   UNL     1      12.359   9.296  16.722  0.00  0.00    +0.173 C 
ATOM     11  C   UNL     1      12.659   9.819  18.112  0.00  0.00    +0.192 C 
ATOM     12  C   UNL     1      13.476   9.856  15.874  0.00  0.00    +0.130 C 
ATOM     13  C   UNL     1      12.262   8.658  18.990  0.00  0.00    +0.235 C 
ATOM     14  C   UNL     1      14.636   9.895  16.854  0.00  0.00    +0.185 C 
ATOM     15  C   UNL     1      12.669   7.468  18.151  0.00  0.00    +0.207 C 
ENDROOT
BRANCH  12   8
ATOM      4  O   UNL     1      14.756  11.184  13.739  0.00  0.00    -0.267 OA
ATOM      8  N   UNL     1      13.155  11.175  15.387  0.00  0.00    -0.301 N 
ATOM     16  C   UNL     1      13.837  11.763  14.322  0.00  0.00    +0.280 C 
ATOM     29  H   UNL     1      12.371  11.670  15.804  0.00  0.00    +0.150 HD
BRANCH  16  18
ATOM      6  O   UNL     1      13.865  14.128  14.618  0.00  0.00    -0.458 OA
ATOM     18  C   UNL     1      13.371  13.098  13.921  0.00  0.00    +0.189 A 
ATOM     19  C   UNL     1      12.513  13.461  12.951  0.00  0.00    +0.054 A 
ATOM     21  C   UNL     1      12.452  14.872  13.036  0.00  0.00    +0.042 A 
ATOM     22  C   UNL     1      13.292  15.229  14.065  0.00  0.00    +0.196 A 
ENDBRANCH  16  18
ENDBRANCH  12   8
BRANCH  13   3
ATOM      3  O   UNL     1      12.899   8.661  20.249  0.00  0.00    -0.442 OA
BRANCH   3  17
ATOM      5  O   UNL     1      13.516   6.577  20.960  0.00  0.00    -0.226 OA
ATOM      9  N   UNL     1      15.077   8.097  20.104  0.00  0.00    -0.251 N 
ATOM     17  C   UNL     1      13.821   7.664  20.485  0.00  0.00    +0.405 C 
ATOM     30  H   UNL     1      15.131   9.040  19.726  0.00  0.00    +0.158 HD
BRANCH   9  20
ATOM     20  C   UNL     1      16.300   7.391  20.176  0.00  0.00    +0.037 A 
ATOM     23  C   UNL     1      16.567   6.401  19.242  0.00  0.00    +0.027 A 
ATOM     24  C   UNL     1      17.207   7.702  21.175  0.00  0.00    +0.027 A 
ATOM     25  C   UNL     1      17.774   5.704  19.312  0.00  0.00    +0.047 A 
ATOM     26  C   UNL     1      18.413   7.005  21.244  0.00  0.00    +0.047 A 
ATOM     27  C   UNL     1      18.696   6.007  20.313  0.00  0.00    +0.120 A 
BRANCH  27   7
ATOM      7  O   UNL     1      19.874   5.328  20.380  0.00  0.00    -0.495 OA
ATOM     28  C   UNL     1      21.053   6.097  20.611  0.00  0.00    +0.277 C 
ENDBRANCH  27   7
ENDBRANCH   9  20
ENDBRANCH   3  17
ENDBRANCH  13   3
TORSDOF 6
ENDMDL
MODEL 9
REMARK VINA RESULT:      -6.3      2.257      9.245
REMARK  Name = 11884055
REMARK  7 active torsions:
REMARK  status: ('A' for Active; 'I' for Inactive)
REMARK    1  A    between atoms: O_3  and  C_13
REMARK    2  A    between atoms: O_3  and  C_17
REMARK    3  A    between atoms: O_7  and  C_27
REMARK    4  A    between atoms: O_7  and  C_28
REMARK    5  A    between atoms: N_8  and  C_12
REMARK    6  A    between atoms: N_9  and  C_20
REMARK    7  A    between atoms: C_16  and  C_18
REMARK                            x       y       z     vdW  Elec       q    Type
REMARK                         _______ _______ _______ _____ _____    ______ ____
ROOT
ATOM      1  O   UNL     1      15.418   6.208  20.573  0.00  0.00    -0.368 OA
ATOM      2  O   UNL     1      16.491   9.081  20.496  0.00  0.00    -0.368 OA
ATOM     10  C   UNL     1      17.038   7.871  21.061  0.00  0.00    +0.173 C 
ATOM     11  C   UNL     1      15.872   7.082  21.621  0.00  0.00    +0.192 C 
ATOM     12  C   UNL     1      17.581   6.985  19.964  0.00  0.00    +0.130 C 
ATOM     13  C   UNL     1      14.863   8.163  21.925  0.00  0.00    +0.235 C 
ATOM     14  C   UNL     1      16.329   6.285  19.464  0.00  0.00    +0.185 C 
ATOM     15  C   UNL     1      15.088   9.138  20.792  0.00  0.00    +0.207 C 
ENDROOT
BRANCH  12   8
ATOM      4  O   UNL     1      20.302   7.515  20.488  0.00  0.00    -0.267 OA
ATOM      8  N   UNL     1      18.541   6.040  20.481  0.00  0.00    -0.301 N 
ATOM     16  C   UNL     1      19.872   6.382  20.714  0.00  0.00    +0.280 C 
ATOM     29  H   UNL     1      18.220   5.108  20.731  0.00  0.00    +0.150 HD
BRANCH  16  18
ATOM      6  O   UNL     1      20.832   4.207  20.538  0.00  0.00    -0.458 OA
ATOM     18  C   UNL     1      20.719   5.319  21.274  0.00  0.00    +0.189 A 
ATOM     19  C   UNL     1      21.411   5.280  22.427  0.00  0.00    +0.054 A 
ATOM     21  C   UNL     1      22.032   4.008  22.428  0.00  0.00    +0.042 A 
ATOM     22  C   UNL     1      21.650   3.395  21.257  0.00  0.00    +0.196 A 
ENDBRANCH  16  18
ENDBRANCH  12   8
BRANCH  13   3
ATOM      3  O   UNL     1      13.532   7.695  21.966  0.00  0.00    -0.442 OA
BRANCH   3  17
ATOM      5  O   UNL     1      11.594   8.526  21.082  0.00  0.00    -0.226 OA
ATOM      9  N   UNL     1      12.785   9.677  22.736  0.00  0.00    -0.251 N 
ATOM     17  C   UNL     1      12.535   8.641  21.857  0.00  0.00    +0.405 C 
ATOM     30  H   UNL     1      13.624   9.592  23.304  0.00  0.00    +0.158 HD
BRANCH   9  20
ATOM     20  C   UNL     1      12.016  10.846  22.946  0.00  0.00    +0.037 A 
ATOM     23  C   UNL     1      11.377  11.029  24.162  0.00  0.00    +0.027 A 
ATOM     24  C   UNL     1      11.917  11.784  21.932  0.00  0.00    +0.027 A 
ATOM     25  C   UNL     1      10.619  12.181  24.369  0.00  0.00    +0.047 A 
ATOM     26  C   UNL     1      11.158  12.936  22.139  0.00  0.00    +0.047 A 
ATOM     27  C   UNL     1      10.509  13.134  23.357  0.00  0.00    +0.120 A 
BRANCH  27   7
ATOM      7  O   UNL     1       9.771  14.259  23.559  0.00  0.00    -0.495 OA
ATOM     28  C   UNL     1       9.035  14.762  22.445  0.00  0.00    +0.277 C 
ENDBRANCH  27   7
ENDBRANCH   9  20
ENDBRANCH   3  17
ENDBRANCH  13   3
TORSDOF 6
ENDMDL
MODEL 10
REMARK VINA RESULT:      -6.2      4.428      7.456
REMARK  Name = 11884055
REMARK  7 active torsions:
REMARK  status: ('A' for Active; 'I' for Inactive)
REMARK    1  A    between atoms: O_3  and  C_13
REMARK    2  A    between atoms: O_3  and  C_17
REMARK    3  A    between atoms: O_7  and  C_27
REMARK    4  A    between atoms: O_7  and  C_28
REMARK    5  A    between atoms: N_8  and  C_12
REMARK    6  A    between atoms: N_9  and  C_20
REMARK    7  A    between atoms: C_16  and  C_18
REMARK                            x       y       z     vdW  Elec       q    Type
REMARK                         _______ _______ _______ _____ _____    ______ ____
ROOT
ATOM      1  O   UNL     1      13.997   9.478  18.630  0.00  0.00    -0.368 OA
ATOM      2  O   UNL     1      11.929   7.716  20.052  0.00  0.00    -0.368 OA
ATOM     10  C   UNL     1      13.272   7.440  19.601  0.00  0.00    +0.173 C 
ATOM     11  C   UNL     1      13.459   8.187  18.296  0.00  0.00    +0.192 C 
ATOM     12  C   UNL     1      14.273   8.081  20.533  0.00  0.00    +0.130 C 
ATOM     13  C   UNL     1      12.047   8.287  17.772  0.00  0.00    +0.235 C 
ATOM     14  C   UNL     1      14.310   9.514  20.031  0.00  0.00    +0.185 C 
ATOM     15  C   UNL     1      11.247   8.474  19.041  0.00  0.00    +0.207 C 
ENDROOT
BRANCH  12   8
ATOM      4  O   UNL     1      16.597   8.831  21.946  0.00  0.00    -0.267 OA
ATOM      8  N   UNL     1      15.567   7.453  20.423  0.00  0.00    -0.301 N 
ATOM     16  C   UNL     1      16.670   7.884  21.160  0.00  0.00    +0.280 C 
ATOM     29  H   UNL     1      15.662   6.636  19.826  0.00  0.00    +0.150 HD
BRANCH  16  18
ATOM      6  O   UNL     1      18.917   7.409  21.797  0.00  0.00    -0.458 OA
ATOM     18  C   UNL     1      17.911   7.122  20.963  0.00  0.00    +0.189 A 
ATOM     19  C   UNL     1      18.207   6.166  20.064  0.00  0.00    +0.054 A 
ATOM     21  C   UNL     1      19.543   5.803  20.355  0.00  0.00    +0.042 A 
ATOM     22  C   UNL     1      19.929   6.586  21.417  0.00  0.00    +0.196 A 
ENDBRANCH  16  18
ENDBRANCH  12   8
BRANCH  13   3
ATOM      3  O   UNL     1      11.858   9.351  16.864  0.00  0.00    -0.442 OA
BRANCH   3  17
ATOM      5  O   UNL     1      13.078   8.565  15.097  0.00  0.00    -0.226 OA
ATOM      9  N   UNL     1      13.302  10.765  15.865  0.00  0.00    -0.251 N 
ATOM     17  C   UNL     1      12.789   9.482  15.856  0.00  0.00    +0.405 C 
ATOM     30  H   UNL     1      12.934  11.390  16.578  0.00  0.00    +0.158 HD
BRANCH   9  20
ATOM     20  C   UNL     1      14.277  11.319  15.003  0.00  0.00    +0.037 A 
ATOM     23  C   UNL     1      15.617  11.051  15.233  0.00  0.00    +0.027 A 
ATOM     24  C   UNL     1      13.873  12.118  13.946  0.00  0.00    +0.027 A 
ATOM     25  C   UNL     1      16.579  11.597  14.384  0.00  0.00    +0.047 A 
ATOM     26  C   UNL     1      14.836  12.664  13.096  0.00  0.00    +0.047 A 
ATOM     27  C   UNL     1      16.188  12.403  13.315  0.00  0.00    +0.120 A 
BRANCH  27   7
ATOM      7  O   UNL     1      17.126  12.935  12.485  0.00  0.00    -0.495 OA
ATOM     28  C   UNL     1      18.441  13.100  13.013  0.00  0.00    +0.277 C 
ENDBRANCH  27   7
ENDBRANCH   9  20
ENDBRANCH   3  17
ENDBRANCH  13   3
TORSDOF 6
ENDMDL
