MODEL 1
REMARK VINA RESULT:      -6.9      0.000      0.000
REMARK  Name = 11912162
REMARK  3 active torsions:
REMARK  status: ('A' for Active; 'I' for Inactive)
REMARK    1  A    between atoms: C_17  and  C_20
REMARK    2  A    between atoms: C_18  and  C_21
REMARK    3  A    between atoms: C_25  and  C_30
REMARK                            x       y       z     vdW  Elec       q    Type
REMARK                         _______ _______ _______ _____ _____    ______ ____
ROOT
ATOM      1  O   UNL     1      15.251   7.281  22.336  0.00  0.00    -0.267 OA
ATOM      2  O   UNL     1      11.142   7.661  19.474  0.00  0.00    -0.268 OA
ATOM      3  N   UNL     1      11.754   9.845  19.946  0.00  0.00    -0.295 N 
ATOM      4  N   UNL     1      14.395   9.320  21.591  0.00  0.00    -0.311 N 
ATOM      8  C   UNL     1      12.132  10.231  22.374  0.00  0.00    +0.027 C 
ATOM      9  C   UNL     1      13.451  11.486  20.716  0.00  0.00    +0.054 C 
ATOM     10  C   UNL     1      12.732  11.598  22.060  0.00  0.00    +0.018 C 
ATOM     11  C   UNL     1      11.137   9.817  21.273  0.00  0.00    +0.113 C 
ATOM     12  C   UNL     1      13.272   9.218  22.535  0.00  0.00    +0.130 C 
ATOM     13  C   UNL     1      12.437  11.109  19.616  0.00  0.00    +0.117 C 
ATOM     14  C   UNL     1      14.551  10.442  20.771  0.00  0.00    +0.027 A 
ATOM     15  C   UNL     1      15.643  10.570  19.999  0.00  0.00    +0.022 A 
ATOM     16  C   UNL     1      15.347   8.282  21.623  0.00  0.00    +0.259 A 
ATOM     17  C   UNL     1      11.733   8.690  19.142  0.00  0.00    +0.266 C 
ATOM     18  C   UNL     1      16.541   8.442  20.722  0.00  0.00    +0.047 A 
ATOM     19  C   UNL     1      16.654   9.551  19.977  0.00  0.00    +0.015 A 
ENDROOT
BRANCH  17  20
ATOM      5  N   UNL     1      13.772   8.405  17.952  0.00  0.00    -0.247 NA
ATOM      6  N   UNL     1      12.532   9.155  15.550  0.00  0.00    -0.259 NA
ATOM     20  C   UNL     1      12.471   8.738  17.889  0.00  0.00    +0.144 A 
ATOM     24  C   UNL     1      11.858   9.107  16.716  0.00  0.00    +0.143 A 
ATOM     27  C   UNL     1      14.446   8.454  16.786  0.00  0.00    +0.131 A 
ATOM     29  C   UNL     1      13.838   8.823  15.607  0.00  0.00    +0.130 A 
ENDBRANCH  17  20
BRANCH  18  21
ATOM     21  C   UNL     1      17.551   7.434  20.667  0.00  0.00    -0.011 A 
ATOM     22  C   UNL     1      18.604   7.448  21.581  0.00  0.00    +0.027 A 
ATOM     23  C   UNL     1      17.484   6.435  19.695  0.00  0.00    +0.009 A 
ATOM     25  C   UNL     1      19.590   6.463  21.524  0.00  0.00    +0.052 A 
ATOM     26  C   UNL     1      18.471   5.451  19.639  0.00  0.00    +0.002 A 
ATOM     28  C   UNL     1      19.523   5.464  20.553  0.00  0.00    +0.019 A 
BRANCH  25  30
ATOM      7  N   UNL     1      21.546   6.489  23.223  0.00  0.00    -0.191 NA
ATOM     30  C   UNL     1      20.669   6.477  22.462  0.00  0.00    +0.099 C 
ENDBRANCH  25  30
ENDBRANCH  18  21
TORSDOF 3
ENDMDL
MODEL 2
REMARK VINA RESULT:      -6.9     15.340     19.943
REMARK  Name = 11912162
REMARK  3 active torsions:
REMARK  status: ('A' for Active; 'I' for Inactive)
REMARK    1  A    between atoms: C_17  and  C_20
REMARK    2  A    between atoms: C_18  and  C_21
REMARK    3  A    between atoms: C_25  and  C_30
REMARK                            x       y       z     vdW  Elec       q    Type
REMARK                         _______ _______ _______ _____ _____    ______ ____
ROOT
ATOM      1  O   UNL     1      12.837   7.042   3.433  0.00  0.00    -0.267 OA
ATOM      2  O   UNL     1      13.091   7.820  -1.522  0.00  0.00    -0.268 OA
ATOM      3  N   UNL     1      13.931   5.684  -1.201  0.00  0.00    -0.295 N 
ATOM      4  N   UNL     1      13.516   5.406   1.914  0.00  0.00    -0.311 N 
ATOM      8  C   UNL     1      15.684   5.598   0.562  0.00  0.00    +0.027 C 
ATOM      9  C   UNL     1      14.194   3.667   0.223  0.00  0.00    +0.054 C 
ATOM     10  C   UNL     1      15.634   4.074   0.532  0.00  0.00    +0.018 C 
ATOM     11  C   UNL     1      15.251   6.175  -0.799  0.00  0.00    +0.113 C 
ATOM     12  C   UNL     1      14.798   6.097   1.711  0.00  0.00    +0.130 C 
ATOM     13  C   UNL     1      13.786   4.218  -1.160  0.00  0.00    +0.117 C 
ATOM     14  C   UNL     1      13.240   4.191   1.279  0.00  0.00    +0.027 A 
ATOM     15  C   UNL     1      12.114   3.518   1.566  0.00  0.00    +0.022 A 
ATOM     16  C   UNL     1      12.628   5.978   2.847  0.00  0.00    +0.259 A 
ATOM     17  C   UNL     1      12.907   6.602  -1.503  0.00  0.00    +0.266 C 
ATOM     18  C   UNL     1      11.362   5.214   3.119  0.00  0.00    +0.047 A 
ATOM     19  C   UNL     1      11.160   4.041   2.503  0.00  0.00    +0.015 A 
ENDROOT
BRANCH  17  20
ATOM      5  N   UNL     1      11.295   5.807  -3.060  0.00  0.00    -0.247 NA
ATOM      6  N   UNL     1       9.466   5.317  -0.991  0.00  0.00    -0.259 NA
ATOM     20  C   UNL     1      11.585   6.057  -1.772  0.00  0.00    +0.144 A 
ATOM     24  C   UNL     1      10.693   5.821  -0.754  0.00  0.00    +0.143 A 
ATOM     27  C   UNL     1      10.068   5.303  -3.297  0.00  0.00    +0.131 A 
ATOM     29  C   UNL     1       9.169   5.064  -2.281  0.00  0.00    +0.130 A 
ENDBRANCH  17  20
BRANCH  18  21
ATOM     21  C   UNL     1      10.387   5.722   4.031  0.00  0.00    -0.011 A 
ATOM     22  C   UNL     1      10.415   5.335   5.371  0.00  0.00    +0.027 A 
ATOM     23  C   UNL     1       9.407   6.606   3.581  0.00  0.00    +0.009 A 
ATOM     25  C   UNL     1       9.461   5.832   6.260  0.00  0.00    +0.052 A 
ATOM     26  C   UNL     1       8.454   7.102   4.470  0.00  0.00    +0.002 A 
ATOM     28  C   UNL     1       8.481   6.715   5.809  0.00  0.00    +0.019 A 
BRANCH  25  30
ATOM      7  N   UNL     1       9.511   5.111   8.748  0.00  0.00    -0.191 NA
ATOM     30  C   UNL     1       9.489   5.434   7.633  0.00  0.00    +0.099 C 
ENDBRANCH  25  30
ENDBRANCH  18  21
TORSDOF 3
ENDMDL
MODEL 3
REMARK VINA RESULT:      -6.6     25.740     28.293
REMARK  Name = 11912162
REMARK  3 active torsions:
REMARK  status: ('A' for Active; 'I' for Inactive)
REMARK    1  A    between atoms: C_17  and  C_20
REMARK    2  A    between atoms: C_18  and  C_21
REMARK    3  A    between atoms: C_25  and  C_30
REMARK                            x       y       z     vdW  Elec       q    Type
REMARK                         _______ _______ _______ _____ _____    ______ ____
ROOT
ATOM      1  O   UNL     1     -12.806   9.978  20.611  0.00  0.00    -0.267 OA
ATOM      2  O   UNL     1     -14.449  11.987  16.312  0.00  0.00    -0.268 OA
ATOM      3  N   UNL     1     -12.163  11.733  16.026  0.00  0.00    -0.295 N 
ATOM      4  N   UNL     1     -11.432  10.337  18.759  0.00  0.00    -0.311 N 
ATOM      8  C   UNL     1     -10.850  12.683  17.912  0.00  0.00    +0.027 C 
ATOM      9  C   UNL     1     -10.011  10.703  16.712  0.00  0.00    +0.054 C 
ATOM     10  C   UNL     1      -9.590  12.020  17.365  0.00  0.00    +0.018 C 
ATOM     11  C   UNL     1     -11.852  12.953  16.773  0.00  0.00    +0.113 C 
ATOM     12  C   UNL     1     -11.443  11.786  19.006  0.00  0.00    +0.130 C 
ATOM     13  C   UNL     1     -10.984  10.989  15.549  0.00  0.00    +0.117 C 
ATOM     14  C   UNL     1     -10.680   9.785  17.718  0.00  0.00    +0.027 A 
ATOM     15  C   UNL     1     -10.590   8.452  17.580  0.00  0.00    +0.022 A 
ATOM     16  C   UNL     1     -12.138   9.532  19.677  0.00  0.00    +0.259 A 
ATOM     17  C   UNL     1     -13.503  11.320  15.891  0.00  0.00    +0.266 C 
ATOM     18  C   UNL     1     -12.042   8.046  19.472  0.00  0.00    +0.047 A 
ATOM     19  C   UNL     1     -11.284   7.570  18.474  0.00  0.00    +0.015 A 
ENDROOT
BRANCH  17  20
ATOM      5  N   UNL     1     -13.749  10.035  13.905  0.00  0.00    -0.247 NA
ATOM      6  N   UNL     1     -14.170   7.704  15.407  0.00  0.00    -0.259 NA
ATOM     20  C   UNL     1     -13.741  10.036  15.249  0.00  0.00    +0.144 A 
ATOM     24  C   UNL     1     -13.948   8.898  15.991  0.00  0.00    +0.143 A 
ATOM     27  C   UNL     1     -13.971   8.841  13.322  0.00  0.00    +0.131 A 
ATOM     29  C   UNL     1     -14.178   7.696  14.059  0.00  0.00    +0.130 A 
ENDBRANCH  17  20
BRANCH  18  21
ATOM     21  C   UNL     1     -12.740   7.146  20.335  0.00  0.00    -0.011 A 
ATOM     22  C   UNL     1     -14.133   7.084  20.301  0.00  0.00    +0.027 A 
ATOM     23  C   UNL     1     -12.027   6.331  21.214  0.00  0.00    +0.009 A 
ATOM     25  C   UNL     1     -14.812   6.206  21.146  0.00  0.00    +0.052 A 
ATOM     26  C   UNL     1     -12.707   5.453  22.058  0.00  0.00    +0.002 A 
ATOM     28  C   UNL     1     -14.099   5.391  22.024  0.00  0.00    +0.019 A 
BRANCH  25  30
ATOM      7  N   UNL     1     -17.400   6.090  21.083  0.00  0.00    -0.191 NA
ATOM     30  C   UNL     1     -16.240   6.142  21.111  0.00  0.00    +0.099 C 
ENDBRANCH  25  30
ENDBRANCH  18  21
TORSDOF 3
ENDMDL
MODEL 4
REMARK VINA RESULT:      -6.5     17.538     20.815
REMARK  Name = 11912162
REMARK  3 active torsions:
REMARK  status: ('A' for Active; 'I' for Inactive)
REMARK    1  A    between atoms: C_17  and  C_20
REMARK    2  A    between atoms: C_18  and  C_21
REMARK    3  A    between atoms: C_25  and  C_30
REMARK                            x       y       z     vdW  Elec       q    Type
REMARK                         _______ _______ _______ _____ _____    ______ ____
ROOT
ATOM      1  O   UNL     1      12.240   7.716   2.782  0.00  0.00    -0.267 OA
ATOM      2  O   UNL     1      13.615   6.713  -1.944  0.00  0.00    -0.268 OA
ATOM      3  N   UNL     1      13.899   4.721  -0.795  0.00  0.00    -0.295 N 
ATOM      4  N   UNL     1      12.835   5.582   2.047  0.00  0.00    -0.311 N 
ATOM      8  C   UNL     1      15.214   4.999   1.297  0.00  0.00    +0.027 C 
ATOM      9  C   UNL     1      13.441   3.294   1.185  0.00  0.00    +0.054 C 
ATOM     10  C   UNL     1      14.846   3.578   1.714  0.00  0.00    +0.018 C 
ATOM     11  C   UNL     1      15.189   5.131  -0.238  0.00  0.00    +0.113 C 
ATOM     12  C   UNL     1      14.250   5.977   1.979  0.00  0.00    +0.130 C 
ATOM     13  C   UNL     1      13.437   3.392  -0.355  0.00  0.00    +0.117 C 
ATOM     14  C   UNL     1      12.434   4.275   1.757  0.00  0.00    +0.027 A 
ATOM     15  C   UNL     1      11.156   3.903   1.935  0.00  0.00    +0.022 A 
ATOM     16  C   UNL     1      11.926   6.556   2.508  0.00  0.00    +0.259 A 
ATOM     17  C   UNL     1      13.174   5.613  -1.608  0.00  0.00    +0.266 C 
ATOM     18  C   UNL     1      10.497   6.114   2.665  0.00  0.00    +0.047 A 
ATOM     19  C   UNL     1      10.173   4.841   2.398  0.00  0.00    +0.015 A 
ENDROOT
BRANCH  17  20
ATOM      5  N   UNL     1      11.769   4.527  -3.191  0.00  0.00    -0.247 NA
ATOM      6  N   UNL     1       9.500   5.110  -1.649  0.00  0.00    -0.259 NA
ATOM     20  C   UNL     1      11.844   5.199  -2.028  0.00  0.00    +0.144 A 
ATOM     24  C   UNL     1      10.736   5.488  -1.269  0.00  0.00    +0.143 A 
ATOM     27  C   UNL     1      10.533   4.149  -3.570  0.00  0.00    +0.131 A 
ATOM     29  C   UNL     1       9.418   4.436  -2.813  0.00  0.00    +0.130 A 
ENDBRANCH  17  20
BRANCH  18  21
ATOM     21  C   UNL     1       9.496   7.033   3.104  0.00  0.00    -0.011 A 
ATOM     22  C   UNL     1       8.912   7.917   2.195  0.00  0.00    +0.027 A 
ATOM     23  C   UNL     1       9.103   7.048   4.442  0.00  0.00    +0.009 A 
ATOM     25  C   UNL     1       7.935   8.814   2.627  0.00  0.00    +0.052 A 
ATOM     26  C   UNL     1       8.126   7.946   4.872  0.00  0.00    +0.002 A 
ATOM     28  C   UNL     1       7.542   8.829   3.965  0.00  0.00    +0.019 A 
BRANCH  25  30
ATOM      7  N   UNL     1       6.849  10.455   0.941  0.00  0.00    -0.191 NA
ATOM     30  C   UNL     1       7.336   9.719   1.696  0.00  0.00    +0.099 C 
ENDBRANCH  25  30
ENDBRANCH  18  21
TORSDOF 3
ENDMDL
MODEL 5
REMARK VINA RESULT:      -6.5     27.085     29.877
REMARK  Name = 11912162
REMARK  3 active torsions:
REMARK  status: ('A' for Active; 'I' for Inactive)
REMARK    1  A    between atoms: C_17  and  C_20
REMARK    2  A    between atoms: C_18  and  C_21
REMARK    3  A    between atoms: C_25  and  C_30
REMARK                            x       y       z     vdW  Elec       q    Type
REMARK                         _______ _______ _______ _____ _____    ______ ____
ROOT
ATOM      1  O   UNL     1      -6.759 -10.049  14.282  0.00  0.00    -0.267 OA
ATOM      2  O   UNL     1      -4.693 -14.282  12.541  0.00  0.00    -0.268 OA
ATOM      3  N   UNL     1      -2.913 -13.012  13.309  0.00  0.00    -0.295 N 
ATOM      4  N   UNL     1      -4.483 -10.531  14.464  0.00  0.00    -0.311 N 
ATOM      8  C   UNL     1      -2.942 -10.688  12.423  0.00  0.00    +0.027 C 
ATOM      9  C   UNL     1      -2.044 -11.128  14.673  0.00  0.00    +0.054 C 
ATOM     10  C   UNL     1      -1.838 -10.304  13.403  0.00  0.00    +0.018 C 
ATOM     11  C   UNL     1      -2.870 -12.192  12.096  0.00  0.00    +0.113 C 
ATOM     12  C   UNL     1      -4.296 -10.290  13.026  0.00  0.00    +0.130 C 
ATOM     13  C   UNL     1      -1.932 -12.631  14.340  0.00  0.00    +0.117 C 
ATOM     14  C   UNL     1      -3.401 -10.847  15.291  0.00  0.00    +0.027 A 
ATOM     15  C   UNL     1      -3.572 -10.950  16.620  0.00  0.00    +0.022 A 
ATOM     16  C   UNL     1      -5.781 -10.336  14.976  0.00  0.00    +0.259 A 
ATOM     17  C   UNL     1      -3.898 -14.008  13.442  0.00  0.00    +0.266 C 
ATOM     18  C   UNL     1      -5.943 -10.491  16.463  0.00  0.00    +0.047 A 
ATOM     19  C   UNL     1      -4.867 -10.768  17.213  0.00  0.00    +0.015 A 
ENDROOT
BRANCH  17  20
ATOM      5  N   UNL     1      -4.769 -14.154  15.651  0.00  0.00    -0.247 NA
ATOM      6  N   UNL     1      -3.318 -16.508  16.120  0.00  0.00    -0.259 NA
ATOM     20  C   UNL     1      -3.972 -14.704  14.719  0.00  0.00    +0.144 A 
ATOM     24  C   UNL     1      -3.258 -15.856  14.942  0.00  0.00    +0.143 A 
ATOM     27  C   UNL     1      -4.828 -14.806  16.829  0.00  0.00    +0.131 A 
ATOM     29  C   UNL     1      -4.115 -15.962  17.060  0.00  0.00    +0.130 A 
ENDBRANCH  17  20
BRANCH  18  21
ATOM     21  C   UNL     1      -7.224 -10.336  17.076  0.00  0.00    -0.011 A 
ATOM     22  C   UNL     1      -7.991  -9.201  16.812  0.00  0.00    +0.027 A 
ATOM     23  C   UNL     1      -7.706 -11.319  17.939  0.00  0.00    +0.009 A 
ATOM     25  C   UNL     1      -9.241  -9.050  17.412  0.00  0.00    +0.052 A 
ATOM     26  C   UNL     1      -8.956 -11.167  18.539  0.00  0.00    +0.002 A 
ATOM     28  C   UNL     1      -9.724 -10.033  18.276  0.00  0.00    +0.019 A 
BRANCH  25  30
ATOM      7  N   UNL     1     -10.668  -6.943  16.924  0.00  0.00    -0.191 NA
ATOM     30  C   UNL     1     -10.028  -7.888  17.142  0.00  0.00    +0.099 C 
ENDBRANCH  25  30
ENDBRANCH  18  21
TORSDOF 3
ENDMDL
MODEL 6
REMARK VINA RESULT:      -6.4     26.082     28.961
REMARK  Name = 11912162
REMARK  3 active torsions:
REMARK  status: ('A' for Active; 'I' for Inactive)
REMARK    1  A    between atoms: C_17  and  C_20
REMARK    2  A    between atoms: C_18  and  C_21
REMARK    3  A    between atoms: C_25  and  C_30
REMARK                            x       y       z     vdW  Elec       q    Type
REMARK                         _______ _______ _______ _____ _____    ______ ____
ROOT
ATOM      1  O   UNL     1     -14.336   8.120  18.058  0.00  0.00    -0.267 OA
ATOM      2  O   UNL     1     -16.601   9.958  22.147  0.00  0.00    -0.268 OA
ATOM      3  N   UNL     1     -15.915   7.826  22.742  0.00  0.00    -0.295 N 
ATOM      4  N   UNL     1     -14.419   6.984  20.095  0.00  0.00    -0.311 N 
ATOM      8  C   UNL     1     -16.608   6.100  21.091  0.00  0.00    +0.027 C 
ATOM      9  C   UNL     1     -14.498   5.828  22.332  0.00  0.00    +0.054 C 
ATOM     10  C   UNL     1     -15.714   5.079  21.788  0.00  0.00    +0.018 C 
ATOM     11  C   UNL     1     -17.057   7.187  22.086  0.00  0.00    +0.113 C 
ATOM     12  C   UNL     1     -15.845   6.688  19.897  0.00  0.00    +0.130 C 
ATOM     13  C   UNL     1     -14.959   6.888  23.356  0.00  0.00    +0.117 C 
ATOM     14  C   UNL     1     -13.729   6.506  21.214  0.00  0.00    +0.027 A 
ATOM     15  C   UNL     1     -12.403   6.689  21.321  0.00  0.00    +0.022 A 
ATOM     16  C   UNL     1     -13.767   7.689  19.063  0.00  0.00    +0.259 A 
ATOM     17  C   UNL     1     -15.764   9.224  22.675  0.00  0.00    +0.266 C 
ATOM     18  C   UNL     1     -12.288   7.904  19.231  0.00  0.00    +0.047 A 
ATOM     19  C   UNL     1     -11.673   7.400  20.310  0.00  0.00    +0.015 A 
ENDROOT
BRANCH  17  20
ATOM      5  N   UNL     1     -14.546  10.005  24.562  0.00  0.00    -0.247 NA
ATOM      6  N   UNL     1     -12.332  10.605  22.947  0.00  0.00    -0.259 NA
ATOM     20  C   UNL     1     -14.545   9.789  23.235  0.00  0.00    +0.144 A 
ATOM     24  C   UNL     1     -13.465  10.081  22.439  0.00  0.00    +0.143 A 
ATOM     27  C   UNL     1     -13.413  10.528  25.070  0.00  0.00    +0.131 A 
ATOM     29  C   UNL     1     -12.325  10.824  24.277  0.00  0.00    +0.130 A 
ENDBRANCH  17  20
BRANCH  18  21
ATOM     21  C   UNL     1     -11.543   8.626  18.251  0.00  0.00    -0.011 A 
ATOM     22  C   UNL     1     -11.367   8.093  16.974  0.00  0.00    +0.027 A 
ATOM     23  C   UNL     1     -10.988   9.865  18.572  0.00  0.00    +0.009 A 
ATOM     25  C   UNL     1     -10.637   8.800  16.018  0.00  0.00    +0.052 A 
ATOM     26  C   UNL     1     -10.257  10.571  17.615  0.00  0.00    +0.002 A 
ATOM     28  C   UNL     1     -10.082  10.039  16.338  0.00  0.00    +0.019 A 
BRANCH  25  30
ATOM      7  N   UNL     1     -10.312   7.810  13.645  0.00  0.00    -0.191 NA
ATOM     30  C   UNL     1     -10.457   8.254  14.709  0.00  0.00    +0.099 C 
ENDBRANCH  25  30
ENDBRANCH  18  21
TORSDOF 3
ENDMDL
MODEL 7
REMARK VINA RESULT:      -6.3     22.130     23.786
REMARK  Name = 11912162
REMARK  3 active torsions:
REMARK  status: ('A' for Active; 'I' for Inactive)
REMARK    1  A    between atoms: C_17  and  C_20
REMARK    2  A    between atoms: C_18  and  C_21
REMARK    3  A    between atoms: C_25  and  C_30
REMARK                            x       y       z     vdW  Elec       q    Type
REMARK                         _______ _______ _______ _____ _____    ______ ____
ROOT
ATOM      1  O   UNL     1       9.600  -9.421  32.588  0.00  0.00    -0.267 OA
ATOM      2  O   UNL     1       9.165  -8.069  37.405  0.00  0.00    -0.268 OA
ATOM      3  N   UNL     1       8.568  -6.187  36.192  0.00  0.00    -0.295 N 
ATOM      4  N   UNL     1       8.776  -7.345  33.265  0.00  0.00    -0.311 N 
ATOM      8  C   UNL     1      10.238  -5.603  34.445  0.00  0.00    +0.027 C 
ATOM      9  C   UNL     1       7.851  -5.141  34.058  0.00  0.00    +0.054 C 
ATOM     10  C   UNL     1       9.262  -4.591  33.855  0.00  0.00    +0.018 C 
ATOM     11  C   UNL     1       9.959  -5.804  35.947  0.00  0.00    +0.113 C 
ATOM     12  C   UNL     1      10.126  -6.913  33.655  0.00  0.00    +0.130 C 
ATOM     13  C   UNL     1       7.570  -5.301  35.567  0.00  0.00    +0.117 C 
ATOM     14  C   UNL     1       7.682  -6.480  33.367  0.00  0.00    +0.027 A 
ATOM     15  C   UNL     1       6.479  -6.853  32.900  0.00  0.00    +0.022 A 
ATOM     16  C   UNL     1       8.660  -8.632  32.702  0.00  0.00    +0.259 A 
ATOM     17  C   UNL     1       8.284  -7.369  36.904  0.00  0.00    +0.266 C 
ATOM     18  C   UNL     1       7.292  -9.029  32.220  0.00  0.00    +0.047 A 
ATOM     19  C   UNL     1       6.284  -8.150  32.316  0.00  0.00    +0.015 A 
ENDROOT
BRANCH  17  20
ATOM      5  N   UNL     1       6.430  -8.589  36.049  0.00  0.00    -0.247 NA
ATOM      6  N   UNL     1       4.799  -7.667  38.136  0.00  0.00    -0.259 NA
ATOM     20  C   UNL     1       6.887  -7.764  37.007  0.00  0.00    +0.144 A 
ATOM     24  C   UNL     1       6.093  -7.308  38.031  0.00  0.00    +0.143 A 
ATOM     27  C   UNL     1       5.136  -8.948  36.154  0.00  0.00    +0.131 A 
ATOM     29  C   UNL     1       4.334  -8.495  37.179  0.00  0.00    +0.130 A 
ENDBRANCH  17  20
BRANCH  18  21
ATOM     21  C   UNL     1       7.066 -10.320  31.655  0.00  0.00    -0.011 A 
ATOM     22  C   UNL     1       7.552 -10.621  30.382  0.00  0.00    +0.027 A 
ATOM     23  C   UNL     1       6.358 -11.282  32.376  0.00  0.00    +0.009 A 
ATOM     25  C   UNL     1       7.330 -11.883  29.831  0.00  0.00    +0.052 A 
ATOM     26  C   UNL     1       6.135 -12.544  31.824  0.00  0.00    +0.002 A 
ATOM     28  C   UNL     1       6.621 -12.844  30.552  0.00  0.00    +0.019 A 
BRANCH  25  30
ATOM      7  N   UNL     1       8.231 -12.442  27.467  0.00  0.00    -0.191 NA
ATOM     30  C   UNL     1       7.828 -12.192  28.527  0.00  0.00    +0.099 C 
ENDBRANCH  25  30
ENDBRANCH  18  21
TORSDOF 3
ENDMDL
MODEL 8
REMARK VINA RESULT:      -6.2     22.401     24.049
REMARK  Name = 11912162
REMARK  3 active torsions:
REMARK  status: ('A' for Active; 'I' for Inactive)
REMARK    1  A    between atoms: C_17  and  C_20
REMARK    2  A    between atoms: C_18  and  C_21
REMARK    3  A    between atoms: C_25  and  C_30
REMARK                            x       y       z     vdW  Elec       q    Type
REMARK                         _______ _______ _______ _____ _____    ______ ____
ROOT
ATOM      1  O   UNL     1       9.481  -9.389  32.497  0.00  0.00    -0.267 OA
ATOM      2  O   UNL     1       9.135  -8.096  37.338  0.00  0.00    -0.268 OA
ATOM      3  N   UNL     1       8.561  -6.186  36.159  0.00  0.00    -0.295 N 
ATOM      4  N   UNL     1       8.709  -7.306  33.214  0.00  0.00    -0.311 N 
ATOM      8  C   UNL     1      10.220  -5.611  34.398  0.00  0.00    +0.027 C 
ATOM      9  C   UNL     1       7.838  -5.095  34.049  0.00  0.00    +0.054 C 
ATOM     10  C   UNL     1       9.257  -4.571  33.835  0.00  0.00    +0.018 C 
ATOM     11  C   UNL     1       9.956  -5.827  35.900  0.00  0.00    +0.113 C 
ATOM     12  C   UNL     1      10.072  -6.907  33.591  0.00  0.00    +0.130 C 
ATOM     13  C   UNL     1       7.573  -5.271  35.559  0.00  0.00    +0.117 C 
ATOM     14  C   UNL     1       7.634  -6.421  33.341  0.00  0.00    +0.027 A 
ATOM     15  C   UNL     1       6.418  -6.763  32.885  0.00  0.00    +0.022 A 
ATOM     16  C   UNL     1       8.559  -8.582  32.634  0.00  0.00    +0.259 A 
ATOM     17  C   UNL     1       8.263  -7.371  36.857  0.00  0.00    +0.266 C 
ATOM     18  C   UNL     1       7.177  -8.945  32.164  0.00  0.00    +0.047 A 
ATOM     19  C   UNL     1       6.189  -8.048  32.286  0.00  0.00    +0.015 A 
ENDROOT
BRANCH  17  20
ATOM      5  N   UNL     1       6.377  -8.554  36.018  0.00  0.00    -0.247 NA
ATOM      6  N   UNL     1       4.784  -7.606  38.123  0.00  0.00    -0.259 NA
ATOM     20  C   UNL     1       6.859  -7.740  36.973  0.00  0.00    +0.144 A 
ATOM     24  C   UNL     1       6.084  -7.271  38.006  0.00  0.00    +0.143 A 
ATOM     27  C   UNL     1       5.077  -8.888  36.135  0.00  0.00    +0.131 A 
ATOM     29  C   UNL     1       4.294  -8.422  37.168  0.00  0.00    +0.130 A 
ENDBRANCH  17  20
BRANCH  18  21
ATOM     21  C   UNL     1       6.918 -10.224  31.584  0.00  0.00    -0.011 A 
ATOM     22  C   UNL     1       6.418 -11.260  32.373  0.00  0.00    +0.027 A 
ATOM     23  C   UNL     1       7.168 -10.437  30.228  0.00  0.00    +0.009 A 
ATOM     25  C   UNL     1       6.167 -12.509  31.804  0.00  0.00    +0.052 A 
ATOM     26  C   UNL     1       6.917 -11.686  29.661  0.00  0.00    +0.002 A 
ATOM     28  C   UNL     1       6.416 -12.722  30.448  0.00  0.00    +0.019 A 
BRANCH  25  30
ATOM      7  N   UNL     1       5.236 -14.434  33.267  0.00  0.00    -0.191 NA
ATOM     30  C   UNL     1       5.653 -13.572  32.612  0.00  0.00    +0.099 C 
ENDBRANCH  25  30
ENDBRANCH  18  21
TORSDOF 3
ENDMDL
MODEL 9
REMARK VINA RESULT:      -6.1     14.508     18.566
REMARK  Name = 11912162
REMARK  3 active torsions:
REMARK  status: ('A' for Active; 'I' for Inactive)
REMARK    1  A    between atoms: C_17  and  C_20
REMARK    2  A    between atoms: C_18  and  C_21
REMARK    3  A    between atoms: C_25  and  C_30
REMARK                            x       y       z     vdW  Elec       q    Type
REMARK                         _______ _______ _______ _____ _____    ______ ____
ROOT
ATOM      1  O   UNL     1       9.719   7.090   0.964  0.00  0.00    -0.267 OA
ATOM      2  O   UNL     1      11.418  10.346   4.391  0.00  0.00    -0.268 OA
ATOM      3  N   UNL     1      10.302   8.717   5.604  0.00  0.00    -0.295 N 
ATOM      4  N   UNL     1       9.491   6.763   3.264  0.00  0.00    -0.311 N 
ATOM      8  C   UNL     1       8.019   8.264   4.729  0.00  0.00    +0.027 C 
ATOM      9  C   UNL     1       9.319   6.442   5.757  0.00  0.00    +0.054 C 
ATOM     10  C   UNL     1       7.918   7.041   5.634  0.00  0.00    +0.018 C 
ATOM     11  C   UNL     1       8.987   9.299   5.332  0.00  0.00    +0.113 C 
ATOM     12  C   UNL     1       8.458   7.807   3.331  0.00  0.00    +0.130 C 
ATOM     13  C   UNL     1      10.269   7.476   6.398  0.00  0.00    +0.117 C 
ATOM     14  C   UNL     1       9.857   6.033   4.399  0.00  0.00    +0.027 A 
ATOM     15  C   UNL     1      10.719   5.008   4.295  0.00  0.00    +0.022 A 
ATOM     16  C   UNL     1      10.020   6.476   1.990  0.00  0.00    +0.259 A 
ATOM     17  C   UNL     1      11.454   9.303   5.046  0.00  0.00    +0.266 C 
ATOM     18  C   UNL     1      11.007   5.343   1.916  0.00  0.00    +0.047 A 
ATOM     19  C   UNL     1      11.301   4.659   3.030  0.00  0.00    +0.015 A 
ENDROOT
BRANCH  17  20
ATOM      5  N   UNL     1      13.111   7.792   4.253  0.00  0.00    -0.247 NA
ATOM      6  N   UNL     1      14.623   8.149   6.589  0.00  0.00    -0.259 NA
ATOM     20  C   UNL     1      12.717   8.609   5.246  0.00  0.00    +0.144 A 
ATOM     24  C   UNL     1      13.453   8.787   6.392  0.00  0.00    +0.143 A 
ATOM     27  C   UNL     1      14.281   7.154   4.450  0.00  0.00    +0.131 A 
ATOM     29  C   UNL     1      15.024   7.328   5.597  0.00  0.00    +0.130 A 
ENDBRANCH  17  20
BRANCH  18  21
ATOM     21  C   UNL     1      11.616   4.989   0.674  0.00  0.00    -0.011 A 
ATOM     22  C   UNL     1      10.972   4.108  -0.195  0.00  0.00    +0.027 A 
ATOM     23  C   UNL     1      12.858   5.523   0.331  0.00  0.00    +0.009 A 
ATOM     25  C   UNL     1      11.569   3.763  -1.407  0.00  0.00    +0.052 A 
ATOM     26  C   UNL     1      13.455   5.177  -0.881  0.00  0.00    +0.002 A 
ATOM     28  C   UNL     1      12.811   4.298  -1.750  0.00  0.00    +0.019 A 
BRANCH  25  30
ATOM      7  N   UNL     1      10.372   2.129  -3.022  0.00  0.00    -0.191 NA
ATOM     30  C   UNL     1      10.909   2.861  -2.298  0.00  0.00    +0.099 C 
ENDBRANCH  25  30
ENDBRANCH  18  21
TORSDOF 3
ENDMDL
MODEL 10
REMARK VINA RESULT:      -6.1     28.170     30.533
REMARK  Name = 11912162
REMARK  3 active torsions:
REMARK  status: ('A' for Active; 'I' for Inactive)
REMARK    1  A    between atoms: C_17  and  C_20
REMARK    2  A    between atoms: C_18  and  C_21
REMARK    3  A    between atoms: C_25  and  C_30
REMARK                            x       y       z     vdW  Elec       q    Type
REMARK                         _______ _______ _______ _____ _____    ______ ____
ROOT
ATOM      1  O   UNL     1      -5.993 -13.603  16.256  0.00  0.00    -0.267 OA
ATOM      2  O   UNL     1     -10.846 -12.392  15.803  0.00  0.00    -0.268 OA
ATOM      3  N   UNL     1     -10.452 -12.468  18.085  0.00  0.00    -0.295 N 
ATOM      4  N   UNL     1      -7.357 -13.083  18.077  0.00  0.00    -0.311 N 
ATOM      8  C   UNL     1      -9.320 -14.566  18.793  0.00  0.00    +0.027 C 
ATOM      9  C   UNL     1      -8.867 -12.466  19.996  0.00  0.00    +0.054 C 
ATOM     10  C   UNL     1      -9.083 -13.968  20.177  0.00  0.00    +0.018 C 
ATOM     11  C   UNL     1     -10.559 -13.927  18.138  0.00  0.00    +0.113 C 
ATOM     12  C   UNL     1      -8.053 -14.372  17.950  0.00  0.00    +0.130 C 
ATOM     13  C   UNL     1     -10.129 -11.832  19.374  0.00  0.00    +0.117 C 
ATOM     14  C   UNL     1      -7.670 -12.190  19.106  0.00  0.00    +0.027 A 
ATOM     15  C   UNL     1      -6.947 -11.071  19.273  0.00  0.00    +0.022 A 
ATOM     16  C   UNL     1      -6.305 -12.839  17.172  0.00  0.00    +0.259 A 
ATOM     17  C   UNL     1     -10.573 -11.804  16.850  0.00  0.00    +0.266 C 
ATOM     18  C   UNL     1      -5.538 -11.561  17.369  0.00  0.00    +0.047 A 
ATOM     19  C   UNL     1      -5.862 -10.754  18.388  0.00  0.00    +0.015 A 
ENDROOT
BRANCH  17  20
ATOM      5  N   UNL     1      -9.063  -9.980  16.620  0.00  0.00    -0.247 NA
ATOM      6  N   UNL     1     -11.141  -8.144  17.043  0.00  0.00    -0.259 NA
ATOM     20  C   UNL     1     -10.331 -10.368  16.840  0.00  0.00    +0.144 A 
ATOM     24  C   UNL     1     -11.353  -9.474  17.049  0.00  0.00    +0.143 A 
ATOM     27  C   UNL     1      -8.851  -8.649  16.613  0.00  0.00    +0.131 A 
ATOM     29  C   UNL     1      -9.871  -7.747  16.822  0.00  0.00    +0.130 A 
ENDBRANCH  17  20
BRANCH  18  21
ATOM     21  C   UNL     1      -4.468 -11.212  16.490  0.00  0.00    -0.011 A 
ATOM     22  C   UNL     1      -4.720 -10.987  15.136  0.00  0.00    +0.027 A 
ATOM     23  C   UNL     1      -3.169 -11.098  16.985  0.00  0.00    +0.009 A 
ATOM     25  C   UNL     1      -3.673 -10.647  14.279  0.00  0.00    +0.052 A 
ATOM     26  C   UNL     1      -2.123 -10.758  16.127  0.00  0.00    +0.002 A 
ATOM     28  C   UNL     1      -2.375 -10.533  14.774  0.00  0.00    +0.019 A 
BRANCH  25  30
ATOM      7  N   UNL     1      -4.142 -10.228  11.765  0.00  0.00    -0.191 NA
ATOM     30  C   UNL     1      -3.932 -10.417  12.892  0.00  0.00    +0.099 C 
ENDBRANCH  25  30
ENDBRANCH  18  21
TORSDOF 3
ENDMDL
