MODEL 1
REMARK VINA RESULT:      -7.9      0.000      0.000
REMARK  Name = 40777145
REMARK  9 active torsions:
REMARK  status: ('A' for Active; 'I' for Inactive)
REMARK    1  A    between atoms: O_5  and  C_36
REMARK    2  A    between atoms: N_8  and  C_18
REMARK    3  A    between atoms: C_12  and  C_19
REMARK    4  A    between atoms: C_13  and  C_18
REMARK    5  A    between atoms: C_21  and  C_24
REMARK    6  A    between atoms: C_22  and  C_26
REMARK    7  A    between atoms: C_23  and  C_25
REMARK    8  A    between atoms: C_29  and  C_36
REMARK    9  A    between atoms: C_34  and  C_38
REMARK                            x       y       z     vdW  Elec       q    Type
REMARK                         _______ _______ _______ _____ _____    ______ ____
ROOT
ATOM      7  N   UNL     1      13.064   5.898   0.190  0.00  0.00    -0.297 NA
ATOM     11  C   UNL     1      11.041   4.497   1.046  0.00  0.00    +0.002 C 
ATOM     12  C   UNL     1      10.664   6.002   0.963  0.00  0.00    +0.055 C 
ATOM     13  C   UNL     1      13.494   5.013   1.305  0.00  0.00    +0.074 C 
ATOM     14  C   UNL     1      12.274   4.330   1.959  0.00  0.00    +0.024 C 
ATOM     15  C   UNL     1      11.469   4.066  -0.374  0.00  0.00    +0.019 C 
ATOM     16  C   UNL     1      11.967   6.790   0.644  0.00  0.00    +0.094 C 
ATOM     17  C   UNL     1      12.541   5.038  -0.897  0.00  0.00    +0.085 C 
ENDROOT
BRANCH  12  19
ATOM      9  N   UNL     1       9.106   7.675   1.832  0.00  0.00    -0.237 NA
ATOM     10  N   UNL     1       8.474   7.756   4.155  0.00  0.00    -0.232 NA
ATOM     19  C   UNL     1       9.889   6.614   2.120  0.00  0.00    +0.050 A 
ATOM     20  C   UNL     1      10.014   6.076   3.385  0.00  0.00    +0.052 A 
ATOM     21  C   UNL     1       9.276   6.693   4.373  0.00  0.00    +0.075 A 
ATOM     22  C   UNL     1       8.437   8.189   2.881  0.00  0.00    +0.127 A 
ATOM     26  C   UNL     1       7.562   9.364   2.602  0.00  0.00    +0.088 C 
BRANCH  21  24
ATOM     24  C   UNL     1       9.320   6.227   5.739  0.00  0.00    +0.000 A 
ATOM     27  C   UNL     1       9.850   4.971   6.030  0.00  0.00    +0.010 A 
ATOM     28  C   UNL     1       8.834   7.035   6.767  0.00  0.00    +0.010 A 
ATOM     31  C   UNL     1       9.893   4.520   7.349  0.00  0.00    +0.013 A 
ATOM     32  C   UNL     1       8.878   6.586   8.086  0.00  0.00    +0.013 A 
ATOM     34  C   UNL     1       9.408   5.328   8.378  0.00  0.00    +0.055 A 
BRANCH  34  38
ATOM      1  F   UNL     1       9.731   3.515   9.904  0.00  0.00    -0.166 F 
ATOM      2  F   UNL     1       8.271   5.032  10.445  0.00  0.00    -0.166 F 
ATOM      3  F   UNL     1      10.397   5.475  10.551  0.00  0.00    -0.166 F 
ATOM     38  C   UNL     1       9.454   4.847   9.789  0.00  0.00    +0.417 C 
ENDBRANCH  34  38
ENDBRANCH  21  24
ENDBRANCH  12  19
BRANCH  13  18
ATOM     18  C   UNL     1      14.356   5.748   2.333  0.00  0.00    +0.123 C 
BRANCH  18   8
ATOM      4  O   UNL     1      14.893   8.369   3.376  0.00  0.00    -0.270 OA
ATOM      8  N   UNL     1      13.542   6.487   3.248  0.00  0.00    -0.310 N 
ATOM     23  C   UNL     1      13.879   7.760   3.705  0.00  0.00    +0.245 C 
ATOM     39  H   UNL     1      12.689   6.050   3.587  0.00  0.00    +0.149 HD
BRANCH  23  25
ATOM     25  C   UNL     1      12.940   8.383   4.674  0.00  0.00    +0.051 A 
ATOM     29  C   UNL     1      13.040   8.132   6.042  0.00  0.00    +0.071 A 
ATOM     30  C   UNL     1      11.946   9.233   4.190  0.00  0.00    +0.014 A 
ATOM     33  C   UNL     1      12.144   8.732   6.928  0.00  0.00    +0.016 A 
ATOM     35  C   UNL     1      11.050   9.833   5.077  0.00  0.00    +0.001 A 
ATOM     37  C   UNL     1      11.150   9.582   6.444  0.00  0.00    +0.001 A 
BRANCH  29  36
ATOM      6  O   UNL     1      15.276   7.499   6.609  0.00  0.00    -0.245 OA
ATOM     36  C   UNL     1      14.068   7.250   6.577  0.00  0.00    +0.338 C 
BRANCH  36   5
ATOM      5  O   UNL     1      13.553   6.086   7.057  0.00  0.00    -0.477 OA
ATOM     40  H   UNL     1      12.620   6.190   7.342  0.00  0.00    +0.295 HD
ENDBRANCH  36   5
ENDBRANCH  29  36
ENDBRANCH  23  25
ENDBRANCH  18   8
ENDBRANCH  13  18
TORSDOF 8
ENDMDL
MODEL 2
REMARK VINA RESULT:      -7.4     15.652     19.091
REMARK  Name = 40777145
REMARK  9 active torsions:
REMARK  status: ('A' for Active; 'I' for Inactive)
REMARK    1  A    between atoms: O_5  and  C_36
REMARK    2  A    between atoms: N_8  and  C_18
REMARK    3  A    between atoms: C_12  and  C_19
REMARK    4  A    between atoms: C_13  and  C_18
REMARK    5  A    between atoms: C_21  and  C_24
REMARK    6  A    between atoms: C_22  and  C_26
REMARK    7  A    between atoms: C_23  and  C_25
REMARK    8  A    between atoms: C_29  and  C_36
REMARK    9  A    between atoms: C_34  and  C_38
REMARK                            x       y       z     vdW  Elec       q    Type
REMARK                         _______ _______ _______ _____ _____    ______ ____
ROOT
ATOM      7  N   UNL     1      12.894   7.190  20.105  0.00  0.00    -0.297 NA
ATOM     11  C   UNL     1      14.644   8.574  18.762  0.00  0.00    +0.002 C 
ATOM     12  C   UNL     1      15.337   7.406  19.515  0.00  0.00    +0.055 C 
ATOM     13  C   UNL     1      12.729   8.639  20.397  0.00  0.00    +0.074 C 
ATOM     14  C   UNL     1      13.883   9.455  19.775  0.00  0.00    +0.024 C 
ATOM     15  C   UNL     1      13.589   7.939  17.830  0.00  0.00    +0.019 C 
ATOM     16  C   UNL     1      14.273   6.757  20.446  0.00  0.00    +0.094 C 
ATOM     17  C   UNL     1      12.693   6.995  18.650  0.00  0.00    +0.085 C 
ENDROOT
BRANCH  12  19
ATOM      9  N   UNL     1      16.814   8.952  20.703  0.00  0.00    -0.237 NA
ATOM     10  N   UNL     1      18.962   8.273  21.560  0.00  0.00    -0.232 NA
ATOM     19  C   UNL     1      16.642   7.694  20.244  0.00  0.00    +0.050 A 
ATOM     20  C   UNL     1      17.571   6.687  20.401  0.00  0.00    +0.052 A 
ATOM     21  C   UNL     1      18.724   7.037  21.073  0.00  0.00    +0.075 A 
ATOM     22  C   UNL     1      17.980   9.168  21.342  0.00  0.00    +0.127 A 
ATOM     26  C   UNL     1      18.208  10.547  21.863  0.00  0.00    +0.088 C 
BRANCH  21  24
ATOM     24  C   UNL     1      19.775   6.074  21.303  0.00  0.00    +0.000 A 
ATOM     27  C   UNL     1      19.986   5.041  20.391  0.00  0.00    +0.010 A 
ATOM     28  C   UNL     1      20.582   6.180  22.437  0.00  0.00    +0.010 A 
ATOM     31  C   UNL     1      21.002   4.111  20.611  0.00  0.00    +0.013 A 
ATOM     32  C   UNL     1      21.598   5.251  22.657  0.00  0.00    +0.013 A 
ATOM     34  C   UNL     1      21.809   4.217  21.744  0.00  0.00    +0.055 A 
BRANCH  34  38
ATOM      1  F   UNL     1      23.052   2.329  20.961  0.00  0.00    -0.166 F 
ATOM      2  F   UNL     1      22.682   2.469  23.099  0.00  0.00    -0.166 F 
ATOM      3  F   UNL     1      24.127   3.788  22.151  0.00  0.00    -0.166 F 
ATOM     38  C   UNL     1      22.896   3.223  21.981  0.00  0.00    +0.417 C 
ENDBRANCH  34  38
ENDBRANCH  21  24
ENDBRANCH  12  19
BRANCH  13  18
ATOM     18  C   UNL     1      12.575   8.918  21.894  0.00  0.00    +0.123 C 
BRANCH  18   8
ATOM      4  O   UNL     1      13.518  11.454  22.856  0.00  0.00    -0.270 OA
ATOM      8  N   UNL     1      11.790  10.093  22.116  0.00  0.00    -0.310 N 
ATOM     23  C   UNL     1      12.331  11.288  22.587  0.00  0.00    +0.245 C 
ATOM     39  H   UNL     1      10.791  10.040  21.936  0.00  0.00    +0.149 HD
BRANCH  23  25
ATOM     25  C   UNL     1      11.377  12.409  22.791  0.00  0.00    +0.051 A 
ATOM     29  C   UNL     1      10.880  12.715  24.057  0.00  0.00    +0.071 A 
ATOM     30  C   UNL     1      10.981  13.160  21.684  0.00  0.00    +0.014 A 
ATOM     33  C   UNL     1       9.985  13.774  24.218  0.00  0.00    +0.016 A 
ATOM     35  C   UNL     1      10.087  14.219  21.845  0.00  0.00    +0.001 A 
ATOM     37  C   UNL     1       9.589  14.526  23.111  0.00  0.00    +0.001 A 
BRANCH  29  36
ATOM      6  O   UNL     1      10.859  10.825  25.523  0.00  0.00    -0.245 OA
ATOM     36  C   UNL     1      11.275  11.949  25.232  0.00  0.00    +0.338 C 
BRANCH  36   5
ATOM      5  O   UNL     1      12.178  12.613  26.002  0.00  0.00    -0.477 OA
ATOM     40  H   UNL     1      12.119  12.347  26.945  0.00  0.00    +0.295 HD
ENDBRANCH  36   5
ENDBRANCH  29  36
ENDBRANCH  23  25
ENDBRANCH  18   8
ENDBRANCH  13  18
TORSDOF 8
ENDMDL
MODEL 3
REMARK VINA RESULT:      -7.3     13.923     17.725
REMARK  Name = 40777145
REMARK  9 active torsions:
REMARK  status: ('A' for Active; 'I' for Inactive)
REMARK    1  A    between atoms: O_5  and  C_36
REMARK    2  A    between atoms: N_8  and  C_18
REMARK    3  A    between atoms: C_12  and  C_19
REMARK    4  A    between atoms: C_13  and  C_18
REMARK    5  A    between atoms: C_21  and  C_24
REMARK    6  A    between atoms: C_22  and  C_26
REMARK    7  A    between atoms: C_23  and  C_25
REMARK    8  A    between atoms: C_29  and  C_36
REMARK    9  A    between atoms: C_34  and  C_38
REMARK                            x       y       z     vdW  Elec       q    Type
REMARK                         _______ _______ _______ _____ _____    ______ ____
ROOT
ATOM      7  N   UNL     1      13.242  13.812  22.596  0.00  0.00    -0.297 NA
ATOM     11  C   UNL     1      11.177  12.295  22.122  0.00  0.00    +0.002 C 
ATOM     12  C   UNL     1      12.262  11.507  22.905  0.00  0.00    +0.055 C 
ATOM     13  C   UNL     1      12.874  13.889  21.157  0.00  0.00    +0.074 C 
ATOM     14  C   UNL     1      11.789  12.845  20.816  0.00  0.00    +0.024 C 
ATOM     15  C   UNL     1      10.797  13.513  22.992  0.00  0.00    +0.019 C 
ATOM     16  C   UNL     1      13.531  12.404  22.971  0.00  0.00    +0.094 C 
ATOM     17  C   UNL     1      12.076  14.271  23.388  0.00  0.00    +0.085 C 
ENDROOT
BRANCH  12  19
ATOM      9  N   UNL     1      11.535   9.254  22.291  0.00  0.00    -0.237 NA
ATOM     10  N   UNL     1      13.093   7.528  21.659  0.00  0.00    -0.232 NA
ATOM     19  C   UNL     1      12.583  10.088  22.458  0.00  0.00    +0.050 A 
ATOM     20  C   UNL     1      13.896   9.719  22.249  0.00  0.00    +0.052 A 
ATOM     21  C   UNL     1      14.094   8.415  21.846  0.00  0.00    +0.075 A 
ATOM     22  C   UNL     1      11.858   8.007  21.897  0.00  0.00    +0.127 A 
ATOM     26  C   UNL     1      10.726   7.056  21.702  0.00  0.00    +0.088 C 
BRANCH  21  24
ATOM     24  C   UNL     1      15.421   7.904  21.595  0.00  0.00    +0.000 A 
ATOM     27  C   UNL     1      16.524   8.750  21.699  0.00  0.00    +0.010 A 
ATOM     28  C   UNL     1      15.599   6.564  21.251  0.00  0.00    +0.010 A 
ATOM     31  C   UNL     1      17.807   8.258  21.457  0.00  0.00    +0.013 A 
ATOM     32  C   UNL     1      16.880   6.071  21.009  0.00  0.00    +0.013 A 
ATOM     34  C   UNL     1      17.985   6.918  21.113  0.00  0.00    +0.055 A 
BRANCH  34  38
ATOM      1  F   UNL     1      20.194   7.303  20.281  0.00  0.00    -0.166 F 
ATOM      2  F   UNL     1      19.354   5.316  20.011  0.00  0.00    -0.166 F 
ATOM      3  F   UNL     1      20.002   5.970  21.981  0.00  0.00    -0.166 F 
ATOM     38  C   UNL     1      19.356   6.390  20.854  0.00  0.00    +0.417 C 
ENDBRANCH  34  38
ENDBRANCH  21  24
ENDBRANCH  12  19
BRANCH  13  18
ATOM     18  C   UNL     1      14.091  13.769  20.238  0.00  0.00    +0.123 C 
BRANCH  18   8
ATOM      4  O   UNL     1      16.021  11.721  19.666  0.00  0.00    -0.270 OA
ATOM      8  N   UNL     1      13.935  12.679  19.324  0.00  0.00    -0.310 N 
ATOM     23  C   UNL     1      14.928  11.725  19.106  0.00  0.00    +0.245 C 
ATOM     39  H   UNL     1      13.065  12.615  18.803  0.00  0.00    +0.149 HD
BRANCH  23  25
ATOM     25  C   UNL     1      14.621  10.671  18.105  0.00  0.00    +0.051 A 
ATOM     29  C   UNL     1      14.593  10.955  16.740  0.00  0.00    +0.071 A 
ATOM     30  C   UNL     1      14.358   9.377  18.554  0.00  0.00    +0.014 A 
ATOM     33  C   UNL     1      14.303   9.945  15.823  0.00  0.00    +0.016 A 
ATOM     35  C   UNL     1      14.067   8.367  17.637  0.00  0.00    +0.001 A 
ATOM     37  C   UNL     1      14.040   8.650  16.272  0.00  0.00    +0.001 A 
BRANCH  29  36
ATOM      6  O   UNL     1      15.979  12.737  15.948  0.00  0.00    -0.245 OA
ATOM     36  C   UNL     1      14.865  12.297  16.240  0.00  0.00    +0.338 C 
BRANCH  36   5
ATOM      5  O   UNL     1      13.733  13.043  16.119  0.00  0.00    -0.477 OA
ATOM     40  H   UNL     1      13.093  12.853  16.838  0.00  0.00    +0.295 HD
ENDBRANCH  36   5
ENDBRANCH  29  36
ENDBRANCH  23  25
ENDBRANCH  18   8
ENDBRANCH  13  18
TORSDOF 8
ENDMDL
MODEL 4
REMARK VINA RESULT:      -7.2      3.773      6.514
REMARK  Name = 40777145
REMARK  9 active torsions:
REMARK  status: ('A' for Active; 'I' for Inactive)
REMARK    1  A    between atoms: O_5  and  C_36
REMARK    2  A    between atoms: N_8  and  C_18
REMARK    3  A    between atoms: C_12  and  C_19
REMARK    4  A    between atoms: C_13  and  C_18
REMARK    5  A    between atoms: C_21  and  C_24
REMARK    6  A    between atoms: C_22  and  C_26
REMARK    7  A    between atoms: C_23  and  C_25
REMARK    8  A    between atoms: C_29  and  C_36
REMARK    9  A    between atoms: C_34  and  C_38
REMARK                            x       y       z     vdW  Elec       q    Type
REMARK                         _______ _______ _______ _____ _____    ______ ____
ROOT
ATOM      7  N   UNL     1      10.619   5.120   8.058  0.00  0.00    -0.297 NA
ATOM     11  C   UNL     1       9.205   7.212   7.417  0.00  0.00    +0.002 C 
ATOM     12  C   UNL     1       9.048   6.100   6.343  0.00  0.00    +0.055 C 
ATOM     13  C   UNL     1      11.457   6.346   8.143  0.00  0.00    +0.074 C 
ATOM     14  C   UNL     1      10.700   7.564   7.572  0.00  0.00    +0.024 C 
ATOM     15  C   UNL     1       8.742   6.605   8.759  0.00  0.00    +0.019 C 
ATOM     16  C   UNL     1      10.068   4.977   6.686  0.00  0.00    +0.094 C 
ATOM     17  C   UNL     1       9.484   5.279   8.998  0.00  0.00    +0.085 C 
ENDROOT
BRANCH  12  19
ATOM      9  N   UNL     1       8.346   7.556   4.508  0.00  0.00    -0.237 NA
ATOM     10  N   UNL     1       9.163   7.273   2.259  0.00  0.00    -0.232 NA
ATOM     19  C   UNL     1       9.105   6.503   4.877  0.00  0.00    +0.050 A 
ATOM     20  C   UNL     1       9.907   5.794   4.006  0.00  0.00    +0.052 A 
ATOM     21  C   UNL     1       9.896   6.227   2.697  0.00  0.00    +0.075 A 
ATOM     22  C   UNL     1       8.422   7.881   3.203  0.00  0.00    +0.127 A 
ATOM     26  C   UNL     1       7.595   9.040   2.757  0.00  0.00    +0.088 C 
BRANCH  21  24
ATOM     24  C   UNL     1      10.691   5.570   1.687  0.00  0.00    +0.000 A 
ATOM     27  C   UNL     1      10.139   5.292   0.437  0.00  0.00    +0.010 A 
ATOM     28  C   UNL     1      12.013   5.216   1.961  0.00  0.00    +0.010 A 
ATOM     31  C   UNL     1      10.907   4.657  -0.539  0.00  0.00    +0.013 A 
ATOM     32  C   UNL     1      12.781   4.582   0.984  0.00  0.00    +0.013 A 
ATOM     34  C   UNL     1      12.228   4.303  -0.266  0.00  0.00    +0.055 A 
BRANCH  34  38
ATOM      1  F   UNL     1      12.643   2.349  -1.583  0.00  0.00    -0.166 F 
ATOM      2  F   UNL     1      14.364   3.521  -0.958  0.00  0.00    -0.166 F 
ATOM      3  F   UNL     1      13.043   4.266  -2.515  0.00  0.00    -0.166 F 
ATOM     38  C   UNL     1      13.049   3.624  -1.310  0.00  0.00    +0.417 C 
ENDBRANCH  34  38
ENDBRANCH  21  24
ENDBRANCH  12  19
BRANCH  13  18
ATOM     18  C   UNL     1      12.826   6.163   7.484  0.00  0.00    +0.123 C 
BRANCH  18   8
ATOM      4  O   UNL     1      14.203   8.459   6.447  0.00  0.00    -0.270 OA
ATOM      8  N   UNL     1      12.808   6.631   6.133  0.00  0.00    -0.310 N 
ATOM     23  C   UNL     1      13.509   7.761   5.713  0.00  0.00    +0.245 C 
ATOM     39  H   UNL     1      12.243   6.122   5.459  0.00  0.00    +0.149 HD
BRANCH  23  25
ATOM     25  C   UNL     1      13.366   8.132   4.281  0.00  0.00    +0.051 A 
ATOM     29  C   UNL     1      14.348   7.807   3.347  0.00  0.00    +0.071 A 
ATOM     30  C   UNL     1      12.219   8.818   3.880  0.00  0.00    +0.014 A 
ATOM     33  C   UNL     1      14.185   8.168   2.009  0.00  0.00    +0.016 A 
ATOM     35  C   UNL     1      12.057   9.179   2.541  0.00  0.00    +0.001 A 
ATOM     37  C   UNL     1      13.039   8.854   1.607  0.00  0.00    +0.001 A 
BRANCH  29  36
ATOM      6  O   UNL     1      16.571   7.608   4.209  0.00  0.00    -0.245 OA
ATOM     36  C   UNL     1      15.556   7.090   3.736  0.00  0.00    +0.338 C 
BRANCH  36   5
ATOM      5  O   UNL     1      15.454   5.751   3.523  0.00  0.00    -0.477 OA
ATOM     40  H   UNL     1      15.703   5.235   4.320  0.00  0.00    +0.295 HD
ENDBRANCH  36   5
ENDBRANCH  29  36
ENDBRANCH  23  25
ENDBRANCH  18   8
ENDBRANCH  13  18
TORSDOF 8
ENDMDL
MODEL 5
REMARK VINA RESULT:      -7.1     23.991     27.451
REMARK  Name = 40777145
REMARK  9 active torsions:
REMARK  status: ('A' for Active; 'I' for Inactive)
REMARK    1  A    between atoms: O_5  and  C_36
REMARK    2  A    between atoms: N_8  and  C_18
REMARK    3  A    between atoms: C_12  and  C_19
REMARK    4  A    between atoms: C_13  and  C_18
REMARK    5  A    between atoms: C_21  and  C_24
REMARK    6  A    between atoms: C_22  and  C_26
REMARK    7  A    between atoms: C_23  and  C_25
REMARK    8  A    between atoms: C_29  and  C_36
REMARK    9  A    between atoms: C_34  and  C_38
REMARK                            x       y       z     vdW  Elec       q    Type
REMARK                         _______ _______ _______ _____ _____    ______ ____
ROOT
ATOM      7  N   UNL     1      -7.471 -11.677  17.805  0.00  0.00    -0.297 NA
ATOM     11  C   UNL     1      -4.975 -11.512  18.532  0.00  0.00    +0.002 C 
ATOM     12  C   UNL     1      -5.253 -10.570  17.329  0.00  0.00    +0.055 C 
ATOM     13  C   UNL     1      -6.884 -13.038  17.922  0.00  0.00    +0.074 C 
ATOM     14  C   UNL     1      -5.360 -12.957  18.149  0.00  0.00    +0.024 C 
ATOM     15  C   UNL     1      -5.926 -11.077  19.668  0.00  0.00    +0.019 C 
ATOM     16  C   UNL     1      -6.695 -10.872  16.827  0.00  0.00    +0.094 C 
ATOM     17  C   UNL     1      -7.366 -11.022  19.130  0.00  0.00    +0.085 C 
ENDROOT
BRANCH  12  19
ATOM      9  N   UNL     1      -2.940 -10.487  16.542  0.00  0.00    -0.237 NA
ATOM     10  N   UNL     1      -2.380 -10.475  14.198  0.00  0.00    -0.232 NA
ATOM     19  C   UNL     1      -4.242 -10.538  16.192  0.00  0.00    +0.050 A 
ATOM     20  C   UNL     1      -4.685 -10.558  14.886  0.00  0.00    +0.052 A 
ATOM     21  C   UNL     1      -3.700 -10.525  13.921  0.00  0.00    +0.075 A 
ATOM     22  C   UNL     1      -2.075 -10.458  15.509  0.00  0.00    +0.127 A 
ATOM     26  C   UNL     1      -0.626 -10.401  15.855  0.00  0.00    +0.088 C 
BRANCH  21  24
ATOM     24  C   UNL     1      -4.032 -10.541  12.515  0.00  0.00    +0.000 A 
ATOM     27  C   UNL     1      -5.338 -10.812  12.110  0.00  0.00    +0.010 A 
ATOM     28  C   UNL     1      -3.045 -10.281  11.563  0.00  0.00    +0.010 A 
ATOM     31  C   UNL     1      -5.659 -10.827  10.753  0.00  0.00    +0.013 A 
ATOM     32  C   UNL     1      -3.366 -10.295  10.206  0.00  0.00    +0.013 A 
ATOM     34  C   UNL     1      -4.673 -10.568   9.801  0.00  0.00    +0.055 A 
BRANCH  34  38
ATOM      1  F   UNL     1      -6.305 -10.952   8.095  0.00  0.00    -0.166 F 
ATOM      2  F   UNL     1      -4.240 -11.453   7.637  0.00  0.00    -0.166 F 
ATOM      3  F   UNL     1      -4.863  -9.372   7.738  0.00  0.00    -0.166 F 
ATOM     38  C   UNL     1      -5.015 -10.584   8.349  0.00  0.00    +0.417 C 
ENDBRANCH  34  38
ENDBRANCH  21  24
ENDBRANCH  12  19
BRANCH  13  18
ATOM     18  C   UNL     1      -7.237 -13.929  16.728  0.00  0.00    +0.123 C 
BRANCH  18   8
ATOM      4  O   UNL     1      -5.625 -16.006  15.574  0.00  0.00    -0.270 OA
ATOM      8  N   UNL     1      -6.275 -13.781  15.680  0.00  0.00    -0.310 N 
ATOM     23  C   UNL     1      -5.533 -14.848  15.176  0.00  0.00    +0.245 C 
ATOM     39  H   UNL     1      -6.121 -12.850  15.302  0.00  0.00    +0.149 HD
BRANCH  23  25
ATOM     25  C   UNL     1      -4.555 -14.524  14.105  0.00  0.00    +0.051 A 
ATOM     29  C   UNL     1      -4.932 -14.505  12.763  0.00  0.00    +0.071 A 
ATOM     30  C   UNL     1      -3.239 -14.234  14.465  0.00  0.00    +0.014 A 
ATOM     33  C   UNL     1      -3.991 -14.197  11.779  0.00  0.00    +0.016 A 
ATOM     35  C   UNL     1      -2.299 -13.925  13.481  0.00  0.00    +0.001 A 
ATOM     37  C   UNL     1      -2.675 -13.906  12.139  0.00  0.00    +0.001 A 
BRANCH  29  36
ATOM      6  O   UNL     1      -6.690 -15.885  11.911  0.00  0.00    -0.245 OA
ATOM     36  C   UNL     1      -6.298 -14.803  12.355  0.00  0.00    +0.338 C 
BRANCH  36   5
ATOM      5  O   UNL     1      -7.130 -13.739  12.518  0.00  0.00    -0.477 OA
ATOM     40  H   UNL     1      -7.962 -13.993  12.973  0.00  0.00    +0.295 HD
ENDBRANCH  36   5
ENDBRANCH  29  36
ENDBRANCH  23  25
ENDBRANCH  18   8
ENDBRANCH  13  18
TORSDOF 8
ENDMDL
MODEL 6
REMARK VINA RESULT:      -7.1      4.504      7.839
REMARK  Name = 40777145
REMARK  9 active torsions:
REMARK  status: ('A' for Active; 'I' for Inactive)
REMARK    1  A    between atoms: O_5  and  C_36
REMARK    2  A    between atoms: N_8  and  C_18
REMARK    3  A    between atoms: C_12  and  C_19
REMARK    4  A    between atoms: C_13  and  C_18
REMARK    5  A    between atoms: C_21  and  C_24
REMARK    6  A    between atoms: C_22  and  C_26
REMARK    7  A    between atoms: C_23  and  C_25
REMARK    8  A    between atoms: C_29  and  C_36
REMARK    9  A    between atoms: C_34  and  C_38
REMARK                            x       y       z     vdW  Elec       q    Type
REMARK                         _______ _______ _______ _____ _____    ______ ____
ROOT
ATOM      7  N   UNL     1      10.056   7.124   7.652  0.00  0.00    -0.297 NA
ATOM     11  C   UNL     1       9.719   5.296   5.828  0.00  0.00    +0.002 C 
ATOM     12  C   UNL     1      11.097   5.990   5.653  0.00  0.00    +0.055 C 
ATOM     13  C   UNL     1       8.734   7.299   6.996  0.00  0.00    +0.074 C 
ATOM     14  C   UNL     1       8.602   6.359   5.778  0.00  0.00    +0.024 C 
ATOM     15  C   UNL     1       9.703   4.689   7.248  0.00  0.00    +0.019 C 
ATOM     16  C   UNL     1      11.140   7.193   6.639  0.00  0.00    +0.094 C 
ATOM     17  C   UNL     1      10.083   5.776   8.267  0.00  0.00    +0.085 C 
ENDROOT
BRANCH  12  19
ATOM      9  N   UNL     1      11.945   7.654   4.074  0.00  0.00    -0.237 NA
ATOM     10  N   UNL     1      12.324   7.143   1.749  0.00  0.00    -0.232 NA
ATOM     19  C   UNL     1      11.532   6.381   4.248  0.00  0.00    +0.050 A 
ATOM     20  C   UNL     1      11.486   5.445   3.235  0.00  0.00    +0.052 A 
ATOM     21  C   UNL     1      11.898   5.886   1.995  0.00  0.00    +0.075 A 
ATOM     22  C   UNL     1      12.321   7.963   2.817  0.00  0.00    +0.127 A 
ATOM     26  C   UNL     1      12.783   9.362   2.585  0.00  0.00    +0.088 C 
BRANCH  21  24
ATOM     24  C   UNL     1      11.897   5.005   0.851  0.00  0.00    +0.000 A 
ATOM     27  C   UNL     1      10.869   5.081  -0.087  0.00  0.00    +0.010 A 
ATOM     28  C   UNL     1      12.927   4.078   0.684  0.00  0.00    +0.010 A 
ATOM     31  C   UNL     1      10.867   4.231  -1.193  0.00  0.00    +0.013 A 
ATOM     32  C   UNL     1      12.926   3.228  -0.422  0.00  0.00    +0.013 A 
ATOM     34  C   UNL     1      11.897   3.305  -1.361  0.00  0.00    +0.055 A 
BRANCH  34  38
ATOM      1  F   UNL     1      10.775   2.500  -3.314  0.00  0.00    -0.166 F 
ATOM      2  F   UNL     1      11.975   1.078  -2.190  0.00  0.00    -0.166 F 
ATOM      3  F   UNL     1      12.939   2.608  -3.397  0.00  0.00    -0.166 F 
ATOM     38  C   UNL     1      11.897   2.395  -2.542  0.00  0.00    +0.417 C 
ENDBRANCH  34  38
ENDBRANCH  21  24
ENDBRANCH  12  19
BRANCH  13  18
ATOM     18  C   UNL     1       8.456   8.757   6.624  0.00  0.00    +0.123 C 
BRANCH  18   8
ATOM      4  O   UNL     1       7.981  11.119   5.062  0.00  0.00    -0.270 OA
ATOM      8  N   UNL     1       7.708   8.841   5.408  0.00  0.00    -0.310 N 
ATOM     23  C   UNL     1       7.526  10.034   4.711  0.00  0.00    +0.245 C 
ATOM     39  H   UNL     1       7.279   7.990   5.052  0.00  0.00    +0.149 HD
BRANCH  23  25
ATOM     25  C   UNL     1       6.700   9.958   3.478  0.00  0.00    +0.051 A 
ATOM     29  C   UNL     1       7.242   9.524   2.269  0.00  0.00    +0.071 A 
ATOM     30  C   UNL     1       5.357  10.331   3.548  0.00  0.00    +0.014 A 
ATOM     33  C   UNL     1       6.441   9.463   1.128  0.00  0.00    +0.016 A 
ATOM     35  C   UNL     1       4.556  10.269   2.407  0.00  0.00    +0.001 A 
ATOM     37  C   UNL     1       5.098   9.835   1.198  0.00  0.00    +0.001 A 
BRANCH  29  36
ATOM      6  O   UNL     1       9.563   9.859   1.796  0.00  0.00    -0.245 OA
ATOM     36  C   UNL     1       8.640   9.128   2.164  0.00  0.00    +0.338 C 
BRANCH  36   5
ATOM      5  O   UNL     1       8.838   7.831   2.525  0.00  0.00    -0.477 OA
ATOM     40  H   UNL     1       8.370   7.608   3.358  0.00  0.00    +0.295 HD
ENDBRANCH  36   5
ENDBRANCH  29  36
ENDBRANCH  23  25
ENDBRANCH  18   8
ENDBRANCH  13  18
TORSDOF 8
ENDMDL
MODEL 7
REMARK VINA RESULT:      -7.1     26.314     29.368
REMARK  Name = 40777145
REMARK  9 active torsions:
REMARK  status: ('A' for Active; 'I' for Inactive)
REMARK    1  A    between atoms: O_5  and  C_36
REMARK    2  A    between atoms: N_8  and  C_18
REMARK    3  A    between atoms: C_12  and  C_19
REMARK    4  A    between atoms: C_13  and  C_18
REMARK    5  A    between atoms: C_21  and  C_24
REMARK    6  A    between atoms: C_22  and  C_26
REMARK    7  A    between atoms: C_23  and  C_25
REMARK    8  A    between atoms: C_29  and  C_36
REMARK    9  A    between atoms: C_34  and  C_38
REMARK                            x       y       z     vdW  Elec       q    Type
REMARK                         _______ _______ _______ _____ _____    ______ ____
ROOT
ATOM      7  N   UNL     1     -11.064 -12.296  19.609  0.00  0.00    -0.297 NA
ATOM     11  C   UNL     1     -10.850  -9.985  18.424  0.00  0.00    +0.002 C 
ATOM     12  C   UNL     1     -11.178 -11.097  17.391  0.00  0.00    +0.055 C 
ATOM     13  C   UNL     1      -9.802 -11.626  20.023  0.00  0.00    +0.074 C 
ATOM     14  C   UNL     1      -9.557 -10.356  19.180  0.00  0.00    +0.024 C 
ATOM     15  C   UNL     1     -11.996  -9.987  19.459  0.00  0.00    +0.019 C 
ATOM     16  C   UNL     1     -11.089 -12.462  18.133  0.00  0.00    +0.094 C 
ATOM     17  C   UNL     1     -12.192 -11.416  19.995  0.00  0.00    +0.085 C 
ENDROOT
BRANCH  12  19
ATOM      9  N   UNL     1     -11.008 -10.504  15.024  0.00  0.00    -0.237 NA
ATOM     10  N   UNL     1      -9.089 -11.089  13.688  0.00  0.00    -0.232 NA
ATOM     19  C   UNL     1     -10.412 -11.106  16.076  0.00  0.00    +0.050 A 
ATOM     20  C   UNL     1      -9.175 -11.713  16.011  0.00  0.00    +0.052 A 
ATOM     21  C   UNL     1      -8.554 -11.674  14.781  0.00  0.00    +0.075 A 
ATOM     22  C   UNL     1     -10.300 -10.533  13.879  0.00  0.00    +0.127 A 
ATOM     26  C   UNL     1     -10.926  -9.878  12.693  0.00  0.00    +0.088 C 
BRANCH  21  24
ATOM     24  C   UNL     1      -7.256 -12.274  14.581  0.00  0.00    +0.000 A 
ATOM     27  C   UNL     1      -6.798 -13.255  15.459  0.00  0.00    +0.010 A 
ATOM     28  C   UNL     1      -6.460 -11.873  13.506  0.00  0.00    +0.010 A 
ATOM     31  C   UNL     1      -5.545 -13.835  15.266  0.00  0.00    +0.013 A 
ATOM     32  C   UNL     1      -5.207 -12.454  13.313  0.00  0.00    +0.013 A 
ATOM     34  C   UNL     1      -4.750 -13.436  14.192  0.00  0.00    +0.055 A 
BRANCH  34  38
ATOM      1  F   UNL     1      -3.065 -14.952  14.956  0.00  0.00    -0.166 F 
ATOM      2  F   UNL     1      -2.402 -13.134  13.965  0.00  0.00    -0.166 F 
ATOM      3  F   UNL     1      -3.300 -14.743  12.810  0.00  0.00    -0.166 F 
ATOM     38  C   UNL     1      -3.409 -14.056  13.985  0.00  0.00    +0.417 C 
ENDBRANCH  34  38
ENDBRANCH  21  24
ENDBRANCH  12  19
BRANCH  13  18
ATOM     18  C   UNL     1      -8.601 -12.574  19.989  0.00  0.00    +0.123 C 
BRANCH  18   8
ATOM      4  O   UNL     1      -6.302 -10.915  20.442  0.00  0.00    -0.270 OA
ATOM      8  N   UNL     1      -7.646 -12.153  19.012  0.00  0.00    -0.310 N 
ATOM     23  C   UNL     1      -6.553 -11.344  19.319  0.00  0.00    +0.245 C 
ATOM     39  H   UNL     1      -7.787 -12.448  18.049  0.00  0.00    +0.149 HD
BRANCH  23  25
ATOM     25  C   UNL     1      -5.668 -10.973  18.185  0.00  0.00    +0.051 A 
ATOM     29  C   UNL     1      -4.411 -11.555  18.027  0.00  0.00    +0.071 A 
ATOM     30  C   UNL     1      -6.118 -10.022  17.268  0.00  0.00    +0.014 A 
ATOM     33  C   UNL     1      -3.602 -11.187  16.951  0.00  0.00    +0.016 A 
ATOM     35  C   UNL     1      -5.309  -9.654  16.192  0.00  0.00    +0.001 A 
ATOM     37  C   UNL     1      -4.051 -10.236  16.034  0.00  0.00    +0.001 A 
BRANCH  29  36
ATOM      6  O   UNL     1      -3.340 -12.303  20.031  0.00  0.00    -0.245 OA
ATOM     36  C   UNL     1      -3.914 -12.551  18.967  0.00  0.00    +0.338 C 
BRANCH  36   5
ATOM      5  O   UNL     1      -4.152 -13.823  18.548  0.00  0.00    -0.477 OA
ATOM     40  H   UNL     1      -4.036 -14.474  19.273  0.00  0.00    +0.295 HD
ENDBRANCH  36   5
ENDBRANCH  29  36
ENDBRANCH  23  25
ENDBRANCH  18   8
ENDBRANCH  13  18
TORSDOF 8
ENDMDL
MODEL 8
REMARK VINA RESULT:      -7.0     23.535     25.620
REMARK  Name = 40777145
REMARK  9 active torsions:
REMARK  status: ('A' for Active; 'I' for Inactive)
REMARK    1  A    between atoms: O_5  and  C_36
REMARK    2  A    between atoms: N_8  and  C_18
REMARK    3  A    between atoms: C_12  and  C_19
REMARK    4  A    between atoms: C_13  and  C_18
REMARK    5  A    between atoms: C_21  and  C_24
REMARK    6  A    between atoms: C_22  and  C_26
REMARK    7  A    between atoms: C_23  and  C_25
REMARK    8  A    between atoms: C_29  and  C_36
REMARK    9  A    between atoms: C_34  and  C_38
REMARK                            x       y       z     vdW  Elec       q    Type
REMARK                         _______ _______ _______ _____ _____    ______ ____
ROOT
ATOM      7  N   UNL     1      -4.022  -9.728  11.709  0.00  0.00    -0.297 NA
ATOM     11  C   UNL     1      -4.856 -11.379   9.874  0.00  0.00    +0.002 C 
ATOM     12  C   UNL     1      -4.703  -9.948   9.289  0.00  0.00    +0.055 C 
ATOM     13  C   UNL     1      -5.184 -10.506  12.214  0.00  0.00    +0.074 C 
ATOM     14  C   UNL     1      -5.819 -11.337  11.079  0.00  0.00    +0.024 C 
ATOM     15  C   UNL     1      -3.469 -11.789  10.417  0.00  0.00    +0.019 C 
ATOM     16  C   UNL     1      -4.402  -8.990  10.477  0.00  0.00    +0.094 C 
ATOM     17  C   UNL     1      -2.950 -10.689  11.360  0.00  0.00    +0.085 C 
ENDROOT
BRANCH  12  19
ATOM      9  N   UNL     1      -5.865  -9.927   7.137  0.00  0.00    -0.237 NA
ATOM     10  N   UNL     1      -7.766  -8.506   6.719  0.00  0.00    -0.232 NA
ATOM     19  C   UNL     1      -5.807  -9.418   8.386  0.00  0.00    +0.050 A 
ATOM     20  C   UNL     1      -6.680  -8.464   8.867  0.00  0.00    +0.052 A 
ATOM     21  C   UNL     1      -7.649  -8.041   7.981  0.00  0.00    +0.075 A 
ATOM     22  C   UNL     1      -6.854  -9.432   6.369  0.00  0.00    +0.127 A 
ATOM     26  C   UNL     1      -6.950  -9.970   4.980  0.00  0.00    +0.088 C 
BRANCH  21  24
ATOM     24  C   UNL     1      -8.623  -7.045   8.360  0.00  0.00    +0.000 A 
ATOM     27  C   UNL     1      -8.322  -5.690   8.230  0.00  0.00    +0.010 A 
ATOM     28  C   UNL     1      -9.868  -7.439   8.853  0.00  0.00    +0.010 A 
ATOM     31  C   UNL     1      -9.263  -4.727   8.596  0.00  0.00    +0.013 A 
ATOM     32  C   UNL     1     -10.809  -6.477   9.218  0.00  0.00    +0.013 A 
ATOM     34  C   UNL     1     -10.507  -5.121   9.089  0.00  0.00    +0.055 A 
BRANCH  34  38
ATOM      1  F   UNL     1     -11.227  -2.841   9.014  0.00  0.00    -0.166 F 
ATOM      2  F   UNL     1     -11.630  -3.960  10.834  0.00  0.00    -0.166 F 
ATOM      3  F   UNL     1     -12.774  -4.361   9.028  0.00  0.00    -0.166 F 
ATOM     38  C   UNL     1     -11.514  -4.092   9.480  0.00  0.00    +0.417 C 
ENDBRANCH  34  38
ENDBRANCH  21  24
ENDBRANCH  12  19
BRANCH  13  18
ATOM     18  C   UNL     1      -6.215  -9.621  12.919  0.00  0.00    +0.123 C 
BRANCH  18   8
ATOM      4  O   UNL     1      -7.215 -11.718  14.607  0.00  0.00    -0.270 OA
ATOM      8  N   UNL     1      -6.079  -9.712  14.340  0.00  0.00    -0.310 N 
ATOM     23  C   UNL     1      -6.598 -10.770  15.085  0.00  0.00    +0.245 C 
ATOM     39  H   UNL     1      -5.596  -8.958  14.822  0.00  0.00    +0.149 HD
BRANCH  23  25
ATOM     25  C   UNL     1      -6.395 -10.702  16.556  0.00  0.00    +0.051 A 
ATOM     29  C   UNL     1      -5.152 -10.969  17.128  0.00  0.00    +0.071 A 
ATOM     30  C   UNL     1      -7.479 -10.364  17.366  0.00  0.00    +0.014 A 
ATOM     33  C   UNL     1      -4.991 -10.897  18.512  0.00  0.00    +0.016 A 
ATOM     35  C   UNL     1      -7.318 -10.292  18.750  0.00  0.00    +0.001 A 
ATOM     37  C   UNL     1      -6.075 -10.559  19.323  0.00  0.00    +0.001 A 
BRANCH  29  36
ATOM      6  O   UNL     1      -3.279 -10.525  15.708  0.00  0.00    -0.245 OA
ATOM     36  C   UNL     1      -4.001 -11.324  16.308  0.00  0.00    +0.338 C 
BRANCH  36   5
ATOM      5  O   UNL     1      -3.790 -12.668  16.267  0.00  0.00    -0.477 OA
ATOM     40  H   UNL     1      -4.111 -13.112  17.081  0.00  0.00    +0.295 HD
ENDBRANCH  36   5
ENDBRANCH  29  36
ENDBRANCH  23  25
ENDBRANCH  18   8
ENDBRANCH  13  18
TORSDOF 8
ENDMDL
MODEL 9
REMARK VINA RESULT:      -6.9     12.843     16.707
REMARK  Name = 40777145
REMARK  9 active torsions:
REMARK  status: ('A' for Active; 'I' for Inactive)
REMARK    1  A    between atoms: O_5  and  C_36
REMARK    2  A    between atoms: N_8  and  C_18
REMARK    3  A    between atoms: C_12  and  C_19
REMARK    4  A    between atoms: C_13  and  C_18
REMARK    5  A    between atoms: C_21  and  C_24
REMARK    6  A    between atoms: C_22  and  C_26
REMARK    7  A    between atoms: C_23  and  C_25
REMARK    8  A    between atoms: C_29  and  C_36
REMARK    9  A    between atoms: C_34  and  C_38
REMARK                            x       y       z     vdW  Elec       q    Type
REMARK                         _______ _______ _______ _____ _____    ______ ____
ROOT
ATOM      7  N   UNL     1      11.061   7.650  20.562  0.00  0.00    -0.297 NA
ATOM     11  C   UNL     1      12.185   9.319  22.216  0.00  0.00    +0.002 C 
ATOM     12  C   UNL     1      11.841  10.029  20.879  0.00  0.00    +0.055 C 
ATOM     13  C   UNL     1      12.309   7.058  21.112  0.00  0.00    +0.074 C 
ATOM     14  C   UNL     1      13.094   8.105  21.930  0.00  0.00    +0.024 C 
ATOM     15  C   UNL     1      10.858   8.767  22.782  0.00  0.00    +0.019 C 
ATOM     16  C   UNL     1      11.366   8.934  19.881  0.00  0.00    +0.094 C 
ATOM     17  C   UNL     1      10.153   7.934  21.698  0.00  0.00    +0.085 C 
ENDROOT
BRANCH  12  19
ATOM      9  N   UNL     1      13.576  11.736  21.121  0.00  0.00    -0.237 NA
ATOM     10  N   UNL     1      14.765  12.637  19.229  0.00  0.00    -0.232 NA
ATOM     19  C   UNL     1      12.883  10.954  20.267  0.00  0.00    +0.050 A 
ATOM     20  C   UNL     1      13.071  10.958  18.900  0.00  0.00    +0.052 A 
ATOM     21  C   UNL     1      14.035  11.828  18.432  0.00  0.00    +0.075 A 
ATOM     22  C   UNL     1      14.487  12.541  20.543  0.00  0.00    +0.127 A 
ATOM     26  C   UNL     1      15.272  13.422  21.455  0.00  0.00    +0.088 C 
BRANCH  21  24
ATOM     24  C   UNL     1      14.328  11.929  17.022  0.00  0.00    +0.000 A 
ATOM     27  C   UNL     1      14.710  10.795  16.306  0.00  0.00    +0.010 A 
ATOM     28  C   UNL     1      14.226  13.161  16.375  0.00  0.00    +0.010 A 
ATOM     31  C   UNL     1      14.993  10.891  14.944  0.00  0.00    +0.013 A 
ATOM     32  C   UNL     1      14.508  13.258  15.013  0.00  0.00    +0.013 A 
ATOM     34  C   UNL     1      14.891  12.123  14.297  0.00  0.00    +0.055 A 
BRANCH  34  38
ATOM      1  F   UNL     1      15.929  13.330  12.512  0.00  0.00    -0.166 F 
ATOM      2  F   UNL     1      14.066  12.298  12.074  0.00  0.00    -0.166 F 
ATOM      3  F   UNL     1      15.902  11.167  12.351  0.00  0.00    -0.166 F 
ATOM     38  C   UNL     1      15.193  12.227  12.840  0.00  0.00    +0.417 C 
ENDBRANCH  34  38
ENDBRANCH  21  24
ENDBRANCH  12  19
BRANCH  13  18
ATOM     18  C   UNL     1      13.176   6.414  20.027  0.00  0.00    +0.123 C 
BRANCH  18   8
ATOM      4  O   UNL     1      15.229   7.804  18.579  0.00  0.00    -0.270 OA
ATOM      8  N   UNL     1      14.562   6.489  20.371  0.00  0.00    -0.310 N 
ATOM     23  C   UNL     1      15.496   7.189  19.608  0.00  0.00    +0.245 C 
ATOM     39  H   UNL     1      14.876   5.992  21.201  0.00  0.00    +0.149 HD
BRANCH  23  25
ATOM     25  C   UNL     1      16.902   7.147  20.085  0.00  0.00    +0.051 A 
ATOM     29  C   UNL     1      17.446   8.193  20.830  0.00  0.00    +0.071 A 
ATOM     30  C   UNL     1      17.681   6.032  19.775  0.00  0.00    +0.014 A 
ATOM     33  C   UNL     1      18.770   8.125  21.265  0.00  0.00    +0.016 A 
ATOM     35  C   UNL     1      19.006   5.964  20.210  0.00  0.00    +0.001 A 
ATOM     37  C   UNL     1      19.549   7.010  20.955  0.00  0.00    +0.001 A 
BRANCH  29  36
ATOM      6  O   UNL     1      16.137   9.587  22.268  0.00  0.00    -0.245 OA
ATOM     36  C   UNL     1      16.657   9.370  21.171  0.00  0.00    +0.338 C 
BRANCH  36   5
ATOM      5  O   UNL     1      16.546  10.238  20.129  0.00  0.00    -0.477 OA
ATOM     40  H   UNL     1      16.477  11.168  20.435  0.00  0.00    +0.295 HD
ENDBRANCH  36   5
ENDBRANCH  29  36
ENDBRANCH  23  25
ENDBRANCH  18   8
ENDBRANCH  13  18
TORSDOF 8
ENDMDL
MODEL 10
REMARK VINA RESULT:      -6.9      2.415      5.432
REMARK  Name = 40777145
REMARK  9 active torsions:
REMARK  status: ('A' for Active; 'I' for Inactive)
REMARK    1  A    between atoms: O_5  and  C_36
REMARK    2  A    between atoms: N_8  and  C_18
REMARK    3  A    between atoms: C_12  and  C_19
REMARK    4  A    between atoms: C_13  and  C_18
REMARK    5  A    between atoms: C_21  and  C_24
REMARK    6  A    between atoms: C_22  and  C_26
REMARK    7  A    between atoms: C_23  and  C_25
REMARK    8  A    between atoms: C_29  and  C_36
REMARK    9  A    between atoms: C_34  and  C_38
REMARK                            x       y       z     vdW  Elec       q    Type
REMARK                         _______ _______ _______ _____ _____    ______ ____
ROOT
ATOM      7  N   UNL     1       8.667  11.942   1.896  0.00  0.00    -0.297 NA
ATOM     11  C   UNL     1       8.019  11.703   4.408  0.00  0.00    +0.002 C 
ATOM     12  C   UNL     1       9.548  11.927   4.261  0.00  0.00    +0.055 C 
ATOM     13  C   UNL     1       7.826  10.731   2.092  0.00  0.00    +0.074 C 
ATOM     14  C   UNL     1       7.604  10.459   3.595  0.00  0.00    +0.024 C 
ATOM     15  C   UNL     1       7.326  12.921   3.757  0.00  0.00    +0.019 C 
ATOM     16  C   UNL     1       9.884  11.857   2.743  0.00  0.00    +0.094 C 
ATOM     17  C   UNL     1       7.879  13.118   2.335  0.00  0.00    +0.085 C 
ENDROOT
BRANCH  12  19
ATOM      9  N   UNL     1      11.787  11.423   5.107  0.00  0.00    -0.237 NA
ATOM     10  N   UNL     1      12.215   9.566   6.582  0.00  0.00    -0.232 NA
ATOM     19  C   UNL     1      10.485  11.069   5.098  0.00  0.00    +0.050 A 
ATOM     20  C   UNL     1       9.980   9.990   5.796  0.00  0.00    +0.052 A 
ATOM     21  C   UNL     1      10.899   9.268   6.527  0.00  0.00    +0.075 A 
ATOM     22  C   UNL     1      12.584  10.639   5.858  0.00  0.00    +0.127 A 
ATOM     26  C   UNL     1      14.031  10.999   5.891  0.00  0.00    +0.088 C 
BRANCH  21  24
ATOM     24  C   UNL     1      10.499   8.116   7.300  0.00  0.00    +0.000 A 
ATOM     27  C   UNL     1      11.345   7.012   7.396  0.00  0.00    +0.010 A 
ATOM     28  C   UNL     1       9.266   8.109   7.954  0.00  0.00    +0.010 A 
ATOM     31  C   UNL     1      10.960   5.900   8.143  0.00  0.00    +0.013 A 
ATOM     32  C   UNL     1       8.881   6.997   8.702  0.00  0.00    +0.013 A 
ATOM     34  C   UNL     1       9.728   5.892   8.797  0.00  0.00    +0.055 A 
BRANCH  34  38
ATOM      1  F   UNL     1      10.199   4.372  10.583  0.00  0.00    -0.166 F 
ATOM      2  F   UNL     1       9.181   3.578   8.833  0.00  0.00    -0.166 F 
ATOM      3  F   UNL     1       8.115   4.859  10.229  0.00  0.00    -0.166 F 
ATOM     38  C   UNL     1       9.314   4.703   9.596  0.00  0.00    +0.417 C 
ENDBRANCH  34  38
ENDBRANCH  21  24
ENDBRANCH  12  19
BRANCH  13  18
ATOM     18  C   UNL     1       8.389   9.507   1.367  0.00  0.00    +0.123 C 
BRANCH  18   8
ATOM      4  O   UNL     1      10.762   8.514   2.643  0.00  0.00    -0.270 OA
ATOM      8  N   UNL     1       8.478   8.386   2.251  0.00  0.00    -0.310 N 
ATOM     23  C   UNL     1       9.677   7.971   2.829  0.00  0.00    +0.245 C 
ATOM     39  H   UNL     1       7.628   7.865   2.448  0.00  0.00    +0.149 HD
BRANCH  23  25
ATOM     25  C   UNL     1       9.606   6.772   3.704  0.00  0.00    +0.051 A 
ATOM     29  C   UNL     1      10.569   5.767   3.635  0.00  0.00    +0.071 A 
ATOM     30  C   UNL     1       8.549   6.665   4.608  0.00  0.00    +0.014 A 
ATOM     33  C   UNL     1      10.476   4.652   4.470  0.00  0.00    +0.016 A 
ATOM     35  C   UNL     1       8.456   5.551   5.444  0.00  0.00    +0.001 A 
ATOM     37  C   UNL     1       9.419   4.545   5.374  0.00  0.00    +0.001 A 
BRANCH  29  36
ATOM      6  O   UNL     1      11.647   5.521   1.513  0.00  0.00    -0.245 OA
ATOM     36  C   UNL     1      11.685   5.850   2.702  0.00  0.00    +0.338 C 
BRANCH  36   5
ATOM      5  O   UNL     1      12.811   6.343   3.284  0.00  0.00    -0.477 OA
ATOM     40  H   UNL     1      13.445   5.630   3.515  0.00  0.00    +0.295 HD
ENDBRANCH  36   5
ENDBRANCH  29  36
ENDBRANCH  23  25
ENDBRANCH  18   8
ENDBRANCH  13  18
TORSDOF 8
ENDMDL
