REMARK  Name = 7143727
REMARK  5 active torsions:
REMARK  status: ('A' for Active; 'I' for Inactive)
REMARK    1  A    between atoms: S_1  and  N_5
REMARK    2  A    between atoms: S_1  and  C_16
REMARK    3  A    between atoms: C_16  and  C_19
REMARK    4  A    between atoms: C_17  and  C_20
REMARK    5  A    between atoms: C_19  and  C_21
REMARK                            x       y       z     vdW  Elec       q    Type
REMARK                         _______ _______ _______ _____ _____    ______ ____
ROOT
ATOM      4  O   UNL     1      -1.109   1.228  -1.829  0.00  0.00    -0.267 OA
ATOM      5  N   UNL     1       3.419  -0.096  -0.220  0.00  0.00    -0.180 NA
ATOM      6  N   UNL     1       0.732   1.552  -0.435  0.00  0.00    -0.311 N 
ATOM      7  C   UNL     1       3.064   2.108  -1.337  0.00  0.00    +0.025 C 
ATOM      8  C   UNL     1       2.711   1.899   1.084  0.00  0.00    +0.052 C 
ATOM      9  C   UNL     1       3.256   2.820  -0.005  0.00  0.00    +0.017 C 
ATOM     10  C   UNL     1       3.833   0.777  -1.355  0.00  0.00    +0.114 C 
ATOM     11  C   UNL     1       3.521   0.590   1.103  0.00  0.00    +0.118 C 
ATOM     12  C   UNL     1       1.563   1.921  -1.590  0.00  0.00    +0.130 C 
ATOM     13  C   UNL     1       1.239   1.606   0.865  0.00  0.00    +0.026 A 
ATOM     14  C   UNL     1       0.430   1.379   1.913  0.00  0.00    +0.022 A 
ATOM     15  C   UNL     1      -0.618   1.250  -0.699  0.00  0.00    +0.259 A 
ATOM     17  C   UNL     1      -1.492   0.964   0.493  0.00  0.00    +0.047 A 
ATOM     18  C   UNL     1      -0.953   1.048   1.719  0.00  0.00    +0.015 A 
ENDROOT
BRANCH  17  20
ATOM     20  C   UNL     1      -2.908   0.592   0.331  0.00  0.00    -0.012 A 
ATOM     22  C   UNL     1      -3.266  -0.750   0.195  0.00  0.00    +0.017 A 
ATOM     23  C   UNL     1      -3.889   1.579   0.312  0.00  0.00    +0.009 A 
ATOM     24  C   UNL     1      -4.612  -1.121   0.040  0.00  0.00    -0.017 A 
ATOM     25  C   UNL     1      -5.231   1.228   0.159  0.00  0.00    +0.009 A 
ATOM     26  C   UNL     1      -5.609  -0.117   0.021  0.00  0.00    -0.018 A 
ATOM     27  C   UNL     1      -4.990  -2.467  -0.098  0.00  0.00    +0.008 A 
ATOM     28  C   UNL     1      -6.955  -0.488  -0.134  0.00  0.00    +0.008 A 
ATOM     29  C   UNL     1      -6.332  -2.817  -0.252  0.00  0.00    +0.001 A 
ATOM     30  C   UNL     1      -7.312  -1.830  -0.270  0.00  0.00    +0.001 A 
ENDBRANCH  17  20
BRANCH   5   1
ATOM      1  S   UNL     1       4.008  -1.702  -0.268  0.00  0.00    +0.032 S 
ATOM      2  O   UNL     1       4.000  -2.161  -1.640  0.00  0.00    -0.158 OA
ATOM      3  O   UNL     1       3.380  -2.461   0.791  0.00  0.00    -0.158 OA
BRANCH   1  16
ATOM     16  C   UNL     1       5.693  -1.401   0.199  0.00  0.00    +0.185 C 
BRANCH  16  19
ATOM     19  C   UNL     1       6.494  -2.692   0.244  0.00  0.00    +0.021 C 
ATOM     21  C   UNL     1       7.933  -2.439   0.663  0.00  0.00    +0.005 C 
ENDBRANCH  16  19
ENDBRANCH   1  16
ENDBRANCH   5   1
TORSDOF 4
