MODEL 1
REMARK VINA RESULT:      -7.1      0.000      0.000
REMARK  Name = 44715958
REMARK  7 active torsions:
REMARK  status: ('A' for Active; 'I' for Inactive)
REMARK    1  A    between atoms: N_5  and  C_15
REMARK    2  A    between atoms: C_9  and  C_16
REMARK    3  A    between atoms: C_10  and  C_15
REMARK    4  A    between atoms: C_22  and  C_23
REMARK    5  A    between atoms: C_23  and  C_24
REMARK    6  A    between atoms: C_23  and  C_25
REMARK    7  A    between atoms: C_23  and  C_26
REMARK                            x       y       z     vdW  Elec       q    Type
REMARK                         _______ _______ _______ _____ _____    ______ ____
ROOT
ATOM      3  N   UNL     1      14.816   8.865  19.343  0.00  0.00    -0.297 NA
ATOM      8  C   UNL     1      12.228   9.096  19.201  0.00  0.00    +0.005 C 
ATOM      9  C   UNL     1      12.800   9.942  20.353  0.00  0.00    +0.092 C 
ATOM     10  C   UNL     1      14.187   7.518  19.331  0.00  0.00    +0.078 C 
ATOM     11  C   UNL     1      12.647   7.625  19.401  0.00  0.00    +0.025 C 
ATOM     12  C   UNL     1      12.900   9.592  17.907  0.00  0.00    +0.020 C 
ATOM     13  C   UNL     1      14.307   9.660  20.489  0.00  0.00    +0.097 C 
ATOM     14  C   UNL     1      14.429   9.560  18.090  0.00  0.00    +0.085 C 
ENDROOT
BRANCH   9  16
ATOM      1  O   UNL     1      12.032   8.538  22.102  0.00  0.00    -0.275 OA
ATOM      2  O   UNL     1      10.947  13.012  23.908  0.00  0.00    -0.377 OA
ATOM      4  N   UNL     1      11.487  10.789  22.263  0.00  0.00    -0.297 N 
ATOM     16  C   UNL     1      12.073   9.685  21.649  0.00  0.00    +0.220 C 
ATOM     17  C   UNL     1      10.766  10.628  23.525  0.00  0.00    +0.136 C 
ATOM     18  C   UNL     1      11.407  12.138  21.691  0.00  0.00    +0.136 C 
ATOM     20  C   UNL     1      11.155  11.729  24.502  0.00  0.00    +0.179 C 
ATOM     21  C   UNL     1      11.765  13.178  22.746  0.00  0.00    +0.179 C 
ENDBRANCH   9  16
BRANCH  10  15
ATOM     15  C   UNL     1      14.744   6.604  20.423  0.00  0.00    +0.164 C 
BRANCH  15   5
ATOM      5  N   UNL     1      16.221   6.379  20.255  0.00  0.00    -0.250 N 
ATOM      6  N   UNL     1      16.711   5.862  19.118  0.00  0.00    -0.065 NA
ATOM      7  N   UNL     1      18.029   5.776  19.259  0.00  0.00    -0.134 NA
ATOM     19  C   UNL     1      17.208   6.639  21.155  0.00  0.00    +0.134 A 
ATOM     22  C   UNL     1      18.350   6.247  20.501  0.00  0.00    +0.088 A 
BRANCH  22  23
ATOM     23  C   UNL     1      19.742   6.283  20.967  0.00  0.00    +0.008 C 
ATOM     24  C   UNL     1      19.837   6.361  22.532  0.00  0.00    +0.017 C 
ATOM     25  C   UNL     1      20.542   5.007  20.530  0.00  0.00    +0.017 C 
ATOM     26  C   UNL     1      20.614   7.491  20.459  0.00  0.00    +0.017 C 
ENDBRANCH  22  23
ENDBRANCH  15   5
ENDBRANCH  10  15
TORSDOF 4
ENDMDL
MODEL 2
REMARK VINA RESULT:      -6.3     18.256     21.195
REMARK  Name = 44715958
REMARK  7 active torsions:
REMARK  status: ('A' for Active; 'I' for Inactive)
REMARK    1  A    between atoms: N_5  and  C_15
REMARK    2  A    between atoms: C_9  and  C_16
REMARK    3  A    between atoms: C_10  and  C_15
REMARK    4  A    between atoms: C_22  and  C_23
REMARK    5  A    between atoms: C_23  and  C_24
REMARK    6  A    between atoms: C_23  and  C_25
REMARK    7  A    between atoms: C_23  and  C_26
REMARK                            x       y       z     vdW  Elec       q    Type
REMARK                         _______ _______ _______ _____ _____    ______ ____
ROOT
ATOM      3  N   UNL     1      13.102   5.842   1.392  0.00  0.00    -0.297 NA
ATOM      8  C   UNL     1      12.751   3.310   0.906  0.00  0.00    +0.005 C 
ATOM      9  C   UNL     1      12.599   4.150  -0.376  0.00  0.00    +0.092 C 
ATOM     10  C   UNL     1      12.090   5.282   2.327  0.00  0.00    +0.078 C 
ATOM     11  C   UNL     1      11.749   3.819   1.962  0.00  0.00    +0.025 C 
ATOM     12  C   UNL     1      14.166   3.578   1.449  0.00  0.00    +0.020 C 
ATOM     13  C   UNL     1      12.669   5.644  -0.013  0.00  0.00    +0.097 C 
ATOM     14  C   UNL     1      14.370   5.098   1.595  0.00  0.00    +0.085 C 
ENDROOT
BRANCH   9  16
ATOM      1  O   UNL     1      10.239   4.066  -0.578  0.00  0.00    -0.275 OA
ATOM      2  O   UNL     1      11.645   2.830  -5.155  0.00  0.00    -0.377 OA
ATOM      4  N   UNL     1      11.464   3.255  -2.376  0.00  0.00    -0.297 N 
ATOM     16  C   UNL     1      11.323   3.822  -1.111  0.00  0.00    +0.220 C 
ATOM     17  C   UNL     1      10.278   2.909  -3.159  0.00  0.00    +0.136 C 
ATOM     18  C   UNL     1      12.731   2.836  -2.985  0.00  0.00    +0.136 C 
ATOM     20  C   UNL     1      10.442   3.367  -4.601  0.00  0.00    +0.179 C 
ATOM     21  C   UNL     1      12.793   3.292  -4.438  0.00  0.00    +0.179 C 
ENDBRANCH   9  16
BRANCH  10  15
ATOM     15  C   UNL     1      10.835   6.152   2.418  0.00  0.00    +0.164 C 
BRANCH  15   5
ATOM      5  N   UNL     1      10.279   6.174   3.815  0.00  0.00    -0.250 N 
ATOM      6  N   UNL     1       9.016   6.565   4.045  0.00  0.00    -0.065 NA
ATOM      7  N   UNL     1       8.810   6.485   5.355  0.00  0.00    -0.134 NA
ATOM     19  C   UNL     1      10.917   5.833   4.968  0.00  0.00    +0.134 A 
ATOM     22  C   UNL     1       9.964   6.039   5.935  0.00  0.00    +0.088 A 
BRANCH  22  23
ATOM     23  C   UNL     1      10.063   5.846   7.387  0.00  0.00    +0.008 C 
ATOM     24  C   UNL     1      11.490   6.203   7.933  0.00  0.00    +0.017 C 
ATOM     25  C   UNL     1       9.043   6.743   8.171  0.00  0.00    +0.017 C 
ATOM     26  C   UNL     1       9.793   4.387   7.913  0.00  0.00    +0.017 C 
ENDBRANCH  22  23
ENDBRANCH  15   5
ENDBRANCH  10  15
TORSDOF 4
ENDMDL
MODEL 3
REMARK VINA RESULT:      -6.2     27.747     29.698
REMARK  Name = 44715958
REMARK  7 active torsions:
REMARK  status: ('A' for Active; 'I' for Inactive)
REMARK    1  A    between atoms: N_5  and  C_15
REMARK    2  A    between atoms: C_9  and  C_16
REMARK    3  A    between atoms: C_10  and  C_15
REMARK    4  A    between atoms: C_22  and  C_23
REMARK    5  A    between atoms: C_23  and  C_24
REMARK    6  A    between atoms: C_23  and  C_25
REMARK    7  A    between atoms: C_23  and  C_26
REMARK                            x       y       z     vdW  Elec       q    Type
REMARK                         _______ _______ _______ _____ _____    ______ ____
ROOT
ATOM      3  N   UNL     1      -5.636 -11.992  15.719  0.00  0.00    -0.297 NA
ATOM      8  C   UNL     1      -5.348 -10.658  17.934  0.00  0.00    +0.005 C 
ATOM      9  C   UNL     1      -6.554 -11.613  18.011  0.00  0.00    +0.092 C 
ATOM     10  C   UNL     1      -5.550 -10.537  15.427  0.00  0.00    +0.078 C 
ATOM     11  C   UNL     1      -5.532  -9.710  16.732  0.00  0.00    +0.025 C 
ATOM     12  C   UNL     1      -4.110 -11.527  17.647  0.00  0.00    +0.020 C 
ATOM     13  C   UNL     1      -6.770 -12.267  16.635  0.00  0.00    +0.097 C 
ATOM     14  C   UNL     1      -4.380 -12.394  16.403  0.00  0.00    +0.085 C 
ENDROOT
BRANCH   9  16
ATOM      1  O   UNL     1      -8.076  -9.795  18.020  0.00  0.00    -0.275 OA
ATOM      2  O   UNL     1     -10.525 -13.119  20.742  0.00  0.00    -0.377 OA
ATOM      4  N   UNL     1      -8.569 -11.568  19.435  0.00  0.00    -0.297 N 
ATOM     16  C   UNL     1      -7.798 -10.903  18.484  0.00  0.00    +0.220 C 
ATOM     17  C   UNL     1      -9.794 -10.953  19.945  0.00  0.00    +0.136 C 
ATOM     18  C   UNL     1      -8.203 -12.823  20.101  0.00  0.00    +0.136 C 
ATOM     20  C   UNL     1     -10.923 -11.973  19.986  0.00  0.00    +0.179 C 
ATOM     21  C   UNL     1      -9.400 -13.766  20.140  0.00  0.00    +0.179 C 
ENDBRANCH   9  16
BRANCH  10  15
ATOM     15  C   UNL     1      -6.648 -10.068  14.471  0.00  0.00    +0.164 C 
BRANCH  15   5
ATOM      5  N   UNL     1      -6.099  -9.764  13.105  0.00  0.00    -0.250 N 
ATOM      6  N   UNL     1      -6.732  -8.911  12.285  0.00  0.00    -0.065 NA
ATOM      7  N   UNL     1      -6.025  -8.844  11.162  0.00  0.00    -0.134 NA
ATOM     19  C   UNL     1      -4.971 -10.266  12.533  0.00  0.00    +0.134 A 
ATOM     22  C   UNL     1      -4.943  -9.669  11.298  0.00  0.00    +0.088 A 
BRANCH  22  23
ATOM     23  C   UNL     1      -3.960  -9.820  10.218  0.00  0.00    +0.008 C 
ATOM     24  C   UNL     1      -4.237  -8.836   9.027  0.00  0.00    +0.017 C 
ATOM     25  C   UNL     1      -2.498  -9.534  10.708  0.00  0.00    +0.017 C 
ATOM     26  C   UNL     1      -3.881 -11.241   9.545  0.00  0.00    +0.017 C 
ENDBRANCH  22  23
ENDBRANCH  15   5
ENDBRANCH  10  15
TORSDOF 4
ENDMDL
MODEL 4
REMARK VINA RESULT:      -6.1     27.831     29.752
REMARK  Name = 44715958
REMARK  7 active torsions:
REMARK  status: ('A' for Active; 'I' for Inactive)
REMARK    1  A    between atoms: N_5  and  C_15
REMARK    2  A    between atoms: C_9  and  C_16
REMARK    3  A    between atoms: C_10  and  C_15
REMARK    4  A    between atoms: C_22  and  C_23
REMARK    5  A    between atoms: C_23  and  C_24
REMARK    6  A    between atoms: C_23  and  C_25
REMARK    7  A    between atoms: C_23  and  C_26
REMARK                            x       y       z     vdW  Elec       q    Type
REMARK                         _______ _______ _______ _____ _____    ______ ____
ROOT
ATOM      3  N   UNL     1      -5.189 -10.178  11.999  0.00  0.00    -0.297 NA
ATOM      8  C   UNL     1      -4.035  -9.521   9.761  0.00  0.00    +0.005 C 
ATOM      9  C   UNL     1      -5.033 -10.676   9.555  0.00  0.00    +0.092 C 
ATOM     10  C   UNL     1      -3.712 -10.173  12.173  0.00  0.00    +0.078 C 
ATOM     11  C   UNL     1      -2.997  -9.936  10.824  0.00  0.00    +0.025 C 
ATOM     12  C   UNL     1      -4.835  -8.339  10.339  0.00  0.00    +0.020 C 
ATOM     13  C   UNL     1      -5.577 -11.124  10.924  0.00  0.00    +0.097 C 
ATOM     14  C   UNL     1      -5.604  -8.814  11.587  0.00  0.00    +0.085 C 
ENDROOT
BRANCH   9  16
ATOM      1  O   UNL     1      -3.800 -12.698   9.437  0.00  0.00    -0.275 OA
ATOM      2  O   UNL     1      -5.461 -12.305   4.796  0.00  0.00    -0.377 OA
ATOM      4  N   UNL     1      -4.566 -11.829   7.424  0.00  0.00    -0.297 N 
ATOM     16  C   UNL     1      -4.407 -11.828   8.808  0.00  0.00    +0.220 C 
ATOM     17  C   UNL     1      -3.994 -12.912   6.624  0.00  0.00    +0.136 C 
ATOM     18  C   UNL     1      -5.169 -10.750   6.636  0.00  0.00    +0.136 C 
ATOM     20  C   UNL     1      -5.002 -13.399   5.593  0.00  0.00    +0.179 C 
ATOM     21  C   UNL     1      -6.126 -11.327   5.600  0.00  0.00    +0.179 C 
ENDBRANCH   9  16
BRANCH  10  15
ATOM     15  C   UNL     1      -3.203 -11.433  12.873  0.00  0.00    +0.164 C 
BRANCH  15   5
ATOM      5  N   UNL     1      -3.351 -11.334  14.366  0.00  0.00    -0.250 N 
ATOM      6  N   UNL     1      -2.431 -10.695  15.106  0.00  0.00    -0.065 NA
ATOM      7  N   UNL     1      -2.822 -10.772  16.373  0.00  0.00    -0.134 NA
ATOM     19  C   UNL     1      -4.354 -11.836  15.136  0.00  0.00    +0.134 A 
ATOM     22  C   UNL     1      -3.998 -11.468  16.409  0.00  0.00    +0.088 A 
BRANCH  22  23
ATOM     23  C   UNL     1      -4.691 -11.729  17.677  0.00  0.00    +0.008 C 
ATOM     24  C   UNL     1      -5.694 -10.580  18.046  0.00  0.00    +0.017 C 
ATOM     25  C   UNL     1      -5.524 -13.057  17.630  0.00  0.00    +0.017 C 
ATOM     26  C   UNL     1      -3.777 -11.879  18.950  0.00  0.00    +0.017 C 
ENDBRANCH  22  23
ENDBRANCH  15   5
ENDBRANCH  10  15
TORSDOF 4
ENDMDL
MODEL 5
REMARK VINA RESULT:      -6.1      2.834      4.685
REMARK  Name = 44715958
REMARK  7 active torsions:
REMARK  status: ('A' for Active; 'I' for Inactive)
REMARK    1  A    between atoms: N_5  and  C_15
REMARK    2  A    between atoms: C_9  and  C_16
REMARK    3  A    between atoms: C_10  and  C_15
REMARK    4  A    between atoms: C_22  and  C_23
REMARK    5  A    between atoms: C_23  and  C_24
REMARK    6  A    between atoms: C_23  and  C_25
REMARK    7  A    between atoms: C_23  and  C_26
REMARK                            x       y       z     vdW  Elec       q    Type
REMARK                         _______ _______ _______ _____ _____    ______ ____
ROOT
ATOM      3  N   UNL     1      12.919   8.418  20.187  0.00  0.00    -0.297 NA
ATOM      8  C   UNL     1      14.450  10.351  19.356  0.00  0.00    +0.005 C 
ATOM      9  C   UNL     1      13.432   9.941  18.275  0.00  0.00    +0.092 C 
ATOM     10  C   UNL     1      14.348   8.053  20.383  0.00  0.00    +0.078 C 
ATOM     11  C   UNL     1      15.280   9.115  19.759  0.00  0.00    +0.025 C 
ATOM     12  C   UNL     1      13.638  10.780  20.591  0.00  0.00    +0.020 C 
ATOM     13  C   UNL     1      12.653   8.704  18.756  0.00  0.00    +0.097 C 
ATOM     14  C   UNL     1      12.655   9.655  20.964  0.00  0.00    +0.085 C 
ENDROOT
BRANCH   9  16
ATOM      1  O   UNL     1      14.161   8.535  16.510  0.00  0.00    -0.275 OA
ATOM      2  O   UNL     1      14.988  13.014  14.583  0.00  0.00    -0.377 OA
ATOM      4  N   UNL     1      14.614  10.802  16.287  0.00  0.00    -0.297 N 
ATOM     16  C   UNL     1      14.101   9.687  16.947  0.00  0.00    +0.220 C 
ATOM     17  C   UNL     1      15.276  10.645  14.992  0.00  0.00    +0.136 C 
ATOM     18  C   UNL     1      14.674  12.162  16.834  0.00  0.00    +0.136 C 
ATOM     20  C   UNL     1      14.797  11.714  14.020  0.00  0.00    +0.179 C 
ATOM     21  C   UNL     1      14.225  13.171  15.783  0.00  0.00    +0.179 C 
ENDBRANCH   9  16
BRANCH  10  15
ATOM     15  C   UNL     1      14.666   6.647  19.873  0.00  0.00    +0.164 C 
BRANCH  15   5
ATOM      5  N   UNL     1      16.147   6.389  19.851  0.00  0.00    -0.250 N 
ATOM      6  N   UNL     1      16.729   5.815  18.787  0.00  0.00    -0.065 NA
ATOM      7  N   UNL     1      18.026   5.712  19.053  0.00  0.00    -0.134 NA
ATOM     19  C   UNL     1      17.052   6.670  20.828  0.00  0.00    +0.134 A 
ATOM     22  C   UNL     1      18.241   6.231  20.299  0.00  0.00    +0.088 A 
BRANCH  22  23
ATOM     23  C   UNL     1      19.585   6.262  20.890  0.00  0.00    +0.008 C 
ATOM     24  C   UNL     1      19.537   6.400  22.453  0.00  0.00    +0.017 C 
ATOM     25  C   UNL     1      20.396   4.956  20.578  0.00  0.00    +0.017 C 
ATOM     26  C   UNL     1      20.524   7.434  20.419  0.00  0.00    +0.017 C 
ENDBRANCH  22  23
ENDBRANCH  15   5
ENDBRANCH  10  15
TORSDOF 4
ENDMDL
MODEL 6
REMARK VINA RESULT:      -5.8     27.305     29.376
REMARK  Name = 44715958
REMARK  7 active torsions:
REMARK  status: ('A' for Active; 'I' for Inactive)
REMARK    1  A    between atoms: N_5  and  C_15
REMARK    2  A    between atoms: C_9  and  C_16
REMARK    3  A    between atoms: C_10  and  C_15
REMARK    4  A    between atoms: C_22  and  C_23
REMARK    5  A    between atoms: C_23  and  C_24
REMARK    6  A    between atoms: C_23  and  C_25
REMARK    7  A    between atoms: C_23  and  C_26
REMARK                            x       y       z     vdW  Elec       q    Type
REMARK                         _______ _______ _______ _____ _____    ______ ____
ROOT
ATOM      3  N   UNL     1      -5.653 -12.857  17.090  0.00  0.00    -0.297 NA
ATOM      8  C   UNL     1      -5.362 -10.458  18.054  0.00  0.00    +0.005 C 
ATOM      9  C   UNL     1      -6.813 -10.951  18.212  0.00  0.00    +0.092 C 
ATOM     10  C   UNL     1      -5.018 -11.976  16.074  0.00  0.00    +0.078 C 
ATOM     11  C   UNL     1      -4.972 -10.512  16.563  0.00  0.00    +0.025 C 
ATOM     12  C   UNL     1      -4.467 -11.466  18.798  0.00  0.00    +0.020 C 
ATOM     13  C   UNL     1      -6.968 -12.306  17.499  0.00  0.00    +0.097 C 
ATOM     14  C   UNL     1      -4.770 -12.885  18.284  0.00  0.00    +0.085 C 
ENDROOT
BRANCH   9  16
ATOM      1  O   UNL     1      -7.469  -9.173  16.788  0.00  0.00    -0.275 OA
ATOM      2  O   UNL     1     -11.786 -10.382  18.874  0.00  0.00    -0.377 OA
ATOM      4  N   UNL     1      -9.066  -9.946  18.286  0.00  0.00    -0.297 N 
ATOM     16  C   UNL     1      -7.805  -9.940  17.693  0.00  0.00    +0.220 C 
ATOM     17  C   UNL     1     -10.089  -9.000  17.839  0.00  0.00    +0.136 C 
ATOM     18  C   UNL     1      -9.457 -10.753  19.446  0.00  0.00    +0.136 C 
ATOM     20  C   UNL     1     -11.425  -9.708  17.666  0.00  0.00    +0.179 C 
ATOM     21  C   UNL     1     -10.824 -11.385  19.210  0.00  0.00    +0.179 C 
ENDBRANCH   9  16
BRANCH  10  15
ATOM     15  C   UNL     1      -5.680 -12.098  14.701  0.00  0.00    +0.164 C 
BRANCH  15   5
ATOM      5  N   UNL     1      -4.816 -11.514  13.618  0.00  0.00    -0.250 N 
ATOM      6  N   UNL     1      -3.488 -11.713  13.617  0.00  0.00    -0.065 NA
ATOM      7  N   UNL     1      -2.996 -11.082  12.557  0.00  0.00    -0.134 NA
ATOM     19  C   UNL     1      -5.210 -10.752  12.562  0.00  0.00    +0.134 A 
ATOM     22  C   UNL     1      -4.037 -10.488  11.900  0.00  0.00    +0.088 A 
BRANCH  22  23
ATOM     23  C   UNL     1      -3.819  -9.705  10.677  0.00  0.00    +0.008 C 
ATOM     24  C   UNL     1      -2.348  -9.169  10.576  0.00  0.00    +0.017 C 
ATOM     25  C   UNL     1      -4.082 -10.550   9.382  0.00  0.00    +0.017 C 
ATOM     26  C   UNL     1      -4.718  -8.424  10.504  0.00  0.00    +0.017 C 
ENDBRANCH  22  23
ENDBRANCH  15   5
ENDBRANCH  10  15
TORSDOF 4
ENDMDL
MODEL 7
REMARK VINA RESULT:      -5.8     14.541     17.982
REMARK  Name = 44715958
REMARK  7 active torsions:
REMARK  status: ('A' for Active; 'I' for Inactive)
REMARK    1  A    between atoms: N_5  and  C_15
REMARK    2  A    between atoms: C_9  and  C_16
REMARK    3  A    between atoms: C_10  and  C_15
REMARK    4  A    between atoms: C_22  and  C_23
REMARK    5  A    between atoms: C_23  and  C_24
REMARK    6  A    between atoms: C_23  and  C_25
REMARK    7  A    between atoms: C_23  and  C_26
REMARK                            x       y       z     vdW  Elec       q    Type
REMARK                         _______ _______ _______ _____ _____    ______ ____
ROOT
ATOM      3  N   UNL     1      10.728   7.211   6.186  0.00  0.00    -0.297 NA
ATOM      8  C   UNL     1       9.376   5.236   5.164  0.00  0.00    +0.005 C 
ATOM      9  C   UNL     1      10.637   5.537   4.333  0.00  0.00    +0.092 C 
ATOM     10  C   UNL     1       9.308   7.612   6.000  0.00  0.00    +0.078 C 
ATOM     11  C   UNL     1       8.517   6.514   5.255  0.00  0.00    +0.025 C 
ATOM     12  C   UNL     1       9.851   4.902   6.590  0.00  0.00    +0.020 C 
ATOM     13  C   UNL     1      11.321   6.799   4.890  0.00  0.00    +0.097 C 
ATOM     14  C   UNL     1      10.754   6.041   7.100  0.00  0.00    +0.085 C 
ENDROOT
BRANCH   9  16
ATOM      1  O   UNL     1       9.623   6.635   2.493  0.00  0.00    -0.275 OA
ATOM      2  O   UNL     1      12.449   3.294   0.188  0.00  0.00    -0.377 OA
ATOM      4  N   UNL     1      10.845   4.719   2.015  0.00  0.00    -0.297 N 
ATOM     16  C   UNL     1      10.317   5.686   2.867  0.00  0.00    +0.220 C 
ATOM     17  C   UNL     1      10.586   4.791   0.577  0.00  0.00    +0.136 C 
ATOM     18  C   UNL     1      11.564   3.513   2.438  0.00  0.00    +0.136 C 
ATOM     20  C   UNL     1      11.866   4.538  -0.206  0.00  0.00    +0.179 C 
ATOM     21  C   UNL     1      12.803   3.309   1.574  0.00  0.00    +0.179 C 
ENDBRANCH   9  16
BRANCH  10  15
ATOM     15  C   UNL     1       9.172   8.974   5.318  0.00  0.00    +0.164 C 
BRANCH  15   5
ATOM      5  N   UNL     1       9.418  10.101   6.282  0.00  0.00    -0.250 N 
ATOM      6  N   UNL     1       9.687  11.339   5.837  0.00  0.00    -0.065 NA
ATOM      7  N   UNL     1       9.860  12.112   6.903  0.00  0.00    -0.134 NA
ATOM     19  C   UNL     1       9.411  10.047   7.642  0.00  0.00    +0.134 A 
ATOM     22  C   UNL     1       9.695  11.336   8.016  0.00  0.00    +0.088 A 
BRANCH  22  23
ATOM     23  C   UNL     1       9.827  11.901   9.365  0.00  0.00    +0.008 C 
ATOM     24  C   UNL     1      11.222  11.575  10.006  0.00  0.00    +0.017 C 
ATOM     25  C   UNL     1       9.684  13.463   9.367  0.00  0.00    +0.017 C 
ATOM     26  C   UNL     1       8.779  11.406  10.430  0.00  0.00    +0.017 C 
ENDBRANCH  22  23
ENDBRANCH  15   5
ENDBRANCH  10  15
TORSDOF 4
ENDMDL
MODEL 8
REMARK VINA RESULT:      -5.8     28.136     29.755
REMARK  Name = 44715958
REMARK  7 active torsions:
REMARK  status: ('A' for Active; 'I' for Inactive)
REMARK    1  A    between atoms: N_5  and  C_15
REMARK    2  A    between atoms: C_9  and  C_16
REMARK    3  A    between atoms: C_10  and  C_15
REMARK    4  A    between atoms: C_22  and  C_23
REMARK    5  A    between atoms: C_23  and  C_24
REMARK    6  A    between atoms: C_23  and  C_25
REMARK    7  A    between atoms: C_23  and  C_26
REMARK                            x       y       z     vdW  Elec       q    Type
REMARK                         _______ _______ _______ _____ _____    ______ ____
ROOT
ATOM      3  N   UNL     1      -3.837 -10.073  11.791  0.00  0.00    -0.297 NA
ATOM      8  C   UNL     1      -5.336 -11.381  10.114  0.00  0.00    +0.005 C 
ATOM      9  C   UNL     1      -5.268  -9.885   9.752  0.00  0.00    +0.092 C 
ATOM     10  C   UNL     1      -4.859 -10.861  12.531  0.00  0.00    +0.078 C 
ATOM     11  C   UNL     1      -5.857 -11.526  11.558  0.00  0.00    +0.025 C 
ATOM     12  C   UNL     1      -3.890 -11.910  10.093  0.00  0.00    +0.020 C 
ATOM     13  C   UNL     1      -4.495  -9.134  10.850  0.00  0.00    +0.097 C 
ATOM     14  C   UNL     1      -3.016 -11.023  10.999  0.00  0.00    +0.085 C 
ENDROOT
BRANCH   9  16
ATOM      1  O   UNL     1      -7.227  -8.778  10.499  0.00  0.00    -0.275 OA
ATOM      2  O   UNL     1      -7.961  -8.844   5.609  0.00  0.00    -0.377 OA
ATOM      4  N   UNL     1      -7.168  -9.383   8.258  0.00  0.00    -0.297 N 
ATOM     16  C   UNL     1      -6.643  -9.298   9.546  0.00  0.00    +0.220 C 
ATOM     17  C   UNL     1      -8.493  -8.835   7.971  0.00  0.00    +0.136 C 
ATOM     18  C   UNL     1      -6.558 -10.105   7.137  0.00  0.00    +0.136 C 
ATOM     20  C   UNL     1      -8.468  -8.038   6.675  0.00  0.00    +0.179 C 
ATOM     21  C   UNL     1      -6.616  -9.257   5.872  0.00  0.00    +0.179 C 
ENDBRANCH   9  16
BRANCH  10  15
ATOM     15  C   UNL     1      -5.572 -10.033  13.601  0.00  0.00    +0.164 C 
BRANCH  15   5
ATOM      5  N   UNL     1      -5.182 -10.467  14.987  0.00  0.00    -0.250 N 
ATOM      6  N   UNL     1      -3.891 -10.606  15.324  0.00  0.00    -0.065 NA
ATOM      7  N   UNL     1      -3.854 -10.999  16.592  0.00  0.00    -0.134 NA
ATOM     19  C   UNL     1      -6.008 -10.765  16.026  0.00  0.00    +0.134 A 
ATOM     22  C   UNL     1      -5.143 -11.102  17.037  0.00  0.00    +0.088 A 
BRANCH  22  23
ATOM     23  C   UNL     1      -5.443 -11.521  18.412  0.00  0.00    +0.008 C 
ATOM     24  C   UNL     1      -4.154 -11.971  19.185  0.00  0.00    +0.017 C 
ATOM     25  C   UNL     1      -6.092 -10.365  19.251  0.00  0.00    +0.017 C 
ATOM     26  C   UNL     1      -6.439 -12.730  18.567  0.00  0.00    +0.017 C 
ENDBRANCH  22  23
ENDBRANCH  15   5
ENDBRANCH  10  15
TORSDOF 4
ENDMDL
MODEL 9
REMARK VINA RESULT:      -5.6     27.514     30.264
REMARK  Name = 44715958
REMARK  7 active torsions:
REMARK  status: ('A' for Active; 'I' for Inactive)
REMARK    1  A    between atoms: N_5  and  C_15
REMARK    2  A    between atoms: C_9  and  C_16
REMARK    3  A    between atoms: C_10  and  C_15
REMARK    4  A    between atoms: C_22  and  C_23
REMARK    5  A    between atoms: C_23  and  C_24
REMARK    6  A    between atoms: C_23  and  C_25
REMARK    7  A    between atoms: C_23  and  C_26
REMARK                            x       y       z     vdW  Elec       q    Type
REMARK                         _______ _______ _______ _____ _____    ______ ____
ROOT
ATOM      3  N   UNL     1      -7.459 -10.272  18.256  0.00  0.00    -0.297 NA
ATOM      8  C   UNL     1      -5.454 -11.913  18.023  0.00  0.00    +0.005 C 
ATOM      9  C   UNL     1      -5.299 -10.706  17.080  0.00  0.00    +0.092 C 
ATOM     10  C   UNL     1      -7.959 -11.652  18.015  0.00  0.00    +0.078 C 
ATOM     11  C   UNL     1      -6.791 -12.619  17.721  0.00  0.00    +0.025 C 
ATOM     12  C   UNL     1      -5.546 -11.351  19.454  0.00  0.00    +0.020 C 
ATOM     13  C   UNL     1      -6.572  -9.844  17.147  0.00  0.00    +0.097 C 
ATOM     14  C   UNL     1      -6.660 -10.290  19.507  0.00  0.00    +0.085 C 
ENDROOT
BRANCH   9  16
ATOM      1  O   UNL     1      -5.930 -11.455  14.921  0.00  0.00    -0.275 OA
ATOM      2  O   UNL     1      -1.132 -10.474  14.238  0.00  0.00    -0.377 OA
ATOM      4  N   UNL     1      -3.659 -11.143  15.288  0.00  0.00    -0.297 N 
ATOM     16  C   UNL     1      -5.000 -11.138  15.665  0.00  0.00    +0.220 C 
ATOM     17  C   UNL     1      -3.282 -11.545  13.933  0.00  0.00    +0.136 C 
ATOM     18  C   UNL     1      -2.522 -10.896  16.181  0.00  0.00    +0.136 C 
ATOM     20  C   UNL     1      -2.255 -10.578  13.360  0.00  0.00    +0.179 C 
ATOM     21  C   UNL     1      -1.523  -9.959  15.513  0.00  0.00    +0.179 C 
ENDBRANCH   9  16
BRANCH  10  15
ATOM     15  C   UNL     1      -9.028 -11.702  16.922  0.00  0.00    +0.164 C 
BRANCH  15   5
ATOM      5  N   UNL     1      -9.930 -10.500  16.977  0.00  0.00    -0.250 N 
ATOM      6  N   UNL     1     -10.502 -10.123  18.131  0.00  0.00    -0.065 NA
ATOM      7  N   UNL     1     -11.237  -9.047  17.875  0.00  0.00    -0.134 NA
ATOM     19  C   UNL     1     -10.281  -9.678  15.951  0.00  0.00    +0.134 A 
ATOM     22  C   UNL     1     -11.113  -8.761  16.544  0.00  0.00    +0.088 A 
BRANCH  22  23
ATOM     23  C   UNL     1     -11.812  -7.620  15.941  0.00  0.00    +0.008 C 
ATOM     24  C   UNL     1     -11.638  -7.580  14.382  0.00  0.00    +0.017 C 
ATOM     25  C   UNL     1     -13.355  -7.659  16.222  0.00  0.00    +0.017 C 
ATOM     26  C   UNL     1     -11.357  -6.192  16.425  0.00  0.00    +0.017 C 
ENDBRANCH  22  23
ENDBRANCH  15   5
ENDBRANCH  10  15
TORSDOF 4
ENDMDL
MODEL 10
REMARK VINA RESULT:      -5.6     28.106     30.771
REMARK  Name = 44715958
REMARK  7 active torsions:
REMARK  status: ('A' for Active; 'I' for Inactive)
REMARK    1  A    between atoms: N_5  and  C_15
REMARK    2  A    between atoms: C_9  and  C_16
REMARK    3  A    between atoms: C_10  and  C_15
REMARK    4  A    between atoms: C_22  and  C_23
REMARK    5  A    between atoms: C_23  and  C_24
REMARK    6  A    between atoms: C_23  and  C_25
REMARK    7  A    between atoms: C_23  and  C_26
REMARK                            x       y       z     vdW  Elec       q    Type
REMARK                         _______ _______ _______ _____ _____    ______ ____
ROOT
ATOM      3  N   UNL     1      -7.372 -10.580  18.512  0.00  0.00    -0.297 NA
ATOM      8  C   UNL     1      -5.169 -11.876  18.027  0.00  0.00    +0.005 C 
ATOM      9  C   UNL     1      -5.267 -10.602  17.167  0.00  0.00    +0.092 C 
ATOM     10  C   UNL     1      -7.678 -12.002  18.202  0.00  0.00    +0.078 C 
ATOM     11  C   UNL     1      -6.405 -12.759  17.762  0.00  0.00    +0.025 C 
ATOM     12  C   UNL     1      -5.234 -11.426  19.498  0.00  0.00    +0.020 C 
ATOM     13  C   UNL     1      -6.646  -9.953  17.381  0.00  0.00    +0.097 C 
ATOM     14  C   UNL     1      -6.487 -10.554  19.703  0.00  0.00    +0.085 C 
ENDROOT
BRANCH   9  16
ATOM      1  O   UNL     1      -5.974 -11.021  14.943  0.00  0.00    -0.275 OA
ATOM      2  O   UNL     1      -1.099 -10.478  14.321  0.00  0.00    -0.377 OA
ATOM      4  N   UNL     1      -3.683 -10.996  15.317  0.00  0.00    -0.297 N 
ATOM     16  C   UNL     1      -5.016 -10.893  15.708  0.00  0.00    +0.220 C 
ATOM     17  C   UNL     1      -3.350 -11.273  13.919  0.00  0.00    +0.136 C 
ATOM     18  C   UNL     1      -2.527 -10.977  16.219  0.00  0.00    +0.136 C 
ATOM     20  C   UNL     1      -2.227 -10.359  13.451  0.00  0.00    +0.179 C 
ATOM     21  C   UNL     1      -1.433 -10.079  15.653  0.00  0.00    +0.179 C 
ENDBRANCH   9  16
BRANCH  10  15
ATOM     15  C   UNL     1      -8.808 -12.148  17.182  0.00  0.00    +0.164 C 
BRANCH  15   5
ATOM      5  N   UNL     1     -10.039 -11.398  17.611  0.00  0.00    -0.250 N 
ATOM      6  N   UNL     1     -10.436 -10.298  16.952  0.00  0.00    -0.065 NA
ATOM      7  N   UNL     1     -11.535  -9.854  17.552  0.00  0.00    -0.134 NA
ATOM     19  C   UNL     1     -10.869 -11.690  18.648  0.00  0.00    +0.134 A 
ATOM     22  C   UNL     1     -11.814 -10.695  18.593  0.00  0.00    +0.088 A 
BRANCH  22  23
ATOM     23  C   UNL     1     -12.976 -10.473  19.463  0.00  0.00    +0.008 C 
ATOM     24  C   UNL     1     -14.101  -9.649  18.743  0.00  0.00    +0.017 C 
ATOM     25  C   UNL     1     -13.631 -11.821  19.927  0.00  0.00    +0.017 C 
ATOM     26  C   UNL     1     -12.704  -9.685  20.798  0.00  0.00    +0.017 C 
ENDBRANCH  22  23
ENDBRANCH  15   5
ENDBRANCH  10  15
TORSDOF 4
ENDMDL
