REMARK  Name = 45783899
REMARK  9 active torsions:
REMARK  status: ('A' for Active; 'I' for Inactive)
REMARK    1  A    between atoms: N_2  and  C_12
REMARK    2  A    between atoms: C_7  and  C_11
REMARK    3  A    between atoms: C_8  and  C_12
REMARK    4  A    between atoms: C_10  and  C_15
REMARK    5  A    between atoms: C_11  and  C_16
REMARK    6  A    between atoms: C_11  and  C_17
REMARK    7  A    between atoms: C_14  and  C_20
REMARK    8  A    between atoms: C_15  and  C_23
REMARK    9  A    between atoms: C_26  and  C_28
REMARK                            x       y       z     vdW  Elec       q    Type
REMARK                         _______ _______ _______ _____ _____    ______ ____
ROOT
ATOM      7  C   UNL     1      -1.998  -0.865  -0.235  0.00  0.00    +0.000 C 
ATOM      8  C   UNL     1      -0.607  -0.232  -0.490  0.00  0.00    +0.029 C 
ATOM      9  C   UNL     1      -3.062  -0.196  -1.118  0.00  0.00    +0.012 C 
ATOM     10  C   UNL     1      -3.162   1.319  -0.864  0.00  0.00    +0.024 C 
ATOM     13  C   UNL     1      -0.665   1.266  -0.679  0.00  0.00    -0.023 C 
ATOM     14  C   UNL     1      -1.797   1.977  -0.834  0.00  0.00    -0.073 C 
ATOM     20  C   UNL     1      -1.758   3.467  -1.031  0.00  0.00    +0.039 C 
ENDROOT
BRANCH   7  11
ATOM     11  C   UNL     1      -1.989  -2.376  -0.486  0.00  0.00    -0.013 C 
ATOM     16  C   UNL     1      -2.131  -2.668  -1.977  0.00  0.00    +0.007 C 
ATOM     17  C   UNL     1      -3.103  -3.054   0.306  0.00  0.00    +0.007 C 
ENDBRANCH   7  11
BRANCH   8  12
ATOM     12  C   UNL     1       0.369  -0.565   0.644  0.00  0.00    +0.092 C 
BRANCH  12   2
ATOM      2  N   UNL     1       1.706  -0.054   0.342  0.00  0.00    -0.299 NA
ATOM      3  N   UNL     1       4.561  -0.102   0.270  0.00  0.00    -0.313 N 
ATOM      5  N   UNL     1       6.542   1.165   0.539  0.00  0.00    -0.240 NA
ATOM     18  C   UNL     1       2.411  -0.964  -0.569  0.00  0.00    +0.103 C 
ATOM     19  C   UNL     1       2.482   0.118   1.576  0.00  0.00    +0.103 C 
ATOM     21  C   UNL     1       3.791  -0.412  -0.939  0.00  0.00    +0.122 C 
ATOM     22  C   UNL     1       3.864   0.706   1.278  0.00  0.00    +0.122 C 
ATOM     24  C   UNL     1       5.955  -0.004   0.198  0.00  0.00    +0.121 A 
ATOM     25  C   UNL     1       6.649  -1.127  -0.224  0.00  0.00    +0.043 A 
ATOM     27  C   UNL     1       8.034  -1.045  -0.300  0.00  0.00    +0.005 A 
ATOM     29  C   UNL     1       7.891   1.207   0.452  0.00  0.00    +0.113 A 
ATOM     30  C   UNL     1       8.675   0.141   0.042  0.00  0.00    +0.020 A 
ENDBRANCH  12   2
ENDBRANCH   8  12
BRANCH  10  15
ATOM     15  C   UNL     1      -3.941   1.613   0.423  0.00  0.00    +0.105 C 
BRANCH  15  23
ATOM      1  O   UNL     1      -5.490  -0.138   1.120  0.00  0.00    -0.425 OA
ATOM      4  N   UNL     1      -6.386   1.384  -0.253  0.00  0.00    -0.112 NA
ATOM      6  N   UNL     1      -7.366   0.460   0.058  0.00  0.00    -0.113 NA
ATOM     23  C   UNL     1      -5.309   0.995   0.389  0.00  0.00    +0.218 A 
ATOM     26  C   UNL     1      -6.799  -0.410   0.861  0.00  0.00    +0.214 A 
ATOM     28  C   UNL     1      -7.367  -1.603   1.500  0.00  0.00    +0.111 C 
ENDBRANCH  15  23
ENDBRANCH  10  15
TORSDOF 5
