MODEL 1
REMARK VINA RESULT:      -6.2      0.000      0.000
REMARK  Name = 56775473
REMARK  6 active torsions:
REMARK  status: ('A' for Active; 'I' for Inactive)
REMARK    1  A    between atoms: N_5  and  C_8
REMARK    2  A    between atoms: N_5  and  C_9
REMARK    3  A    between atoms: C_8  and  C_12
REMARK    4  A    between atoms: C_12  and  C_17
REMARK    5  A    between atoms: C_18  and  C_21
REMARK    6  A    between atoms: C_20  and  C_22
REMARK                            x       y       z     vdW  Elec       q    Type
REMARK                         _______ _______ _______ _____ _____    ______ ____
ROOT
ATOM      2  O   UNL     1      20.601   9.796  22.159  0.00  0.00    -0.376 OA
ATOM      8  C   UNL     1      20.260   7.698  21.971  0.00  0.00    +0.072 C 
ATOM     10  C   UNL     1      19.955   8.960  21.172  0.00  0.00    +0.184 C 
ATOM     11  C   UNL     1      20.839   8.652  23.009  0.00  0.00    +0.184 C 
ENDROOT
BRANCH   8   5
ATOM      5  N   UNL     1      21.362   6.983  21.320  0.00  0.00    -0.304 NA
ATOM     28  H   UNL     1      22.271   7.440  21.380  0.00  0.00    +0.123 HD
BRANCH   5   9
ATOM      4  O   UNL     1      24.875   2.277  23.142  0.00  0.00    -0.276 OA
ATOM      6  N   UNL     1      22.912   3.170  22.278  0.00  0.00    -0.302 N 
ATOM      9  C   UNL     1      21.440   5.626  21.856  0.00  0.00    +0.057 C 
ATOM     13  C   UNL     1      22.568   5.532  22.891  0.00  0.00    +0.037 C 
ATOM     14  C   UNL     1      21.670   4.622  20.719  0.00  0.00    +0.037 C 
ATOM     15  C   UNL     1      22.728   4.099  23.394  0.00  0.00    +0.109 C 
ATOM     16  C   UNL     1      21.848   3.206  21.266  0.00  0.00    +0.109 C 
ATOM     18  C   UNL     1      24.013   2.314  22.261  0.00  0.00    +0.212 C 
ATOM     21  C   UNL     1      24.132   1.389  21.076  0.00  0.00    +0.109 C 
ENDBRANCH   5   9
ENDBRANCH   8   5
BRANCH   8  12
ATOM     12  C   UNL     1      19.129   6.796  22.362  0.00  0.00    +0.085 C 
BRANCH  12  17
ATOM      3  O   UNL     1      17.238   6.202  19.341  0.00  0.00    -0.354 OA
ATOM      7  N   UNL     1      18.384   6.085  20.117  0.00  0.00    -0.083 NA
ATOM     17  C   UNL     1      18.096   6.719  21.258  0.00  0.00    +0.086 A 
ATOM     19  C   UNL     1      16.795   7.251  21.259  0.00  0.00    +0.076 A 
ATOM     20  C   UNL     1      16.299   6.898  20.031  0.00  0.00    +0.167 A 
BRANCH  20  22
ATOM      1  F   UNL     1      11.456   7.683  17.408  0.00  0.00    -0.205 F 
ATOM     22  C   UNL     1      15.051   7.099  19.354  0.00  0.00    +0.020 A 
ATOM     23  C   UNL     1      15.037   7.486  18.014  0.00  0.00    +0.014 A 
ATOM     24  C   UNL     1      13.849   6.909  20.037  0.00  0.00    +0.014 A 
ATOM     25  C   UNL     1      13.823   7.683  17.357  0.00  0.00    +0.039 A 
ATOM     26  C   UNL     1      12.635   7.106  19.380  0.00  0.00    +0.039 A 
ATOM     27  C   UNL     1      12.623   7.493  18.039  0.00  0.00    +0.123 A 
ENDBRANCH  20  22
ENDBRANCH  12  17
ENDBRANCH   8  12
TORSDOF 5
ENDMDL
MODEL 2
REMARK VINA RESULT:      -6.1      3.800      8.889
REMARK  Name = 56775473
REMARK  6 active torsions:
REMARK  status: ('A' for Active; 'I' for Inactive)
REMARK    1  A    between atoms: N_5  and  C_8
REMARK    2  A    between atoms: N_5  and  C_9
REMARK    3  A    between atoms: C_8  and  C_12
REMARK    4  A    between atoms: C_12  and  C_17
REMARK    5  A    between atoms: C_18  and  C_21
REMARK    6  A    between atoms: C_20  and  C_22
REMARK                            x       y       z     vdW  Elec       q    Type
REMARK                         _______ _______ _______ _____ _____    ______ ____
ROOT
ATOM      2  O   UNL     1      20.083   9.006  23.698  0.00  0.00    -0.376 OA
ATOM      8  C   UNL     1      19.637   7.741  22.038  0.00  0.00    +0.072 C 
ATOM     10  C   UNL     1      20.292   7.605  23.408  0.00  0.00    +0.184 C 
ATOM     11  C   UNL     1      19.537   9.223  22.377  0.00  0.00    +0.184 C 
ENDROOT
BRANCH   8   5
ATOM      5  N   UNL     1      18.296   7.151  22.096  0.00  0.00    -0.304 NA
ATOM     28  H   UNL     1      17.784   7.325  22.961  0.00  0.00    +0.123 HD
BRANCH   5   9
ATOM      4  O   UNL     1      12.910   9.116  19.875  0.00  0.00    -0.276 OA
ATOM      6  N   UNL     1      14.968   8.061  19.656  0.00  0.00    -0.302 N 
ATOM      9  C   UNL     1      17.519   7.606  20.946  0.00  0.00    +0.057 C 
ATOM     13  C   UNL     1      16.608   8.772  21.353  0.00  0.00    +0.037 C 
ATOM     14  C   UNL     1      16.688   6.448  20.380  0.00  0.00    +0.037 C 
ATOM     15  C   UNL     1      15.718   9.200  20.188  0.00  0.00    +0.109 C 
ATOM     16  C   UNL     1      15.795   6.923  19.234  0.00  0.00    +0.109 C 
ATOM     18  C   UNL     1      13.579   8.133  19.546  0.00  0.00    +0.212 C 
ATOM     21  C   UNL     1      12.881   6.918  18.991  0.00  0.00    +0.109 C 
ENDBRANCH   5   9
ENDBRANCH   8   5
BRANCH   8  12
ATOM     12  C   UNL     1      20.407   7.323  20.822  0.00  0.00    +0.085 C 
BRANCH  12  17
ATOM      3  O   UNL     1      20.883   3.742  20.750  0.00  0.00    -0.354 OA
ATOM      7  N   UNL     1      20.161   4.892  20.458  0.00  0.00    -0.083 NA
ATOM     17  C   UNL     1      20.891   5.894  20.957  0.00  0.00    +0.086 A 
ATOM     19  C   UNL     1      22.072   5.441  21.568  0.00  0.00    +0.076 A 
ATOM     20  C   UNL     1      22.019   4.081  21.410  0.00  0.00    +0.167 A 
BRANCH  20  22
ATOM      1  F   UNL     1      25.341  -0.147  22.840  0.00  0.00    -0.205 F 
ATOM     22  C   UNL     1      22.874   2.991  21.779  0.00  0.00    +0.020 A 
ATOM     23  C   UNL     1      22.945   2.577  23.110  0.00  0.00    +0.014 A 
ATOM     24  C   UNL     1      23.637   2.344  20.807  0.00  0.00    +0.014 A 
ATOM     25  C   UNL     1      23.778   1.518  23.468  0.00  0.00    +0.039 A 
ATOM     26  C   UNL     1      24.470   1.284  21.165  0.00  0.00    +0.039 A 
ATOM     27  C   UNL     1      24.540   0.871  22.496  0.00  0.00    +0.123 A 
ENDBRANCH  20  22
ENDBRANCH  12  17
ENDBRANCH   8  12
TORSDOF 5
ENDMDL
MODEL 3
REMARK VINA RESULT:      -6.1     29.861     32.941
REMARK  Name = 56775473
REMARK  6 active torsions:
REMARK  status: ('A' for Active; 'I' for Inactive)
REMARK    1  A    between atoms: N_5  and  C_8
REMARK    2  A    between atoms: N_5  and  C_9
REMARK    3  A    between atoms: C_8  and  C_12
REMARK    4  A    between atoms: C_12  and  C_17
REMARK    5  A    between atoms: C_18  and  C_21
REMARK    6  A    between atoms: C_20  and  C_22
REMARK                            x       y       z     vdW  Elec       q    Type
REMARK                         _______ _______ _______ _____ _____    ______ ____
ROOT
ATOM      2  O   UNL     1      -8.677  -8.716   5.149  0.00  0.00    -0.376 OA
ATOM      8  C   UNL     1      -8.087  -8.063   7.093  0.00  0.00    +0.072 C 
ATOM     10  C   UNL     1      -9.382  -8.435   6.380  0.00  0.00    +0.184 C 
ATOM     11  C   UNL     1      -7.429  -8.287   5.737  0.00  0.00    +0.184 C 
ENDROOT
BRANCH   8   5
ATOM      5  N   UNL     1      -7.709  -9.160   7.988  0.00  0.00    -0.304 NA
ATOM     28  H   UNL     1      -7.460 -10.033   7.523  0.00  0.00    +0.123 HD
BRANCH   5   9
ATOM      4  O   UNL     1      -2.580 -10.581  11.067  0.00  0.00    -0.276 OA
ATOM      6  N   UNL     1      -4.505  -9.323  10.739  0.00  0.00    -0.302 N 
ATOM      9  C   UNL     1      -6.620  -8.720   8.857  0.00  0.00    +0.057 C 
ATOM     13  C   UNL     1      -5.297  -9.351   8.405  0.00  0.00    +0.037 C 
ATOM     14  C   UNL     1      -6.924  -9.096  10.313  0.00  0.00    +0.037 C 
ATOM     15  C   UNL     1      -4.163  -8.979   9.358  0.00  0.00    +0.109 C 
ATOM     16  C   UNL     1      -5.756  -8.730  11.229  0.00  0.00    +0.109 C 
ATOM     18  C   UNL     1      -3.644 -10.124  11.490  0.00  0.00    +0.212 C 
ATOM     21  C   UNL     1      -4.069 -10.434  12.902  0.00  0.00    +0.109 C 
ENDBRANCH   5   9
ENDBRANCH   8   5
BRANCH   8  12
ATOM     12  C   UNL     1      -7.977  -6.716   7.741  0.00  0.00    +0.085 C 
BRANCH  12  17
ATOM      3  O   UNL     1     -10.969  -6.698   9.767  0.00  0.00    -0.354 OA
ATOM      7  N   UNL     1      -9.870  -7.333   9.203  0.00  0.00    -0.083 NA
ATOM     17  C   UNL     1      -9.242  -6.383   8.504  0.00  0.00    +0.086 A 
ATOM     19  C   UNL     1      -9.892  -5.140   8.591  0.00  0.00    +0.076 A 
ATOM     20  C   UNL     1     -10.971  -5.393   9.397  0.00  0.00    +0.167 A 
BRANCH  20  22
ATOM      1  F   UNL     1     -15.164  -2.321  11.382  0.00  0.00    -0.205 F 
ATOM     22  C   UNL     1     -12.053  -4.602   9.908  0.00  0.00    +0.020 A 
ATOM     23  C   UNL     1     -13.019  -4.094   9.039  0.00  0.00    +0.014 A 
ATOM     24  C   UNL     1     -12.138  -4.339  11.275  0.00  0.00    +0.014 A 
ATOM     25  C   UNL     1     -14.069  -3.323   9.537  0.00  0.00    +0.039 A 
ATOM     26  C   UNL     1     -13.189  -3.569  11.773  0.00  0.00    +0.039 A 
ATOM     27  C   UNL     1     -14.155  -3.062  10.903  0.00  0.00    +0.123 A 
ENDBRANCH  20  22
ENDBRANCH  12  17
ENDBRANCH   8  12
TORSDOF 5
ENDMDL
MODEL 4
REMARK VINA RESULT:      -6.0      7.021     10.212
REMARK  Name = 56775473
REMARK  6 active torsions:
REMARK  status: ('A' for Active; 'I' for Inactive)
REMARK    1  A    between atoms: N_5  and  C_8
REMARK    2  A    between atoms: N_5  and  C_9
REMARK    3  A    between atoms: C_8  and  C_12
REMARK    4  A    between atoms: C_12  and  C_17
REMARK    5  A    between atoms: C_18  and  C_21
REMARK    6  A    between atoms: C_20  and  C_22
REMARK                            x       y       z     vdW  Elec       q    Type
REMARK                         _______ _______ _______ _____ _____    ______ ____
ROOT
ATOM      2  O   UNL     1      14.641   6.520  19.741  0.00  0.00    -0.376 OA
ATOM      8  C   UNL     1      13.458   8.289  19.596  0.00  0.00    +0.072 C 
ATOM     10  C   UNL     1      13.370   6.935  20.290  0.00  0.00    +0.184 C 
ATOM     11  C   UNL     1      14.742   7.745  18.982  0.00  0.00    +0.184 C 
ENDROOT
BRANCH   8   5
ATOM      5  N   UNL     1      13.805   9.308  20.592  0.00  0.00    -0.304 NA
ATOM     28  H   UNL     1      14.571   9.927  20.328  0.00  0.00    +0.123 HD
BRANCH   5   9
ATOM      4  O   UNL     1      11.376  14.218  23.384  0.00  0.00    -0.276 OA
ATOM      6  N   UNL     1      11.266  12.043  22.574  0.00  0.00    -0.302 N 
ATOM      9  C   UNL     1      12.613  10.086  20.921  0.00  0.00    +0.057 C 
ATOM     13  C   UNL     1      12.912  11.586  20.797  0.00  0.00    +0.037 C 
ATOM     14  C   UNL     1      12.140   9.749  22.341  0.00  0.00    +0.037 C 
ATOM     15  C   UNL     1      11.707  12.418  21.229  0.00  0.00    +0.109 C 
ATOM     16  C   UNL     1      10.950  10.619  22.743  0.00  0.00    +0.109 C 
ATOM     18  C   UNL     1      11.139  13.021  23.561  0.00  0.00    +0.212 C 
ATOM     21  C   UNL     1      10.683  12.554  24.920  0.00  0.00    +0.109 C 
ENDBRANCH   5   9
ENDBRANCH   8   5
BRANCH   8  12
ATOM     12  C   UNL     1      12.342   8.715  18.690  0.00  0.00    +0.085 C 
BRANCH  12  17
ATOM      3  O   UNL     1      13.345   9.260  15.263  0.00  0.00    -0.354 OA
ATOM      7  N   UNL     1      12.749   8.505  16.264  0.00  0.00    -0.083 NA
ATOM     17  C   UNL     1      12.885   9.234  17.375  0.00  0.00    +0.086 A 
ATOM     19  C   UNL     1      13.552  10.447  17.139  0.00  0.00    +0.076 A 
ATOM     20  C   UNL     1      13.820  10.415  15.795  0.00  0.00    +0.167 A 
BRANCH  20  22
ATOM      1  F   UNL     1      16.325  13.867  12.224  0.00  0.00    -0.205 F 
ATOM     22  C   UNL     1      14.465  11.306  14.876  0.00  0.00    +0.020 A 
ATOM     23  C   UNL     1      13.763  12.385  14.338  0.00  0.00    +0.014 A 
ATOM     24  C   UNL     1      15.796  11.093  14.517  0.00  0.00    +0.014 A 
ATOM     25  C   UNL     1      14.391  13.249  13.442  0.00  0.00    +0.039 A 
ATOM     26  C   UNL     1      16.425  11.958  13.622  0.00  0.00    +0.039 A 
ATOM     27  C   UNL     1      15.721  13.037  13.085  0.00  0.00    +0.123 A 
ENDBRANCH  20  22
ENDBRANCH  12  17
ENDBRANCH   8  12
TORSDOF 5
ENDMDL
MODEL 5
REMARK VINA RESULT:      -5.9     18.312     22.462
REMARK  Name = 56775473
REMARK  6 active torsions:
REMARK  status: ('A' for Active; 'I' for Inactive)
REMARK    1  A    between atoms: N_5  and  C_8
REMARK    2  A    between atoms: N_5  and  C_9
REMARK    3  A    between atoms: C_8  and  C_12
REMARK    4  A    between atoms: C_12  and  C_17
REMARK    5  A    between atoms: C_18  and  C_21
REMARK    6  A    between atoms: C_20  and  C_22
REMARK                            x       y       z     vdW  Elec       q    Type
REMARK                         _______ _______ _______ _____ _____    ______ ____
ROOT
ATOM      2  O   UNL     1      15.153   3.226   1.475  0.00  0.00    -0.376 OA
ATOM      8  C   UNL     1      13.472   3.961   0.385  0.00  0.00    +0.072 C 
ATOM     10  C   UNL     1      14.991   4.006   0.268  0.00  0.00    +0.184 C 
ATOM     11  C   UNL     1      13.725   3.225   1.695  0.00  0.00    +0.184 C 
ENDROOT
BRANCH   8   5
ATOM      5  N   UNL     1      12.952   3.007  -0.600  0.00  0.00    -0.304 NA
ATOM     28  H   UNL     1      12.291   2.322  -0.232  0.00  0.00    +0.123 HD
BRANCH   5   9
ATOM      4  O   UNL     1       9.549   2.876  -5.719  0.00  0.00    -0.276 OA
ATOM      6  N   UNL     1      11.211   3.781  -4.372  0.00  0.00    -0.302 N 
ATOM      9  C   UNL     1      12.356   3.740  -1.713  0.00  0.00    +0.057 C 
ATOM     13  C   UNL     1      10.937   3.223  -1.986  0.00  0.00    +0.037 C 
ATOM     14  C   UNL     1      13.229   3.597  -2.966  0.00  0.00    +0.037 C 
ATOM     15  C   UNL     1      10.333   3.911  -3.208  0.00  0.00    +0.109 C 
ATOM     16  C   UNL     1      12.578   4.278  -4.170  0.00  0.00    +0.109 C 
ATOM     18  C   UNL     1      10.712   3.254  -5.563  0.00  0.00    +0.212 C 
ATOM     21  C   UNL     1      11.681   3.150  -6.714  0.00  0.00    +0.109 C 
ENDBRANCH   5   9
ENDBRANCH   8   5
BRANCH   8  12
ATOM     12  C   UNL     1      12.708   5.249   0.409  0.00  0.00    +0.085 C 
BRANCH  12  17
ATOM      3  O   UNL     1       9.987   4.753   2.734  0.00  0.00    -0.354 OA
ATOM      7  N   UNL     1      10.651   4.486   1.544  0.00  0.00    -0.083 NA
ATOM     17  C   UNL     1      11.731   5.273   1.566  0.00  0.00    +0.086 A 
ATOM     19  C   UNL     1      11.800   6.051   2.734  0.00  0.00    +0.076 A 
ATOM     20  C   UNL     1      10.681   5.686   3.435  0.00  0.00    +0.167 A 
BRANCH  20  22
ATOM      1  F   UNL     1       8.481   7.154   8.330  0.00  0.00    -0.205 F 
ATOM     22  C   UNL     1      10.115   6.066   4.697  0.00  0.00    +0.020 A 
ATOM     23  C   UNL     1      10.842   5.880   5.873  0.00  0.00    +0.014 A 
ATOM     24  C   UNL     1       8.835   6.619   4.749  0.00  0.00    +0.014 A 
ATOM     25  C   UNL     1      10.290   6.247   7.099  0.00  0.00    +0.039 A 
ATOM     26  C   UNL     1       8.284   6.987   5.976  0.00  0.00    +0.039 A 
ATOM     27  C   UNL     1       9.012   6.801   7.151  0.00  0.00    +0.123 A 
ENDBRANCH  20  22
ENDBRANCH  12  17
ENDBRANCH   8  12
TORSDOF 5
ENDMDL
MODEL 6
REMARK VINA RESULT:      -5.9     29.396     31.926
REMARK  Name = 56775473
REMARK  6 active torsions:
REMARK  status: ('A' for Active; 'I' for Inactive)
REMARK    1  A    between atoms: N_5  and  C_8
REMARK    2  A    between atoms: N_5  and  C_9
REMARK    3  A    between atoms: C_8  and  C_12
REMARK    4  A    between atoms: C_12  and  C_17
REMARK    5  A    between atoms: C_18  and  C_21
REMARK    6  A    between atoms: C_20  and  C_22
REMARK                            x       y       z     vdW  Elec       q    Type
REMARK                         _______ _______ _______ _____ _____    ______ ____
ROOT
ATOM      2  O   UNL     1      -7.276 -10.816  20.037  0.00  0.00    -0.376 OA
ATOM      8  C   UNL     1      -7.057 -10.855  17.915  0.00  0.00    +0.072 C 
ATOM     10  C   UNL     1      -8.135 -11.194  18.937  0.00  0.00    +0.184 C 
ATOM     11  C   UNL     1      -6.181 -10.566  19.128  0.00  0.00    +0.184 C 
ENDROOT
BRANCH   8   5
ATOM      5  N   UNL     1      -7.403  -9.586  17.268  0.00  0.00    -0.304 NA
ATOM     28  H   UNL     1      -6.872  -9.371  16.424  0.00  0.00    +0.123 HD
BRANCH   5   9
ATOM      4  O   UNL     1     -12.002  -7.535  13.740  0.00  0.00    -0.276 OA
ATOM      6  N   UNL     1     -11.136  -8.313  15.750  0.00  0.00    -0.302 N 
ATOM      9  C   UNL     1      -8.836  -9.564  16.985  0.00  0.00    +0.057 C 
ATOM     13  C   UNL     1      -9.076  -9.637  15.471  0.00  0.00    +0.037 C 
ATOM     14  C   UNL     1      -9.469  -8.294  17.567  0.00  0.00    +0.037 C 
ATOM     15  C   UNL     1     -10.564  -9.519  15.149  0.00  0.00    +0.109 C 
ATOM     16  C   UNL     1     -10.950  -8.202  17.203  0.00  0.00    +0.109 C 
ATOM     18  C   UNL     1     -11.828  -7.401  14.953  0.00  0.00    +0.212 C 
ATOM     21  C   UNL     1     -12.385  -6.184  15.647  0.00  0.00    +0.109 C 
ENDBRANCH   5   9
ENDBRANCH   8   5
BRANCH   8  12
ATOM     12  C   UNL     1      -6.625 -11.908  16.940  0.00  0.00    +0.085 C 
BRANCH  12  17
ATOM      3  O   UNL     1      -4.046 -10.413  14.899  0.00  0.00    -0.354 OA
ATOM      7  N   UNL     1      -4.529 -10.903  16.105  0.00  0.00    -0.083 NA
ATOM     17  C   UNL     1      -5.775 -11.307  15.840  0.00  0.00    +0.086 A 
ATOM     19  C   UNL     1      -6.129 -11.098  14.496  0.00  0.00    +0.076 A 
ATOM     20  C   UNL     1      -5.007 -10.535  13.948  0.00  0.00    +0.167 A 
BRANCH  20  22
ATOM      1  F   UNL     1      -3.625  -8.733   8.869  0.00  0.00    -0.205 F 
ATOM     22  C   UNL     1      -4.651 -10.069  12.640  0.00  0.00    +0.020 A 
ATOM     23  C   UNL     1      -5.546  -9.288  11.908  0.00  0.00    +0.014 A 
ATOM     24  C   UNL     1      -3.409 -10.398  12.097  0.00  0.00    +0.014 A 
ATOM     25  C   UNL     1      -5.200  -8.838  10.635  0.00  0.00    +0.039 A 
ATOM     26  C   UNL     1      -3.062  -9.947  10.823  0.00  0.00    +0.039 A 
ATOM     27  C   UNL     1      -3.958  -9.166  10.093  0.00  0.00    +0.123 A 
ENDBRANCH  20  22
ENDBRANCH  12  17
ENDBRANCH   8  12
TORSDOF 5
ENDMDL
MODEL 7
REMARK VINA RESULT:      -5.9      3.731      8.610
REMARK  Name = 56775473
REMARK  6 active torsions:
REMARK  status: ('A' for Active; 'I' for Inactive)
REMARK    1  A    between atoms: N_5  and  C_8
REMARK    2  A    between atoms: N_5  and  C_9
REMARK    3  A    between atoms: C_8  and  C_12
REMARK    4  A    between atoms: C_12  and  C_17
REMARK    5  A    between atoms: C_18  and  C_21
REMARK    6  A    between atoms: C_20  and  C_22
REMARK                            x       y       z     vdW  Elec       q    Type
REMARK                         _______ _______ _______ _____ _____    ______ ____
ROOT
ATOM      2  O   UNL     1      20.101  10.688  21.735  0.00  0.00    -0.376 OA
ATOM      8  C   UNL     1      18.838   8.969  21.670  0.00  0.00    +0.072 C 
ATOM     10  C   UNL     1      18.921  10.271  22.458  0.00  0.00    +0.184 C 
ATOM     11  C   UNL     1      20.136   9.433  21.019  0.00  0.00    +0.184 C 
ENDROOT
BRANCH   8   5
ATOM      5  N   UNL     1      17.753   9.078  20.691  0.00  0.00    -0.304 NA
ATOM     28  H   UNL     1      18.021   8.892  19.724  0.00  0.00    +0.123 HD
BRANCH   5   9
ATOM      4  O   UNL     1      12.303   6.578  19.328  0.00  0.00    -0.276 OA
ATOM      6  N   UNL     1      13.901   7.344  20.830  0.00  0.00    -0.302 N 
ATOM      9  C   UNL     1      16.653   8.203  21.090  0.00  0.00    +0.057 C 
ATOM     13  C   UNL     1      16.181   7.370  19.892  0.00  0.00    +0.037 C 
ATOM     14  C   UNL     1      15.495   9.036  21.654  0.00  0.00    +0.037 C 
ATOM     15  C   UNL     1      14.969   6.518  20.265  0.00  0.00    +0.109 C 
ATOM     16  C   UNL     1      14.296   8.151  21.992  0.00  0.00    +0.109 C 
ATOM     18  C   UNL     1      12.619   7.291  20.283  0.00  0.00    +0.212 C 
ATOM     21  C   UNL     1      11.576   8.175  20.919  0.00  0.00    +0.109 C 
ENDBRANCH   5   9
ENDBRANCH   8   5
BRANCH   8  12
ATOM     12  C   UNL     1      18.823   7.669  22.416  0.00  0.00    +0.085 C 
BRANCH  12  17
ATOM      3  O   UNL     1      20.400   5.239  20.257  0.00  0.00    -0.354 OA
ATOM      7  N   UNL     1      19.366   6.107  20.581  0.00  0.00    -0.083 NA
ATOM     17  C   UNL     1      19.725   6.654  21.746  0.00  0.00    +0.086 A 
ATOM     19  C   UNL     1      20.965   6.174  22.201  0.00  0.00    +0.076 A 
ATOM     20  C   UNL     1      21.347   5.288  21.228  0.00  0.00    +0.167 A 
BRANCH  20  22
ATOM      1  F   UNL     1      25.765   1.997  20.454  0.00  0.00    -0.205 F 
ATOM     22  C   UNL     1      22.487   4.440  21.030  0.00  0.00    +0.020 A 
ATOM     23  C   UNL     1      23.697   4.986  20.602  0.00  0.00    +0.014 A 
ATOM     24  C   UNL     1      22.384   3.069  21.263  0.00  0.00    +0.014 A 
ATOM     25  C   UNL     1      24.804   4.160  20.407  0.00  0.00    +0.039 A 
ATOM     26  C   UNL     1      23.492   2.244  21.069  0.00  0.00    +0.039 A 
ATOM     27  C   UNL     1      24.702   2.790  20.641  0.00  0.00    +0.123 A 
ENDBRANCH  20  22
ENDBRANCH  12  17
ENDBRANCH   8  12
TORSDOF 5
ENDMDL
MODEL 8
REMARK VINA RESULT:      -5.8     30.178     34.351
REMARK  Name = 56775473
REMARK  6 active torsions:
REMARK  status: ('A' for Active; 'I' for Inactive)
REMARK    1  A    between atoms: N_5  and  C_8
REMARK    2  A    between atoms: N_5  and  C_9
REMARK    3  A    between atoms: C_8  and  C_12
REMARK    4  A    between atoms: C_12  and  C_17
REMARK    5  A    between atoms: C_18  and  C_21
REMARK    6  A    between atoms: C_20  and  C_22
REMARK                            x       y       z     vdW  Elec       q    Type
REMARK                         _______ _______ _______ _____ _____    ______ ____
ROOT
ATOM      2  O   UNL     1     -13.532 -12.478  18.518  0.00  0.00    -0.376 OA
ATOM      8  C   UNL     1     -12.464 -10.658  18.203  0.00  0.00    +0.072 C 
ATOM     10  C   UNL     1     -12.156 -12.151  18.217  0.00  0.00    +0.184 C 
ATOM     11  C   UNL     1     -13.871 -11.077  18.612  0.00  0.00    +0.184 C 
ENDROOT
BRANCH   8   5
ATOM      5  N   UNL     1     -12.494 -10.196  16.812  0.00  0.00    -0.304 NA
ATOM     28  H   UNL     1     -13.167 -10.673  16.212  0.00  0.00    +0.123 HD
BRANCH   5   9
ATOM      4  O   UNL     1     -14.601  -5.292  13.759  0.00  0.00    -0.276 OA
ATOM      6  N   UNL     1     -13.207  -6.309  15.315  0.00  0.00    -0.302 N 
ATOM      9  C   UNL     1     -12.727  -8.754  16.788  0.00  0.00    +0.057 C 
ATOM     13  C   UNL     1     -14.092  -8.450  16.156  0.00  0.00    +0.037 C 
ATOM     14  C   UNL     1     -11.607  -8.052  16.009  0.00  0.00    +0.037 C 
ATOM     15  C   UNL     1     -14.313  -6.944  16.035  0.00  0.00    +0.109 C 
ATOM     16  C   UNL     1     -11.878  -6.553  15.889  0.00  0.00    +0.109 C 
ATOM     18  C   UNL     1     -13.471  -5.511  14.201  0.00  0.00    +0.212 C 
ATOM     21  C   UNL     1     -12.279  -4.895  13.514  0.00  0.00    +0.109 C 
ENDBRANCH   5   9
ENDBRANCH   8   5
BRANCH   8  12
ATOM     12  C   UNL     1     -11.685  -9.748  19.104  0.00  0.00    +0.085 C 
BRANCH  12  17
ATOM      3  O   UNL     1      -8.398 -11.004  19.923  0.00  0.00    -0.354 OA
ATOM      7  N   UNL     1      -9.739 -10.788  20.213  0.00  0.00    -0.083 NA
ATOM     17  C   UNL     1     -10.226 -10.152  19.143  0.00  0.00    +0.086 A 
ATOM     19  C   UNL     1      -9.248  -9.941  18.156  0.00  0.00    +0.076 A 
ATOM     20  C   UNL     1      -8.117 -10.496  18.696  0.00  0.00    +0.167 A 
BRANCH  20  22
ATOM      1  F   UNL     1      -2.857 -11.088  16.983  0.00  0.00    -0.205 F 
ATOM     22  C   UNL     1      -6.761 -10.647  18.254  0.00  0.00    +0.020 A 
ATOM     23  C   UNL     1      -6.366 -10.130  17.020  0.00  0.00    +0.014 A 
ATOM     24  C   UNL     1      -5.837 -11.314  19.059  0.00  0.00    +0.014 A 
ATOM     25  C   UNL     1      -5.048 -10.279  16.591  0.00  0.00    +0.039 A 
ATOM     26  C   UNL     1      -4.518 -11.462  18.630  0.00  0.00    +0.039 A 
ATOM     27  C   UNL     1      -4.124 -10.944  17.395  0.00  0.00    +0.123 A 
ENDBRANCH  20  22
ENDBRANCH  12  17
ENDBRANCH   8  12
TORSDOF 5
ENDMDL
MODEL 9
REMARK VINA RESULT:      -5.8     28.940     31.125
REMARK  Name = 56775473
REMARK  6 active torsions:
REMARK  status: ('A' for Active; 'I' for Inactive)
REMARK    1  A    between atoms: N_5  and  C_8
REMARK    2  A    between atoms: N_5  and  C_9
REMARK    3  A    between atoms: C_8  and  C_12
REMARK    4  A    between atoms: C_12  and  C_17
REMARK    5  A    between atoms: C_18  and  C_21
REMARK    6  A    between atoms: C_20  and  C_22
REMARK                            x       y       z     vdW  Elec       q    Type
REMARK                         _______ _______ _______ _____ _____    ______ ____
ROOT
ATOM      2  O   UNL     1      -5.022 -11.421  19.701  0.00  0.00    -0.376 OA
ATOM      8  C   UNL     1      -5.807 -11.250  17.725  0.00  0.00    +0.072 C 
ATOM     10  C   UNL     1      -6.044 -10.605  19.086  0.00  0.00    +0.184 C 
ATOM     11  C   UNL     1      -4.813 -12.137  18.464  0.00  0.00    +0.184 C 
ENDROOT
BRANCH   8   5
ATOM      5  N   UNL     1      -5.064 -10.309  16.881  0.00  0.00    -0.304 NA
ATOM     28  H   UNL     1      -4.237  -9.899  17.314  0.00  0.00    +0.123 HD
BRANCH   5   9
ATOM      4  O   UNL     1      -1.484 -10.437  11.883  0.00  0.00    -0.276 OA
ATOM      6  N   UNL     1      -3.463 -10.890  13.013  0.00  0.00    -0.302 N 
ATOM      9  C   UNL     1      -4.706 -10.966  15.626  0.00  0.00    +0.057 C 
ATOM     13  C   UNL     1      -3.181 -10.991  15.460  0.00  0.00    +0.037 C 
ATOM     14  C   UNL     1      -5.362 -10.239  14.445  0.00  0.00    +0.037 C 
ATOM     15  C   UNL     1      -2.790 -11.589  14.110  0.00  0.00    +0.109 C 
ATOM     16  C   UNL     1      -4.927 -10.852  13.114  0.00  0.00    +0.109 C 
ATOM     18  C   UNL     1      -2.712 -10.360  11.963  0.00  0.00    +0.212 C 
ATOM     21  C   UNL     1      -3.478  -9.653  10.874  0.00  0.00    +0.109 C 
ENDBRANCH   5   9
ENDBRANCH   8   5
BRANCH   8  12
ATOM     12  C   UNL     1      -6.962 -11.886  17.012  0.00  0.00    +0.085 C 
BRANCH  12  17
ATOM      3  O   UNL     1     -10.044 -10.070  17.516  0.00  0.00    -0.354 OA
ATOM      7  N   UNL     1      -9.141 -11.073  17.843  0.00  0.00    -0.083 NA
ATOM     17  C   UNL     1      -8.146 -10.944  16.960  0.00  0.00    +0.086 A 
ATOM     19  C   UNL     1      -8.365  -9.888  16.060  0.00  0.00    +0.076 A 
ATOM     20  C   UNL     1      -9.572  -9.370  16.454  0.00  0.00    +0.167 A 
BRANCH  20  22
ATOM      1  F   UNL     1     -12.795  -5.192  14.690  0.00  0.00    -0.205 F 
ATOM     22  C   UNL     1     -10.401  -8.293  15.999  0.00  0.00    +0.020 A 
ATOM     23  C   UNL     1     -10.602  -7.175  16.810  0.00  0.00    +0.014 A 
ATOM     24  C   UNL     1     -11.009  -8.362  14.746  0.00  0.00    +0.014 A 
ATOM     25  C   UNL     1     -11.411  -6.129  16.368  0.00  0.00    +0.039 A 
ATOM     26  C   UNL     1     -11.817  -7.315  14.303  0.00  0.00    +0.039 A 
ATOM     27  C   UNL     1     -12.017  -6.198  15.115  0.00  0.00    +0.123 A 
ENDBRANCH  20  22
ENDBRANCH  12  17
ENDBRANCH   8  12
TORSDOF 5
ENDMDL
MODEL 10
REMARK VINA RESULT:      -5.8     17.467     21.143
REMARK  Name = 56775473
REMARK  6 active torsions:
REMARK  status: ('A' for Active; 'I' for Inactive)
REMARK    1  A    between atoms: N_5  and  C_8
REMARK    2  A    between atoms: N_5  and  C_9
REMARK    3  A    between atoms: C_8  and  C_12
REMARK    4  A    between atoms: C_12  and  C_17
REMARK    5  A    between atoms: C_18  and  C_21
REMARK    6  A    between atoms: C_20  and  C_22
REMARK                            x       y       z     vdW  Elec       q    Type
REMARK                         _______ _______ _______ _____ _____    ______ ____
ROOT
ATOM      2  O   UNL     1       8.675   7.477   8.546  0.00  0.00    -0.376 OA
ATOM      8  C   UNL     1       9.462   7.291   6.572  0.00  0.00    +0.072 C 
ATOM     10  C   UNL     1       9.093   6.364   7.724  0.00  0.00    +0.184 C 
ATOM     11  C   UNL     1       9.093   8.417   7.531  0.00  0.00    +0.184 C 
ENDROOT
BRANCH   8   5
ATOM      5  N   UNL     1       8.428   7.194   5.537  0.00  0.00    -0.304 NA
ATOM     28  H   UNL     1       7.470   7.159   5.885  0.00  0.00    +0.123 HD
BRANCH   5   9
ATOM      4  O   UNL     1       5.770  11.346   1.863  0.00  0.00    -0.276 OA
ATOM      6  N   UNL     1       7.532   9.957   2.468  0.00  0.00    -0.302 N 
ATOM      9  C   UNL     1       8.585   8.297   4.593  0.00  0.00    +0.057 C 
ATOM     13  C   UNL     1       7.531   9.378   4.864  0.00  0.00    +0.037 C 
ATOM     14  C   UNL     1       8.465   7.780   3.154  0.00  0.00    +0.037 C 
ATOM     15  C   UNL     1       7.617  10.495   3.827  0.00  0.00    +0.109 C 
ATOM     16  C   UNL     1       8.532   8.930   2.150  0.00  0.00    +0.109 C 
ATOM     18  C   UNL     1       6.577  10.456   1.582  0.00  0.00    +0.212 C 
ATOM     21  C   UNL     1       6.552   9.848   0.203  0.00  0.00    +0.109 C 
ENDBRANCH   5   9
ENDBRANCH   8   5
BRANCH   8  12
ATOM     12  C   UNL     1      10.852   7.237   6.014  0.00  0.00    +0.085 C 
BRANCH  12  17
ATOM      3  O   UNL     1      10.635   4.307   3.912  0.00  0.00    -0.354 OA
ATOM      7  N   UNL     1      10.344   5.012   5.072  0.00  0.00    -0.083 NA
ATOM     17  C   UNL     1      10.954   6.191   4.924  0.00  0.00    +0.086 A 
ATOM     19  C   UNL     1      11.639   6.288   3.701  0.00  0.00    +0.076 A 
ATOM     20  C   UNL     1      11.407   5.077   3.103  0.00  0.00    +0.167 A 
BRANCH  20  22
ATOM      1  F   UNL     1      12.894   2.768  -1.736  0.00  0.00    -0.205 F 
ATOM     22  C   UNL     1      11.790   4.480   1.856  0.00  0.00    +0.020 A 
ATOM     23  C   UNL     1      13.027   3.846   1.736  0.00  0.00    +0.014 A 
ATOM     24  C   UNL     1      10.927   4.536   0.762  0.00  0.00    +0.014 A 
ATOM     25  C   UNL     1      13.399   3.268   0.523  0.00  0.00    +0.039 A 
ATOM     26  C   UNL     1      11.299   3.957  -0.451  0.00  0.00    +0.039 A 
ATOM     27  C   UNL     1      12.536   3.323  -0.570  0.00  0.00    +0.123 A 
ENDBRANCH  20  22
ENDBRANCH  12  17
ENDBRANCH   8  12
TORSDOF 5
ENDMDL
