REMARK  Name = 11885889
REMARK  3 active torsions:
REMARK  status: ('A' for Active; 'I' for Inactive)
REMARK    1  A    between atoms: N_7  and  C_19
REMARK    2  A    between atoms: N_8  and  C_26
REMARK    3  A    between atoms: C_18  and  C_21
REMARK                            x       y       z     vdW  Elec       q    Type
REMARK                         _______ _______ _______ _____ _____    ______ ____
ROOT
ATOM      2  O   UNL     1      -0.197   2.487   1.597  0.00  0.00    -0.266 OA
ATOM      3  O   UNL     1      -3.594  -1.325   2.428  0.00  0.00    -0.269 OA
ATOM      5  N   UNL     1      -4.133  -0.328   0.381  0.00  0.00    -0.296 N 
ATOM      6  N   UNL     1      -1.818   1.816   0.054  0.00  0.00    -0.310 N 
ATOM      9  C   UNL     1      -4.327   2.152   0.446  0.00  0.00    +0.027 C 
ATOM     10  C   UNL     1      -3.547   1.040  -1.607  0.00  0.00    +0.054 C 
ATOM     11  C   UNL     1      -4.417   2.178  -1.076  0.00  0.00    +0.018 C 
ATOM     12  C   UNL     1      -4.830   0.804   0.991  0.00  0.00    +0.113 C 
ATOM     13  C   UNL     1      -2.878   2.438   0.860  0.00  0.00    +0.130 C 
ATOM     14  C   UNL     1      -4.087  -0.308  -1.090  0.00  0.00    +0.117 C 
ATOM     15  C   UNL     1      -2.102   1.211  -1.175  0.00  0.00    +0.027 A 
ATOM     16  C   UNL     1      -1.105   0.752  -1.950  0.00  0.00    +0.024 A 
ATOM     17  C   UNL     1      -0.498   1.949   0.531  0.00  0.00    +0.273 A 
ATOM     18  C   UNL     1      -3.558  -1.304   1.198  0.00  0.00    +0.253 C 
ATOM     19  C   UNL     1       0.581   1.399  -0.349  0.00  0.00    +0.100 A 
ATOM     20  C   UNL     1       0.263   0.848  -1.525  0.00  0.00    +0.030 A 
ENDROOT
BRANCH  19   7
ATOM      4  O   UNL     1       2.695  -0.397  -0.977  0.00  0.00    -0.252 OA
ATOM      7  N   UNL     1       1.871   1.492   0.086  0.00  0.00    -0.265 N 
ATOM      8  N   UNL     1       4.085   0.950   0.350  0.00  0.00    -0.269 N 
ATOM     23  C   UNL     1       2.878   0.579  -0.252  0.00  0.00    +0.308 C 
ATOM     32  H   UNL     1       2.046   2.103   0.878  0.00  0.00    +0.157 HD
ATOM     33  H   UNL     1       4.068   1.792   0.921  0.00  0.00    +0.156 HD
BRANCH   8  26
ATOM     26  C   UNL     1       5.337   0.298   0.262  0.00  0.00    +0.035 A 
ATOM     27  C   UNL     1       6.425   0.825   0.938  0.00  0.00    +0.023 A 
ATOM     28  C   UNL     1       5.450  -0.854  -0.498  0.00  0.00    +0.023 A 
ATOM     29  C   UNL     1       7.660   0.182   0.851  0.00  0.00    +0.002 A 
ATOM     30  C   UNL     1       6.685  -1.497  -0.586  0.00  0.00    +0.002 A 
ATOM     31  C   UNL     1       7.790  -0.979   0.089  0.00  0.00    +0.000 A 
ENDBRANCH   8  26
ENDBRANCH  19   7
BRANCH  18  21
ATOM      1  S   UNL     1      -1.155  -2.215   0.257  0.00  0.00    -0.092 S 
ATOM     21  C   UNL     1      -2.828  -2.399   0.552  0.00  0.00    +0.074 A 
ATOM     22  C   UNL     1      -3.306  -3.613   0.124  0.00  0.00    +0.021 A 
ATOM     24  C   UNL     1      -2.279  -4.412  -0.458  0.00  0.00    +0.008 A 
ATOM     25  C   UNL     1      -1.059  -3.772  -0.450  0.00  0.00    +0.046 A 
ENDBRANCH  18  21
TORSDOF 3
