MODEL 1
REMARK VINA RESULT:      -7.4      0.000      0.000
REMARK  Name = 75536963
REMARK  1 active torsions:
REMARK  status: ('A' for Active; 'I' for Inactive)
REMARK    1  A    between atoms: C_6  and  C_11
REMARK                            x       y       z     vdW  Elec       q    Type
REMARK                         _______ _______ _______ _____ _____    ______ ____
ROOT
ATOM      1  O   UNL     1      -3.999   3.882  25.271  0.00  0.00    -0.275 OA
ATOM      2  O   UNL     1      -3.717  -3.050  24.461  0.00  0.00    -0.253 OA
ATOM      3  N   UNL     1      -2.895   1.914  24.703  0.00  0.00    -0.298 N 
ATOM      4  N   UNL     1      -3.032  -0.852  24.951  0.00  0.00    -0.278 N 
ATOM      5  N   UNL     1      -1.467  -2.453  24.755  0.00  0.00    -0.297 N 
ATOM      7  C   UNL     1      -1.786  -0.194  25.304  0.00  0.00    +0.112 C 
ATOM     10  C   UNL     1      -1.654   1.130  24.557  0.00  0.00    +0.132 C 
ATOM     11  C   UNL     1      -2.965   3.226  25.178  0.00  0.00    +0.219 C 
ATOM     12  C   UNL     1      -4.117   1.223  24.271  0.00  0.00    +0.127 C 
ATOM     13  C   UNL     1      -4.279  -0.110  24.998  0.00  0.00    +0.128 C 
ATOM     14  C   UNL     1      -0.722  -1.232  24.961  0.00  0.00    +0.129 C 
ATOM     15  C   UNL     1      -2.853  -2.216  24.697  0.00  0.00    +0.303 C 
ATOM     16  H   UNL     1      -1.043  -3.362  24.593  0.00  0.00    +0.150 HD
ENDROOT
BRANCH  11   6
ATOM      6  C   UNL     1      -1.685   3.869  25.602  0.00  0.00    +0.075 C 
ATOM      8  C   UNL     1      -1.414   5.269  25.166  0.00  0.00    +0.013 C 
ATOM      9  C   UNL     1      -0.645   4.130  24.566  0.00  0.00    +0.013 C 
ENDBRANCH  11   6
TORSDOF 1
ENDMDL
MODEL 2
REMARK VINA RESULT:      -6.3     16.633     18.606
REMARK  Name = 75536963
REMARK  1 active torsions:
REMARK  status: ('A' for Active; 'I' for Inactive)
REMARK    1  A    between atoms: C_6  and  C_11
REMARK                            x       y       z     vdW  Elec       q    Type
REMARK                         _______ _______ _______ _____ _____    ______ ____
ROOT
ATOM      1  O   UNL     1      16.943   8.652  20.687  0.00  0.00    -0.275 OA
ATOM      2  O   UNL     1      10.215   9.420  22.398  0.00  0.00    -0.253 OA
ATOM      3  N   UNL     1      14.703   8.035  20.575  0.00  0.00    -0.298 N 
ATOM      4  N   UNL     1      12.247   8.375  21.837  0.00  0.00    -0.278 N 
ATOM      5  N   UNL     1      10.357   7.159  21.787  0.00  0.00    -0.297 N 
ATOM      7  C   UNL     1      12.688   7.021  21.548  0.00  0.00    +0.112 C 
ATOM     10  C   UNL     1      13.656   7.017  20.368  0.00  0.00    +0.132 C 
ATOM     11  C   UNL     1      16.078   7.793  20.541  0.00  0.00    +0.219 C 
ATOM     12  C   UNL     1      14.202   9.399  20.799  0.00  0.00    +0.127 C 
ATOM     13  C   UNL     1      13.226   9.438  21.972  0.00  0.00    +0.128 C 
ATOM     14  C   UNL     1      11.386   6.263  21.310  0.00  0.00    +0.129 C 
ATOM     15  C   UNL     1      10.867   8.444  22.053  0.00  0.00    +0.303 C 
ATOM     16  H   UNL     1       9.372   6.920  21.848  0.00  0.00    +0.150 HD
ENDROOT
BRANCH  11   6
ATOM      6  C   UNL     1      16.519   6.384  20.312  0.00  0.00    +0.075 C 
ATOM      8  C   UNL     1      17.937   6.138  19.925  0.00  0.00    +0.013 C 
ATOM      9  C   UNL     1      16.841   5.960  18.919  0.00  0.00    +0.013 C 
ENDBRANCH  11   6
TORSDOF 1
ENDMDL
MODEL 3
REMARK VINA RESULT:      -6.0     17.628     19.528
REMARK  Name = 75536963
REMARK  1 active torsions:
REMARK  status: ('A' for Active; 'I' for Inactive)
REMARK    1  A    between atoms: C_6  and  C_11
REMARK                            x       y       z     vdW  Elec       q    Type
REMARK                         _______ _______ _______ _____ _____    ______ ____
ROOT
ATOM      1  O   UNL     1      15.746   6.141  21.596  0.00  0.00    -0.275 OA
ATOM      2  O   UNL     1      10.488   8.323  17.549  0.00  0.00    -0.253 OA
ATOM      3  N   UNL     1      14.814   7.577  20.020  0.00  0.00    -0.298 N 
ATOM      4  N   UNL     1      12.681   7.843  18.256  0.00  0.00    -0.278 N 
ATOM      5  N   UNL     1      12.390   9.141  16.444  0.00  0.00    -0.297 N 
ATOM      7  C   UNL     1      14.023   8.074  17.748  0.00  0.00    +0.112 C 
ATOM     10  C   UNL     1      14.953   8.502  18.880  0.00  0.00    +0.132 C 
ATOM     11  C   UNL     1      15.866   6.888  20.629  0.00  0.00    +0.219 C 
ATOM     12  C   UNL     1      13.445   7.431  20.534  0.00  0.00    +0.127 C 
ATOM     13  C   UNL     1      12.486   7.005  19.425  0.00  0.00    +0.128 C 
ATOM     14  C   UNL     1      13.819   9.120  16.657  0.00  0.00    +0.129 C 
ATOM     15  C   UNL     1      11.703   8.416  17.436  0.00  0.00    +0.303 C 
ATOM     16  H   UNL     1      11.927   9.676  15.716  0.00  0.00    +0.150 HD
ENDROOT
BRANCH  11   6
ATOM      6  C   UNL     1      17.232   7.080  20.055  0.00  0.00    +0.075 C 
ATOM      8  C   UNL     1      17.883   5.927  19.370  0.00  0.00    +0.013 C 
ATOM      9  C   UNL     1      18.380   6.386  20.708  0.00  0.00    +0.013 C 
ENDBRANCH  11   6
TORSDOF 1
ENDMDL
MODEL 4
REMARK VINA RESULT:      -5.7     13.994     14.492
REMARK  Name = 75536963
REMARK  1 active torsions:
REMARK  status: ('A' for Active; 'I' for Inactive)
REMARK    1  A    between atoms: C_6  and  C_11
REMARK                            x       y       z     vdW  Elec       q    Type
REMARK                         _______ _______ _______ _____ _____    ______ ____
ROOT
ATOM      1  O   UNL     1     -13.996   4.627  34.399  0.00  0.00    -0.275 OA
ATOM      2  O   UNL     1     -15.731  -1.074  30.757  0.00  0.00    -0.253 OA
ATOM      3  N   UNL     1     -14.976   3.562  32.578  0.00  0.00    -0.298 N 
ATOM      4  N   UNL     1     -15.071   1.136  31.220  0.00  0.00    -0.278 N 
ATOM      5  N   UNL     1     -15.709   0.615  29.129  0.00  0.00    -0.297 N 
ATOM      7  C   UNL     1     -14.829   2.344  30.449  0.00  0.00    +0.112 C 
ATOM     10  C   UNL     1     -15.410   3.559  31.168  0.00  0.00    +0.132 C 
ATOM     11  C   UNL     1     -14.330   4.622  33.218  0.00  0.00    +0.219 C 
ATOM     12  C   UNL     1     -15.302   2.340  33.327  0.00  0.00    +0.127 C 
ATOM     13  C   UNL     1     -14.738   1.104  32.632  0.00  0.00    +0.128 C 
ATOM     14  C   UNL     1     -15.462   2.039  29.095  0.00  0.00    +0.129 C 
ATOM     15  C   UNL     1     -15.524   0.083  30.418  0.00  0.00    +0.303 C 
ATOM     16  H   UNL     1     -16.051   0.074  28.340  0.00  0.00    +0.150 HD
ENDROOT
BRANCH  11   6
ATOM      6  C   UNL     1     -14.025   5.833  32.397  0.00  0.00    +0.075 C 
ATOM      8  C   UNL     1     -13.493   7.043  33.086  0.00  0.00    +0.013 C 
ATOM      9  C   UNL     1     -14.895   7.034  32.555  0.00  0.00    +0.013 C 
ENDBRANCH  11   6
TORSDOF 1
ENDMDL
MODEL 5
REMARK VINA RESULT:      -5.4     17.473     19.426
REMARK  Name = 75536963
REMARK  1 active torsions:
REMARK  status: ('A' for Active; 'I' for Inactive)
REMARK    1  A    between atoms: C_6  and  C_11
REMARK                            x       y       z     vdW  Elec       q    Type
REMARK                         _______ _______ _______ _____ _____    ______ ____
ROOT
ATOM      1  O   UNL     1      17.270   6.607  19.676  0.00  0.00    -0.275 OA
ATOM      2  O   UNL     1      10.543   8.453  19.339  0.00  0.00    -0.253 OA
ATOM      3  N   UNL     1      15.277   7.325  20.638  0.00  0.00    -0.298 N 
ATOM      4  N   UNL     1      12.792   8.415  20.030  0.00  0.00    -0.278 N 
ATOM      5  N   UNL     1      11.295   9.524  21.287  0.00  0.00    -0.297 N 
ATOM      7  C   UNL     1      13.583   9.051  21.069  0.00  0.00    +0.112 C 
ATOM     10  C   UNL     1      14.544   8.045  21.696  0.00  0.00    +0.132 C 
ATOM     11  C   UNL     1      16.668   7.231  20.545  0.00  0.00    +0.219 C 
ATOM     12  C   UNL     1      14.427   6.646  19.650  0.00  0.00    +0.127 C 
ATOM     13  C   UNL     1      13.449   7.626  19.004  0.00  0.00    +0.128 C 
ATOM     14  C   UNL     1      12.535   9.615  22.023  0.00  0.00    +0.129 C 
ATOM     15  C   UNL     1      11.438   8.758  20.115  0.00  0.00    +0.303 C 
ATOM     16  H   UNL     1      10.408   9.897  21.611  0.00  0.00    +0.150 HD
ENDROOT
BRANCH  11   6
ATOM      6  C   UNL     1      17.472   7.947  21.580  0.00  0.00    +0.075 C 
ATOM      8  C   UNL     1      18.045   9.280  21.239  0.00  0.00    +0.013 C 
ATOM      9  C   UNL     1      18.942   8.085  21.366  0.00  0.00    +0.013 C 
ENDBRANCH  11   6
TORSDOF 1
ENDMDL
MODEL 6
REMARK VINA RESULT:      -5.4     13.276     14.286
REMARK  Name = 75536963
REMARK  1 active torsions:
REMARK  status: ('A' for Active; 'I' for Inactive)
REMARK    1  A    between atoms: C_6  and  C_11
REMARK                            x       y       z     vdW  Elec       q    Type
REMARK                         _______ _______ _______ _____ _____    ______ ____
ROOT
ATOM      1  O   UNL     1     -15.614   6.177  31.995  0.00  0.00    -0.275 OA
ATOM      2  O   UNL     1     -16.580   0.569  27.945  0.00  0.00    -0.253 OA
ATOM      3  N   UNL     1     -14.880   4.222  30.970  0.00  0.00    -0.298 N 
ATOM      4  N   UNL     1     -15.779   1.916  29.701  0.00  0.00    -0.278 N 
ATOM      5  N   UNL     1     -14.791  -0.068  29.324  0.00  0.00    -0.297 N 
ATOM      7  C   UNL     1     -14.815   1.773  30.779  0.00  0.00    +0.112 C 
ATOM     10  C   UNL     1     -13.988   3.048  30.924  0.00  0.00    +0.132 C 
ATOM     11  C   UNL     1     -14.887   5.188  31.979  0.00  0.00    +0.219 C 
ATOM     12  C   UNL     1     -15.790   4.351  29.823  0.00  0.00    +0.127 C 
ATOM     13  C   UNL     1     -16.631   3.089  29.646  0.00  0.00    +0.128 C 
ATOM     14  C   UNL     1     -14.016   0.534  30.385  0.00  0.00    +0.129 C 
ATOM     15  C   UNL     1     -15.817   0.785  28.878  0.00  0.00    +0.303 C 
ATOM     16  H   UNL     1     -14.576  -0.962  28.895  0.00  0.00    +0.150 HD
ENDROOT
BRANCH  11   6
ATOM      6  C   UNL     1     -13.939   4.994  33.117  0.00  0.00    +0.075 C 
ATOM      8  C   UNL     1     -14.458   4.398  34.381  0.00  0.00    +0.013 C 
ATOM      9  C   UNL     1     -14.098   5.852  34.326  0.00  0.00    +0.013 C 
ENDBRANCH  11   6
TORSDOF 1
ENDMDL
MODEL 7
REMARK VINA RESULT:      -5.3     14.027     14.630
REMARK  Name = 75536963
REMARK  1 active torsions:
REMARK  status: ('A' for Active; 'I' for Inactive)
REMARK    1  A    between atoms: C_6  and  C_11
REMARK                            x       y       z     vdW  Elec       q    Type
REMARK                         _______ _______ _______ _____ _____    ______ ____
ROOT
ATOM      1  O   UNL     1      -9.939 -10.350  19.241  0.00  0.00    -0.275 OA
ATOM      2  O   UNL     1      -3.268 -12.316  19.886  0.00  0.00    -0.253 OA
ATOM      3  N   UNL     1      -7.910 -11.082  18.368  0.00  0.00    -0.298 N 
ATOM      4  N   UNL     1      -5.208 -11.349  18.971  0.00  0.00    -0.278 N 
ATOM      5  N   UNL     1      -3.398 -11.585  17.660  0.00  0.00    -0.297 N 
ATOM      7  C   UNL     1      -5.571 -10.701  17.722  0.00  0.00    +0.112 C 
ATOM     10  C   UNL     1      -6.945 -11.175  17.257  0.00  0.00    +0.132 C 
ATOM     11  C   UNL     1      -9.128 -10.400  18.320  0.00  0.00    +0.219 C 
ATOM     12  C   UNL     1      -7.523 -11.809  19.585  0.00  0.00    +0.127 C 
ATOM     13  C   UNL     1      -6.148 -11.361  20.077  0.00  0.00    +0.128 C 
ATOM     14  C   UNL     1      -4.420 -11.057  16.786  0.00  0.00    +0.129 C 
ATOM     15  C   UNL     1      -3.887 -11.809  18.961  0.00  0.00    +0.303 C 
ATOM     16  H   UNL     1      -2.462 -11.839  17.359  0.00  0.00    +0.150 HD
ENDROOT
BRANCH  11   6
ATOM      6  C   UNL     1      -9.459  -9.680  17.053  0.00  0.00    +0.075 C 
ATOM      8  C   UNL     1      -9.494  -8.189  17.072  0.00  0.00    +0.013 C 
ATOM      9  C   UNL     1     -10.768  -8.971  16.962  0.00  0.00    +0.013 C 
ENDBRANCH  11   6
TORSDOF 1
ENDMDL
MODEL 8
REMARK VINA RESULT:      -5.2     13.739     15.354
REMARK  Name = 75536963
REMARK  1 active torsions:
REMARK  status: ('A' for Active; 'I' for Inactive)
REMARK    1  A    between atoms: C_6  and  C_11
REMARK                            x       y       z     vdW  Elec       q    Type
REMARK                         _______ _______ _______ _____ _____    ______ ____
ROOT
ATOM      1  O   UNL     1      -2.442 -11.773  14.688  0.00  0.00    -0.275 OA
ATOM      2  O   UNL     1      -6.268 -10.896  20.464  0.00  0.00    -0.253 OA
ATOM      3  N   UNL     1      -4.052 -10.661  15.947  0.00  0.00    -0.298 N 
ATOM      4  N   UNL     1      -5.680 -10.923  18.186  0.00  0.00    -0.278 N 
ATOM      5  N   UNL     1      -7.559  -9.855  18.804  0.00  0.00    -0.297 N 
ATOM      7  C   UNL     1      -6.294 -10.505  16.937  0.00  0.00    +0.112 C 
ATOM     10  C   UNL     1      -5.264  -9.826  16.039  0.00  0.00    +0.132 C 
ATOM     11  C   UNL     1      -3.467 -11.101  14.757  0.00  0.00    +0.219 C 
ATOM     12  C   UNL     1      -3.435 -11.001  17.238  0.00  0.00    +0.127 C 
ATOM     13  C   UNL     1      -4.443 -11.680  18.163  0.00  0.00    +0.128 C 
ATOM     14  C   UNL     1      -7.443  -9.606  17.385  0.00  0.00    +0.129 C 
ATOM     15  C   UNL     1      -6.471 -10.602  19.294  0.00  0.00    +0.303 C 
ATOM     16  H   UNL     1      -8.291  -9.472  19.395  0.00  0.00    +0.150 HD
ENDROOT
BRANCH  11   6
ATOM      6  C   UNL     1      -4.146 -10.722  13.481  0.00  0.00    +0.075 C 
ATOM      8  C   UNL     1      -4.089 -11.675  12.336  0.00  0.00    +0.013 C 
ATOM      9  C   UNL     1      -3.300 -10.401  12.295  0.00  0.00    +0.013 C 
ENDBRANCH  11   6
TORSDOF 1
ENDMDL
MODEL 9
REMARK VINA RESULT:      -5.2     14.100     15.404
REMARK  Name = 75536963
REMARK  1 active torsions:
REMARK  status: ('A' for Active; 'I' for Inactive)
REMARK    1  A    between atoms: C_6  and  C_11
REMARK                            x       y       z     vdW  Elec       q    Type
REMARK                         _______ _______ _______ _____ _____    ______ ____
ROOT
ATOM      1  O   UNL     1     -15.753  -0.127  30.252  0.00  0.00    -0.275 OA
ATOM      2  O   UNL     1     -14.200   4.361  35.373  0.00  0.00    -0.253 OA
ATOM      3  N   UNL     1     -14.946   1.909  31.036  0.00  0.00    -0.298 N 
ATOM      4  N   UNL     1     -14.901   3.559  33.275  0.00  0.00    -0.278 N 
ATOM      5  N   UNL     1     -14.488   5.756  33.508  0.00  0.00    -0.297 N 
ATOM      7  C   UNL     1     -15.285   4.143  32.001  0.00  0.00    +0.112 C 
ATOM     10  C   UNL     1     -14.680   3.347  30.848  0.00  0.00    +0.132 C 
ATOM     11  C   UNL     1     -15.560   1.075  30.099  0.00  0.00    +0.219 C 
ATOM     12  C   UNL     1     -14.479   1.357  32.316  0.00  0.00    +0.127 C 
ATOM     13  C   UNL     1     -15.064   2.133  33.493  0.00  0.00    +0.128 C 
ATOM     14  C   UNL     1     -14.801   5.586  32.107  0.00  0.00    +0.129 C 
ATOM     15  C   UNL     1     -14.498   4.529  34.198  0.00  0.00    +0.303 C 
ATOM     16  H   UNL     1     -14.217   6.638  33.931  0.00  0.00    +0.150 HD
ENDROOT
BRANCH  11   6
ATOM      6  C   UNL     1     -16.013   1.702  28.820  0.00  0.00    +0.075 C 
ATOM      8  C   UNL     1     -17.425   2.167  28.718  0.00  0.00    +0.013 C 
ATOM      9  C   UNL     1     -16.977   0.951  27.965  0.00  0.00    +0.013 C 
ENDBRANCH  11   6
TORSDOF 1
ENDMDL
MODEL 10
REMARK VINA RESULT:      -5.2     18.035     19.875
REMARK  Name = 75536963
REMARK  1 active torsions:
REMARK  status: ('A' for Active; 'I' for Inactive)
REMARK    1  A    between atoms: C_6  and  C_11
REMARK                            x       y       z     vdW  Elec       q    Type
REMARK                         _______ _______ _______ _____ _____    ______ ____
ROOT
ATOM      1  O   UNL     1      12.531   6.551  19.274  0.00  0.00    -0.275 OA
ATOM      2  O   UNL     1      19.056   6.988  21.725  0.00  0.00    -0.253 OA
ATOM      3  N   UNL     1      14.462   7.737  19.799  0.00  0.00    -0.298 N 
ATOM      4  N   UNL     1      16.829   7.582  21.251  0.00  0.00    -0.278 N 
ATOM      5  N   UNL     1      18.235   9.169  21.996  0.00  0.00    -0.297 N 
ATOM      7  C   UNL     1      15.997   8.760  21.421  0.00  0.00    +0.112 C 
ATOM     10  C   UNL     1      15.140   8.990  20.179  0.00  0.00    +0.132 C 
ATOM     11  C   UNL     1      13.085   7.591  19.617  0.00  0.00    +0.219 C 
ATOM     12  C   UNL     1      15.358   6.593  19.577  0.00  0.00    +0.127 C 
ATOM     13  C   UNL     1      16.233   6.337  20.801  0.00  0.00    +0.128 C 
ATOM     14  C   UNL     1      17.002   9.869  21.719  0.00  0.00    +0.129 C 
ATOM     15  C   UNL     1      18.147   7.804  21.665  0.00  0.00    +0.303 C 
ATOM     16  H   UNL     1      19.089   9.617  22.316  0.00  0.00    +0.150 HD
ENDROOT
BRANCH  11   6
ATOM      6  C   UNL     1      12.232   8.793  19.862  0.00  0.00    +0.075 C 
ATOM      8  C   UNL     1      11.682   9.007  21.231  0.00  0.00    +0.013 C 
ATOM      9  C   UNL     1      10.776   8.590  20.113  0.00  0.00    +0.013 C 
ENDBRANCH  11   6
TORSDOF 1
ENDMDL
