MODEL 1
REMARK VINA RESULT:      -6.1      0.000      0.000
REMARK  Name = 25338995
REMARK  9 active torsions:
REMARK  status: ('A' for Active; 'I' for Inactive)
REMARK    1  A    between atoms: S_1  and  N_9
REMARK    2  A    between atoms: S_1  and  C_20
REMARK    3  A    between atoms: O_7  and  C_19
REMARK    4  A    between atoms: O_7  and  C_28
REMARK    5  A    between atoms: N_10  and  C_17
REMARK    6  A    between atoms: C_12  and  C_19
REMARK    7  A    between atoms: C_17  and  C_21
REMARK    8  A    between atoms: C_17  and  C_22
REMARK    9  A    between atoms: C_25  and  C_29
REMARK                            x       y       z     vdW  Elec       q    Type
REMARK                         _______ _______ _______ _____ _____    ______ ____
ROOT
ATOM      9  N   UNL     1      -6.470 -11.405  17.444  0.00  0.00    -0.157 NA
ATOM     10  N   UNL     1      -8.681 -14.330  18.215  0.00  0.00    -0.330 N 
ATOM     11  N   UNL     1      -9.709 -12.906  19.596  0.00  0.00    -0.240 NA
ATOM     12  C   UNL     1      -6.714 -10.722  18.769  0.00  0.00    +0.194 C 
ATOM     13  C   UNL     1      -6.729 -12.897  17.419  0.00  0.00    +0.165 C 
ATOM     14  C   UNL     1      -7.958 -13.176  18.185  0.00  0.00    +0.057 A 
ATOM     15  C   UNL     1      -8.148 -10.934  19.295  0.00  0.00    +0.089 C 
ATOM     16  C   UNL     1      -8.605 -12.320  19.042  0.00  0.00    +0.066 A 
ATOM     18  C   UNL     1      -9.726 -14.118  19.079  0.00  0.00    +0.200 A 
ENDROOT
BRANCH   9   1
ATOM      1  S   UNL     1      -6.985 -10.537  16.056  0.00  0.00    +0.062 S 
ATOM      5  O   UNL     1      -7.256  -9.166  16.430  0.00  0.00    -0.153 OA
ATOM      6  O   UNL     1      -7.969 -11.326  15.347  0.00  0.00    -0.153 OA
BRANCH   1  20
ATOM     20  C   UNL     1      -5.493 -10.555  15.112  0.00  0.00    +0.106 A 
ATOM     23  C   UNL     1      -4.258 -10.607  15.761  0.00  0.00    +0.041 A 
ATOM     24  C   UNL     1      -5.548 -10.519  13.720  0.00  0.00    +0.028 A 
ATOM     25  C   UNL     1      -3.080 -10.622  15.015  0.00  0.00    +0.057 A 
ATOM     26  C   UNL     1      -4.369 -10.534  12.974  0.00  0.00    +0.002 A 
ATOM     27  C   UNL     1      -3.135 -10.584  13.622  0.00  0.00    +0.012 A 
BRANCH  25  29
ATOM      2  F   UNL     1      -1.876 -10.940  17.041  0.00  0.00    -0.166 F 
ATOM      3  F   UNL     1      -0.923 -11.638  15.216  0.00  0.00    -0.166 F 
ATOM      4  F   UNL     1      -1.050  -9.512  15.624  0.00  0.00    -0.166 F 
ATOM     29  C   UNL     1      -1.759 -10.677  15.707  0.00  0.00    +0.417 C 
ENDBRANCH  25  29
ENDBRANCH   1  20
ENDBRANCH   9   1
BRANCH  10  17
ATOM     17  C   UNL     1      -8.412 -15.549  17.492  0.00  0.00    +0.082 C 
ATOM     21  C   UNL     1      -9.056 -15.535  16.103  0.00  0.00    +0.030 C 
ATOM     22  C   UNL     1      -8.852 -16.783  18.284  0.00  0.00    +0.030 C 
ENDBRANCH  10  17
BRANCH  12  19
ATOM      8  O   UNL     1      -5.893 -11.524  20.884  0.00  0.00    -0.249 OA
ATOM     19  C   UNL     1      -5.674 -11.236  19.714  0.00  0.00    +0.326 C 
BRANCH  19   7
ATOM      7  O   UNL     1      -4.476 -11.326  19.070  0.00  0.00    -0.467 OA
ATOM     28  C   UNL     1      -3.597 -12.352  19.545  0.00  0.00    +0.280 C 
ENDBRANCH  19   7
ENDBRANCH  12  19
TORSDOF 6
ENDMDL
MODEL 2
REMARK VINA RESULT:      -5.9     25.700     28.610
REMARK  Name = 25338995
REMARK  9 active torsions:
REMARK  status: ('A' for Active; 'I' for Inactive)
REMARK    1  A    between atoms: S_1  and  N_9
REMARK    2  A    between atoms: S_1  and  C_20
REMARK    3  A    between atoms: O_7  and  C_19
REMARK    4  A    between atoms: O_7  and  C_28
REMARK    5  A    between atoms: N_10  and  C_17
REMARK    6  A    between atoms: C_12  and  C_19
REMARK    7  A    between atoms: C_17  and  C_21
REMARK    8  A    between atoms: C_17  and  C_22
REMARK    9  A    between atoms: C_25  and  C_29
REMARK                            x       y       z     vdW  Elec       q    Type
REMARK                         _______ _______ _______ _____ _____    ______ ____
ROOT
ATOM      9  N   UNL     1      11.696   7.481   4.552  0.00  0.00    -0.157 NA
ATOM     10  N   UNL     1       9.895   6.192   7.574  0.00  0.00    -0.330 N 
ATOM     11  N   UNL     1       9.112   8.279   7.723  0.00  0.00    -0.240 NA
ATOM     12  C   UNL     1      11.709   8.914   5.026  0.00  0.00    +0.194 C 
ATOM     13  C   UNL     1      11.531   6.435   5.633  0.00  0.00    +0.165 C 
ATOM     14  C   UNL     1      10.521   6.909   6.598  0.00  0.00    +0.057 A 
ATOM     15  C   UNL     1      10.442   9.292   5.821  0.00  0.00    +0.089 C 
ATOM     16  C   UNL     1      10.027   8.185   6.713  0.00  0.00    +0.066 A 
ATOM     18  C   UNL     1       9.056   7.062   8.225  0.00  0.00    +0.200 A 
ENDROOT
BRANCH   9   1
ATOM      1  S   UNL     1      10.834   7.188   3.096  0.00  0.00    +0.062 S 
ATOM      5  O   UNL     1      11.180   8.208   2.130  0.00  0.00    -0.153 OA
ATOM      6  O   UNL     1       9.453   6.903   3.417  0.00  0.00    -0.153 OA
BRANCH   1  20
ATOM     20  C   UNL     1      11.596   5.680   2.586  0.00  0.00    +0.106 A 
ATOM     23  C   UNL     1      12.866   5.701   2.008  0.00  0.00    +0.041 A 
ATOM     24  C   UNL     1      10.930   4.468   2.762  0.00  0.00    +0.028 A 
ATOM     25  C   UNL     1      13.468   4.508   1.606  0.00  0.00    +0.057 A 
ATOM     26  C   UNL     1      11.532   3.275   2.360  0.00  0.00    +0.002 A 
ATOM     27  C   UNL     1      12.801   3.296   1.781  0.00  0.00    +0.012 A 
BRANCH  25  29
ATOM      2  F   UNL     1      15.603   3.483   1.393  0.00  0.00    -0.166 F 
ATOM      3  F   UNL     1      14.806   4.464  -0.376  0.00  0.00    -0.166 F 
ATOM      4  F   UNL     1      15.543   5.654   1.281  0.00  0.00    -0.166 F 
ATOM     29  C   UNL     1      14.825   4.529   0.988  0.00  0.00    +0.417 C 
ENDBRANCH  25  29
ENDBRANCH   1  20
ENDBRANCH   9   1
BRANCH  10  17
ATOM     17  C   UNL     1      10.074   4.794   7.882  0.00  0.00    +0.082 C 
ATOM     21  C   UNL     1       9.580   3.899   6.743  0.00  0.00    +0.030 C 
ATOM     22  C   UNL     1       9.397   4.418   9.203  0.00  0.00    +0.030 C 
ENDBRANCH  10  17
BRANCH  12  19
ATOM      8  O   UNL     1      12.999   9.593   6.940  0.00  0.00    -0.249 OA
ATOM     19  C   UNL     1      12.962   9.091   5.824  0.00  0.00    +0.326 C 
BRANCH  19   7
ATOM      7  O   UNL     1      14.025   8.611   5.118  0.00  0.00    -0.467 OA
ATOM     28  C   UNL     1      15.204   8.345   5.885  0.00  0.00    +0.280 C 
ENDBRANCH  19   7
ENDBRANCH  12  19
TORSDOF 6
ENDMDL
MODEL 3
REMARK VINA RESULT:      -5.9      4.082      7.276
REMARK  Name = 25338995
REMARK  9 active torsions:
REMARK  status: ('A' for Active; 'I' for Inactive)
REMARK    1  A    between atoms: S_1  and  N_9
REMARK    2  A    between atoms: S_1  and  C_20
REMARK    3  A    between atoms: O_7  and  C_19
REMARK    4  A    between atoms: O_7  and  C_28
REMARK    5  A    between atoms: N_10  and  C_17
REMARK    6  A    between atoms: C_12  and  C_19
REMARK    7  A    between atoms: C_17  and  C_21
REMARK    8  A    between atoms: C_17  and  C_22
REMARK    9  A    between atoms: C_25  and  C_29
REMARK                            x       y       z     vdW  Elec       q    Type
REMARK                         _______ _______ _______ _____ _____    ______ ____
ROOT
ATOM      9  N   UNL     1      -4.400 -11.231  13.234  0.00  0.00    -0.157 NA
ATOM     10  N   UNL     1      -5.299 -10.493   9.672  0.00  0.00    -0.330 N 
ATOM     11  N   UNL     1      -3.871 -12.145   9.202  0.00  0.00    -0.240 NA
ATOM     12  C   UNL     1      -3.049 -11.814  12.895  0.00  0.00    +0.194 C 
ATOM     13  C   UNL     1      -4.991 -10.301  12.196  0.00  0.00    +0.165 C 
ATOM     14  C   UNL     1      -4.739 -10.867  10.857  0.00  0.00    +0.057 A 
ATOM     15  C   UNL     1      -3.048 -12.582  11.558  0.00  0.00    +0.089 C 
ATOM     16  C   UNL     1      -3.865 -11.877  10.542  0.00  0.00    +0.066 A 
ATOM     18  C   UNL     1      -4.744 -11.293   8.705  0.00  0.00    +0.200 A 
ENDROOT
BRANCH   9   1
ATOM      1  S   UNL     1      -5.506 -12.308  13.984  0.00  0.00    +0.062 S 
ATOM      5  O   UNL     1      -4.880 -13.604  14.126  0.00  0.00    -0.153 OA
ATOM      6  O   UNL     1      -6.799 -12.169  13.350  0.00  0.00    -0.153 OA
BRANCH   1  20
ATOM     20  C   UNL     1      -5.606 -11.577  15.588  0.00  0.00    +0.106 A 
ATOM     23  C   UNL     1      -4.855 -12.101  16.641  0.00  0.00    +0.041 A 
ATOM     24  C   UNL     1      -6.435 -10.476  15.802  0.00  0.00    +0.028 A 
ATOM     25  C   UNL     1      -4.934 -11.523  17.908  0.00  0.00    +0.057 A 
ATOM     26  C   UNL     1      -6.514  -9.898  17.069  0.00  0.00    +0.002 A 
ATOM     27  C   UNL     1      -5.764 -10.422  18.122  0.00  0.00    +0.012 A 
BRANCH  25  29
ATOM      2  F   UNL     1      -4.638 -11.745  20.257  0.00  0.00    -0.166 F 
ATOM      3  F   UNL     1      -4.061 -13.445  19.031  0.00  0.00    -0.166 F 
ATOM      4  F   UNL     1      -2.834 -11.657  19.046  0.00  0.00    -0.166 F 
ATOM     29  C   UNL     1      -4.133 -12.082  19.035  0.00  0.00    +0.417 C 
ENDBRANCH  25  29
ENDBRANCH   1  20
ENDBRANCH   9   1
BRANCH  10  17
ATOM     17  C   UNL     1      -6.279  -9.456   9.457  0.00  0.00    +0.082 C 
ATOM     21  C   UNL     1      -7.022  -9.649   8.134  0.00  0.00    +0.030 C 
ATOM     22  C   UNL     1      -5.650  -8.063   9.530  0.00  0.00    +0.030 C 
ENDBRANCH  10  17
BRANCH  12  19
ATOM      8  O   UNL     1      -1.466 -10.289  11.917  0.00  0.00    -0.249 OA
ATOM     19  C   UNL     1      -2.076 -10.677  12.905  0.00  0.00    +0.326 C 
BRANCH  19   7
ATOM      7  O   UNL     1      -1.987 -10.163  14.164  0.00  0.00    -0.467 OA
ATOM     28  C   UNL     1      -1.484 -11.059  15.161  0.00  0.00    +0.280 C 
ENDBRANCH  19   7
ENDBRANCH  12  19
TORSDOF 6
ENDMDL
MODEL 4
REMARK VINA RESULT:      -5.8     26.329     29.550
REMARK  Name = 25338995
REMARK  9 active torsions:
REMARK  status: ('A' for Active; 'I' for Inactive)
REMARK    1  A    between atoms: S_1  and  N_9
REMARK    2  A    between atoms: S_1  and  C_20
REMARK    3  A    between atoms: O_7  and  C_19
REMARK    4  A    between atoms: O_7  and  C_28
REMARK    5  A    between atoms: N_10  and  C_17
REMARK    6  A    between atoms: C_12  and  C_19
REMARK    7  A    between atoms: C_17  and  C_21
REMARK    8  A    between atoms: C_17  and  C_22
REMARK    9  A    between atoms: C_25  and  C_29
REMARK                            x       y       z     vdW  Elec       q    Type
REMARK                         _______ _______ _______ _____ _____    ______ ____
ROOT
ATOM      9  N   UNL     1      12.096   5.156   1.589  0.00  0.00    -0.157 NA
ATOM     10  N   UNL     1      12.140   5.220  -2.157  0.00  0.00    -0.330 N 
ATOM     11  N   UNL     1      13.641   3.578  -1.946  0.00  0.00    -0.240 NA
ATOM     12  C   UNL     1      13.489   4.585   1.713  0.00  0.00    +0.194 C 
ATOM     13  C   UNL     1      11.791   5.863   0.286  0.00  0.00    +0.165 C 
ATOM     14  C   UNL     1      12.378   5.085  -0.822  0.00  0.00    +0.057 A 
ATOM     15  C   UNL     1      13.832   3.597   0.580  0.00  0.00    +0.089 C 
ATOM     16  C   UNL     1      13.303   4.076  -0.719  0.00  0.00    +0.066 A 
ATOM     18  C   UNL     1      12.924   4.290  -2.792  0.00  0.00    +0.200 A 
ENDROOT
BRANCH   9   1
ATOM      1  S   UNL     1      10.834   4.177   2.218  0.00  0.00    +0.062 S 
ATOM      5  O   UNL     1      11.411   3.005   2.839  0.00  0.00    -0.153 OA
ATOM      6  O   UNL     1       9.793   4.057   1.221  0.00  0.00    -0.153 OA
BRANCH   1  20
ATOM     20  C   UNL     1      10.238   5.231   3.502  0.00  0.00    +0.106 A 
ATOM     23  C   UNL     1      10.328   4.826   4.835  0.00  0.00    +0.041 A 
ATOM     24  C   UNL     1       9.678   6.468   3.185  0.00  0.00    +0.028 A 
ATOM     25  C   UNL     1       9.858   5.660   5.849  0.00  0.00    +0.057 A 
ATOM     26  C   UNL     1       9.208   7.302   4.200  0.00  0.00    +0.002 A 
ATOM     27  C   UNL     1       9.297   6.897   5.532  0.00  0.00    +0.012 A 
BRANCH  25  29
ATOM      2  F   UNL     1       9.793   3.882   7.427  0.00  0.00    -0.166 F 
ATOM      3  F   UNL     1      11.152   5.523   7.856  0.00  0.00    -0.166 F 
ATOM      4  F   UNL     1       9.014   5.804   8.083  0.00  0.00    -0.166 F 
ATOM     29  C   UNL     1       9.953   5.229   7.274  0.00  0.00    +0.417 C 
ENDBRANCH  25  29
ENDBRANCH   1  20
ENDBRANCH   9   1
BRANCH  10  17
ATOM     17  C   UNL     1      11.249   6.157  -2.795  0.00  0.00    +0.082 C 
ATOM     21  C   UNL     1       9.819   5.615  -2.867  0.00  0.00    +0.030 C 
ATOM     22  C   UNL     1      11.751   6.555  -4.185  0.00  0.00    +0.030 C 
ENDBRANCH  10  17
BRANCH  12  19
ATOM      8  O   UNL     1      15.362   5.911   0.988  0.00  0.00    -0.249 OA
ATOM     19  C   UNL     1      14.427   5.750   1.762  0.00  0.00    +0.326 C 
BRANCH  19   7
ATOM      7  O   UNL     1      14.074   6.578   2.786  0.00  0.00    -0.467 OA
ATOM     28  C   UNL     1      15.158   7.077   3.576  0.00  0.00    +0.280 C 
ENDBRANCH  19   7
ENDBRANCH  12  19
TORSDOF 6
ENDMDL
MODEL 5
REMARK VINA RESULT:      -5.7      5.095      7.954
REMARK  Name = 25338995
REMARK  9 active torsions:
REMARK  status: ('A' for Active; 'I' for Inactive)
REMARK    1  A    between atoms: S_1  and  N_9
REMARK    2  A    between atoms: S_1  and  C_20
REMARK    3  A    between atoms: O_7  and  C_19
REMARK    4  A    between atoms: O_7  and  C_28
REMARK    5  A    between atoms: N_10  and  C_17
REMARK    6  A    between atoms: C_12  and  C_19
REMARK    7  A    between atoms: C_17  and  C_21
REMARK    8  A    between atoms: C_17  and  C_22
REMARK    9  A    between atoms: C_25  and  C_29
REMARK                            x       y       z     vdW  Elec       q    Type
REMARK                         _______ _______ _______ _____ _____    ______ ____
ROOT
ATOM      9  N   UNL     1      -4.347 -10.613  11.642  0.00  0.00    -0.157 NA
ATOM     10  N   UNL     1      -5.542 -12.482   8.622  0.00  0.00    -0.330 N 
ATOM     11  N   UNL     1      -4.832 -10.683   7.503  0.00  0.00    -0.240 NA
ATOM     12  C   UNL     1      -4.498  -9.253  11.005  0.00  0.00    +0.194 C 
ATOM     13  C   UNL     1      -5.177 -11.720  11.028  0.00  0.00    +0.165 C 
ATOM     14  C   UNL     1      -5.143 -11.577   9.560  0.00  0.00    +0.057 A 
ATOM     15  C   UNL     1      -4.182  -9.261   9.496  0.00  0.00    +0.089 C 
ATOM     16  C   UNL     1      -4.716 -10.482   8.850  0.00  0.00    +0.066 A 
ATOM     18  C   UNL     1      -5.335 -11.897   7.398  0.00  0.00    +0.200 A 
ENDROOT
BRANCH   9   1
ATOM      1  S   UNL     1      -2.749 -11.047  12.096  0.00  0.00    +0.062 S 
ATOM      5  O   UNL     1      -1.828 -10.053  11.588  0.00  0.00    -0.153 OA
ATOM      6  O   UNL     1      -2.550 -12.454  11.828  0.00  0.00    -0.153 OA
BRANCH   1  20
ATOM     20  C   UNL     1      -2.859 -10.837  13.845  0.00  0.00    +0.106 A 
ATOM     23  C   UNL     1      -4.106 -10.672  14.451  0.00  0.00    +0.041 A 
ATOM     24  C   UNL     1      -1.701 -10.837  14.622  0.00  0.00    +0.028 A 
ATOM     25  C   UNL     1      -4.192 -10.507  15.833  0.00  0.00    +0.057 A 
ATOM     26  C   UNL     1      -1.788 -10.672  16.005  0.00  0.00    +0.002 A 
ATOM     27  C   UNL     1      -3.034 -10.506  16.610  0.00  0.00    +0.012 A 
BRANCH  25  29
ATOM      2  F   UNL     1      -5.446 -10.303  17.844  0.00  0.00    -0.166 F 
ATOM      3  F   UNL     1      -6.155  -9.172  16.128  0.00  0.00    -0.166 F 
ATOM      4  F   UNL     1      -6.413 -11.324  16.185  0.00  0.00    -0.166 F 
ATOM     29  C   UNL     1      -5.524 -10.330  16.481  0.00  0.00    +0.417 C 
ENDBRANCH  25  29
ENDBRANCH   1  20
ENDBRANCH   9   1
BRANCH  10  17
ATOM     17  C   UNL     1      -6.085 -13.798   8.853  0.00  0.00    +0.082 C 
ATOM     21  C   UNL     1      -4.989 -14.866   8.864  0.00  0.00    +0.030 C 
ATOM     22  C   UNL     1      -7.173 -14.145   7.833  0.00  0.00    +0.030 C 
ENDBRANCH  10  17
BRANCH  12  19
ATOM      8  O   UNL     1      -6.396  -8.798  12.414  0.00  0.00    -0.249 OA
ATOM     19  C   UNL     1      -5.893  -8.795  11.298  0.00  0.00    +0.326 C 
BRANCH  19   7
ATOM      7  O   UNL     1      -6.491  -8.387  10.142  0.00  0.00    -0.467 OA
ATOM     28  C   UNL     1      -7.844  -8.821   9.964  0.00  0.00    +0.280 C 
ENDBRANCH  19   7
ENDBRANCH  12  19
TORSDOF 6
ENDMDL
MODEL 6
REMARK VINA RESULT:      -5.7      2.140      3.223
REMARK  Name = 25338995
REMARK  9 active torsions:
REMARK  status: ('A' for Active; 'I' for Inactive)
REMARK    1  A    between atoms: S_1  and  N_9
REMARK    2  A    between atoms: S_1  and  C_20
REMARK    3  A    between atoms: O_7  and  C_19
REMARK    4  A    between atoms: O_7  and  C_28
REMARK    5  A    between atoms: N_10  and  C_17
REMARK    6  A    between atoms: C_12  and  C_19
REMARK    7  A    between atoms: C_17  and  C_21
REMARK    8  A    between atoms: C_17  and  C_22
REMARK    9  A    between atoms: C_25  and  C_29
REMARK                            x       y       z     vdW  Elec       q    Type
REMARK                         _______ _______ _______ _____ _____    ______ ____
ROOT
ATOM      9  N   UNL     1      -7.596 -11.660  17.357  0.00  0.00    -0.157 NA
ATOM     10  N   UNL     1     -11.117 -11.296  18.584  0.00  0.00    -0.330 N 
ATOM     11  N   UNL     1     -10.335 -12.265  20.440  0.00  0.00    -0.240 NA
ATOM     12  C   UNL     1      -7.278 -12.829  18.257  0.00  0.00    +0.194 C 
ATOM     13  C   UNL     1      -9.066 -11.429  17.076  0.00  0.00    +0.165 C 
ATOM     14  C   UNL     1      -9.822 -11.633  18.326  0.00  0.00    +0.057 A 
ATOM     15  C   UNL     1      -7.983 -12.738  19.626  0.00  0.00    +0.089 C 
ATOM     16  C   UNL     1      -9.366 -12.229  19.476  0.00  0.00    +0.066 A 
ATOM     18  C   UNL     1     -11.379 -11.697  19.871  0.00  0.00    +0.200 A 
ENDROOT
BRANCH   9   1
ATOM      1  S   UNL     1      -6.657 -10.246  17.616  0.00  0.00    +0.062 S 
ATOM      5  O   UNL     1      -5.941 -10.379  18.866  0.00  0.00    -0.153 OA
ATOM      6  O   UNL     1      -7.474  -9.084  17.344  0.00  0.00    -0.153 OA
BRANCH   1  20
ATOM     20  C   UNL     1      -5.488 -10.409  16.304  0.00  0.00    +0.106 A 
ATOM     23  C   UNL     1      -4.124 -10.473  16.589  0.00  0.00    +0.041 A 
ATOM     24  C   UNL     1      -5.928 -10.473  14.982  0.00  0.00    +0.028 A 
ATOM     25  C   UNL     1      -3.201 -10.602  15.551  0.00  0.00    +0.057 A 
ATOM     26  C   UNL     1      -5.005 -10.602  13.944  0.00  0.00    +0.002 A 
ATOM     27  C   UNL     1      -3.641 -10.665  14.229  0.00  0.00    +0.012 A 
BRANCH  25  29
ATOM      2  F   UNL     1      -1.490 -10.904  17.175  0.00  0.00    -0.166 F 
ATOM      3  F   UNL     1      -1.088 -11.659  15.176  0.00  0.00    -0.166 F 
ATOM      4  F   UNL     1      -1.066  -9.522  15.550  0.00  0.00    -0.166 F 
ATOM     29  C   UNL     1      -1.742 -10.670  15.854  0.00  0.00    +0.417 C 
ENDBRANCH  25  29
ENDBRANCH   1  20
ENDBRANCH   9   1
BRANCH  10  17
ATOM     17  C   UNL     1     -12.047 -10.651  17.691  0.00  0.00    +0.082 C 
ATOM     21  C   UNL     1     -11.974  -9.126  17.805  0.00  0.00    +0.030 C 
ATOM     22  C   UNL     1     -13.478 -11.145  17.914  0.00  0.00    +0.030 C 
ENDBRANCH  10  17
BRANCH  12  19
ATOM      8  O   UNL     1      -8.517 -14.854  17.859  0.00  0.00    -0.249 OA
ATOM     19  C   UNL     1      -7.650 -14.067  17.501  0.00  0.00    +0.326 C 
BRANCH  19   7
ATOM      7  O   UNL     1      -6.881 -14.164  16.380  0.00  0.00    -0.467 OA
ATOM     28  C   UNL     1      -5.468 -14.212  16.605  0.00  0.00    +0.280 C 
ENDBRANCH  19   7
ENDBRANCH  12  19
TORSDOF 6
ENDMDL
MODEL 7
REMARK VINA RESULT:      -5.6      4.461      7.400
REMARK  Name = 25338995
REMARK  9 active torsions:
REMARK  status: ('A' for Active; 'I' for Inactive)
REMARK    1  A    between atoms: S_1  and  N_9
REMARK    2  A    between atoms: S_1  and  C_20
REMARK    3  A    between atoms: O_7  and  C_19
REMARK    4  A    between atoms: O_7  and  C_28
REMARK    5  A    between atoms: N_10  and  C_17
REMARK    6  A    between atoms: C_12  and  C_19
REMARK    7  A    between atoms: C_17  and  C_21
REMARK    8  A    between atoms: C_17  and  C_22
REMARK    9  A    between atoms: C_25  and  C_29
REMARK                            x       y       z     vdW  Elec       q    Type
REMARK                         _______ _______ _______ _____ _____    ______ ____
ROOT
ATOM      9  N   UNL     1      -4.093 -11.291  13.911  0.00  0.00    -0.157 NA
ATOM     10  N   UNL     1      -5.312 -10.606  10.435  0.00  0.00    -0.330 N 
ATOM     11  N   UNL     1      -3.707 -12.039   9.829  0.00  0.00    -0.240 NA
ATOM     12  C   UNL     1      -2.700 -11.677  13.473  0.00  0.00    +0.194 C 
ATOM     13  C   UNL     1      -4.869 -10.428  12.940  0.00  0.00    +0.165 C 
ATOM     14  C   UNL     1      -4.631 -10.925  11.572  0.00  0.00    +0.057 A 
ATOM     15  C   UNL     1      -2.683 -12.410  12.116  0.00  0.00    +0.089 C 
ATOM     16  C   UNL     1      -3.651 -11.801  11.174  0.00  0.00    +0.066 A 
ATOM     18  C   UNL     1      -4.718 -11.303   9.412  0.00  0.00    +0.200 A 
ENDROOT
BRANCH   9   1
ATOM      1  S   UNL     1      -4.993 -12.524  14.695  0.00  0.00    +0.062 S 
ATOM      5  O   UNL     1      -4.093 -13.582  15.099  0.00  0.00    -0.153 OA
ATOM      6  O   UNL     1      -6.177 -12.809  13.914  0.00  0.00    -0.153 OA
BRANCH   1  20
ATOM     20  C   UNL     1      -5.497 -11.659  16.149  0.00  0.00    +0.106 A 
ATOM     23  C   UNL     1      -6.768 -11.085  16.215  0.00  0.00    +0.041 A 
ATOM     24  C   UNL     1      -4.626 -11.550  17.233  0.00  0.00    +0.028 A 
ATOM     25  C   UNL     1      -7.165 -10.403  17.364  0.00  0.00    +0.057 A 
ATOM     26  C   UNL     1      -5.024 -10.867  18.382  0.00  0.00    +0.002 A 
ATOM     27  C   UNL     1      -6.293 -10.292  18.447  0.00  0.00    +0.012 A 
BRANCH  25  29
ATOM      2  F   UNL     1      -8.479  -8.431  17.570  0.00  0.00    -0.166 F 
ATOM      3  F   UNL     1      -9.288 -10.022  16.328  0.00  0.00    -0.166 F 
ATOM      4  F   UNL     1      -9.271 -10.237  18.487  0.00  0.00    -0.166 F 
ATOM     29  C   UNL     1      -8.523  -9.788  17.435  0.00  0.00    +0.417 C 
ENDBRANCH  25  29
ENDBRANCH   1  20
ENDBRANCH   9   1
BRANCH  10  17
ATOM     17  C   UNL     1      -6.434  -9.709  10.311  0.00  0.00    +0.082 C 
ATOM     21  C   UNL     1      -7.622 -10.383   9.621  0.00  0.00    +0.030 C 
ATOM     22  C   UNL     1      -6.045  -8.417   9.587  0.00  0.00    +0.030 C 
ENDBRANCH  10  17
BRANCH  12  19
ATOM      8  O   UNL     1      -1.401  -9.932  12.446  0.00  0.00    -0.249 OA
ATOM     19  C   UNL     1      -1.891 -10.419  13.457  0.00  0.00    +0.326 C 
BRANCH  19   7
ATOM      7  O   UNL     1      -1.794  -9.922  14.723  0.00  0.00    -0.467 OA
ATOM     28  C   UNL     1      -1.086 -10.746  15.655  0.00  0.00    +0.280 C 
ENDBRANCH  19   7
ENDBRANCH  12  19
TORSDOF 6
ENDMDL
MODEL 8
REMARK VINA RESULT:      -5.6      2.947      4.159
REMARK  Name = 25338995
REMARK  9 active torsions:
REMARK  status: ('A' for Active; 'I' for Inactive)
REMARK    1  A    between atoms: S_1  and  N_9
REMARK    2  A    between atoms: S_1  and  C_20
REMARK    3  A    between atoms: O_7  and  C_19
REMARK    4  A    between atoms: O_7  and  C_28
REMARK    5  A    between atoms: N_10  and  C_17
REMARK    6  A    between atoms: C_12  and  C_19
REMARK    7  A    between atoms: C_17  and  C_21
REMARK    8  A    between atoms: C_17  and  C_22
REMARK    9  A    between atoms: C_25  and  C_29
REMARK                            x       y       z     vdW  Elec       q    Type
REMARK                         _______ _______ _______ _____ _____    ______ ____
ROOT
ATOM      9  N   UNL     1      -5.753 -11.934  14.930  0.00  0.00    -0.157 NA
ATOM     10  N   UNL     1      -7.749 -11.949  18.101  0.00  0.00    -0.330 N 
ATOM     11  N   UNL     1      -7.129  -9.807  18.240  0.00  0.00    -0.240 NA
ATOM     12  C   UNL     1      -4.859 -10.796  15.360  0.00  0.00    +0.194 C 
ATOM     13  C   UNL     1      -6.430 -12.695  16.050  0.00  0.00    +0.165 C 
ATOM     14  C   UNL     1      -6.890 -11.729  17.065  0.00  0.00    +0.057 A 
ATOM     15  C   UNL     1      -5.594  -9.752  16.225  0.00  0.00    +0.089 C 
ATOM     16  C   UNL     1      -6.521 -10.411  17.175  0.00  0.00    +0.066 A 
ATOM     18  C   UNL     1      -7.861 -10.761  18.779  0.00  0.00    +0.200 A 
ENDROOT
BRANCH   9   1
ATOM      1  S   UNL     1      -6.719 -11.635  13.543  0.00  0.00    +0.062 S 
ATOM      5  O   UNL     1      -7.274 -10.302  13.633  0.00  0.00    -0.153 OA
ATOM      6  O   UNL     1      -7.568 -12.783  13.307  0.00  0.00    -0.153 OA
BRANCH   1  20
ATOM     20  C   UNL     1      -5.470 -11.619  12.296  0.00  0.00    +0.106 A 
ATOM     23  C   UNL     1      -5.135 -10.422  11.661  0.00  0.00    +0.041 A 
ATOM     24  C   UNL     1      -4.818 -12.800  11.946  0.00  0.00    +0.028 A 
ATOM     25  C   UNL     1      -4.147 -10.409  10.676  0.00  0.00    +0.057 A 
ATOM     26  C   UNL     1      -3.830 -12.788  10.961  0.00  0.00    +0.002 A 
ATOM     27  C   UNL     1      -3.496 -11.592  10.325  0.00  0.00    +0.012 A 
BRANCH  25  29
ATOM      2  F   UNL     1      -2.459  -8.838  10.096  0.00  0.00    -0.166 F 
ATOM      3  F   UNL     1      -4.064  -9.127   8.659  0.00  0.00    -0.166 F 
ATOM      4  F   UNL     1      -4.442  -8.042  10.498  0.00  0.00    -0.166 F 
ATOM     29  C   UNL     1      -3.788  -9.131   9.996  0.00  0.00    +0.417 C 
ENDBRANCH  25  29
ENDBRANCH   1  20
ENDBRANCH   9   1
BRANCH  10  17
ATOM     17  C   UNL     1      -8.413 -13.184  18.437  0.00  0.00    +0.082 C 
ATOM     21  C   UNL     1      -9.742 -13.331  17.691  0.00  0.00    +0.030 C 
ATOM     22  C   UNL     1      -8.620 -13.319  19.948  0.00  0.00    +0.030 C 
ENDBRANCH  10  17
BRANCH  12  19
ATOM      8  O   UNL     1      -3.381 -11.155  17.225  0.00  0.00    -0.249 OA
ATOM     19  C   UNL     1      -3.693 -11.410  16.069  0.00  0.00    +0.326 C 
BRANCH  19   7
ATOM      7  O   UNL     1      -3.055 -12.278  15.232  0.00  0.00    -0.467 OA
ATOM     28  C   UNL     1      -2.065 -11.693  14.380  0.00  0.00    +0.280 C 
ENDBRANCH  19   7
ENDBRANCH  12  19
TORSDOF 6
ENDMDL
MODEL 9
REMARK VINA RESULT:      -5.6      5.992      8.472
REMARK  Name = 25338995
REMARK  9 active torsions:
REMARK  status: ('A' for Active; 'I' for Inactive)
REMARK    1  A    between atoms: S_1  and  N_9
REMARK    2  A    between atoms: S_1  and  C_20
REMARK    3  A    between atoms: O_7  and  C_19
REMARK    4  A    between atoms: O_7  and  C_28
REMARK    5  A    between atoms: N_10  and  C_17
REMARK    6  A    between atoms: C_12  and  C_19
REMARK    7  A    between atoms: C_17  and  C_21
REMARK    8  A    between atoms: C_17  and  C_22
REMARK    9  A    between atoms: C_25  and  C_29
REMARK                            x       y       z     vdW  Elec       q    Type
REMARK                         _______ _______ _______ _____ _____    ______ ____
ROOT
ATOM      9  N   UNL     1      -4.946 -10.687  11.430  0.00  0.00    -0.157 NA
ATOM     10  N   UNL     1      -3.797 -10.723  14.996  0.00  0.00    -0.330 N 
ATOM     11  N   UNL     1      -1.775 -10.363  14.115  0.00  0.00    -0.240 NA
ATOM     12  C   UNL     1      -3.606 -11.102  10.871  0.00  0.00    +0.194 C 
ATOM     13  C   UNL     1      -5.188 -11.039  12.883  0.00  0.00    +0.165 C 
ATOM     14  C   UNL     1      -3.951 -10.778  13.643  0.00  0.00    +0.057 A 
ATOM     15  C   UNL     1      -2.421 -10.525  11.671  0.00  0.00    +0.089 C 
ATOM     16  C   UNL     1      -2.698 -10.559  13.126  0.00  0.00    +0.066 A 
ATOM     18  C   UNL     1      -2.468 -10.470  15.231  0.00  0.00    +0.200 A 
ENDROOT
BRANCH   9   1
ATOM      1  S   UNL     1      -5.512  -9.144  10.935  0.00  0.00    +0.062 S 
ATOM      5  O   UNL     1      -4.419  -8.410  10.336  0.00  0.00    -0.153 OA
ATOM      6  O   UNL     1      -6.301  -8.569  12.002  0.00  0.00    -0.153 OA
BRANCH   1  20
ATOM     20  C   UNL     1      -6.614  -9.622   9.641  0.00  0.00    +0.106 A 
ATOM     23  C   UNL     1      -6.735  -8.829   8.499  0.00  0.00    +0.041 A 
ATOM     24  C   UNL     1      -7.364 -10.792   9.760  0.00  0.00    +0.028 A 
ATOM     25  C   UNL     1      -7.605  -9.208   7.477  0.00  0.00    +0.057 A 
ATOM     26  C   UNL     1      -8.234 -11.170   8.738  0.00  0.00    +0.002 A 
ATOM     27  C   UNL     1      -8.356 -10.378   7.597  0.00  0.00    +0.012 A 
BRANCH  25  29
ATOM      2  F   UNL     1      -6.685  -8.512   5.397  0.00  0.00    -0.166 F 
ATOM      3  F   UNL     1      -8.853  -8.632   5.519  0.00  0.00    -0.166 F 
ATOM      4  F   UNL     1      -7.801  -7.023   6.523  0.00  0.00    -0.166 F 
ATOM     29  C   UNL     1      -7.736  -8.362   6.256  0.00  0.00    +0.417 C 
ENDBRANCH  25  29
ENDBRANCH   1  20
ENDBRANCH   9   1
BRANCH  10  17
ATOM     17  C   UNL     1      -4.817 -10.900  16.000  0.00  0.00    +0.082 C 
ATOM     21  C   UNL     1      -5.659  -9.634  16.177  0.00  0.00    +0.030 C 
ATOM     22  C   UNL     1      -4.221 -11.349  17.336  0.00  0.00    +0.030 C 
ENDBRANCH  10  17
BRANCH  12  19
ATOM      8  O   UNL     1      -2.899 -13.298  11.553  0.00  0.00    -0.249 OA
ATOM     19  C   UNL     1      -3.601 -12.598  10.835  0.00  0.00    +0.326 C 
BRANCH  19   7
ATOM      7  O   UNL     1      -4.485 -13.035   9.894  0.00  0.00    -0.467 OA
ATOM     28  C   UNL     1      -4.232 -12.589   8.557  0.00  0.00    +0.280 C 
ENDBRANCH  19   7
ENDBRANCH  12  19
TORSDOF 6
ENDMDL
MODEL 10
REMARK VINA RESULT:      -5.5      5.906      8.425
REMARK  Name = 25338995
REMARK  9 active torsions:
REMARK  status: ('A' for Active; 'I' for Inactive)
REMARK    1  A    between atoms: S_1  and  N_9
REMARK    2  A    between atoms: S_1  and  C_20
REMARK    3  A    between atoms: O_7  and  C_19
REMARK    4  A    between atoms: O_7  and  C_28
REMARK    5  A    between atoms: N_10  and  C_17
REMARK    6  A    between atoms: C_12  and  C_19
REMARK    7  A    between atoms: C_17  and  C_21
REMARK    8  A    between atoms: C_17  and  C_22
REMARK    9  A    between atoms: C_25  and  C_29
REMARK                            x       y       z     vdW  Elec       q    Type
REMARK                         _______ _______ _______ _____ _____    ______ ____
ROOT
ATOM      9  N   UNL     1      -4.578 -10.740  10.801  0.00  0.00    -0.157 NA
ATOM     10  N   UNL     1      -4.778 -10.664  14.542  0.00  0.00    -0.330 N 
ATOM     11  N   UNL     1      -2.560 -10.912  14.444  0.00  0.00    -0.240 NA
ATOM     12  C   UNL     1      -3.292 -11.530  10.769  0.00  0.00    +0.194 C 
ATOM     13  C   UNL     1      -5.389 -10.860  12.074  0.00  0.00    +0.165 C 
ATOM     14  C   UNL     1      -4.467 -10.829  13.225  0.00  0.00    +0.057 A 
ATOM     15  C   UNL     1      -2.345 -11.178  11.934  0.00  0.00    +0.089 C 
ATOM     16  C   UNL     1      -3.103 -10.983  13.192  0.00  0.00    +0.066 A 
ATOM     18  C   UNL     1      -3.596 -10.721  15.236  0.00  0.00    +0.200 A 
ENDROOT
BRANCH   9   1
ATOM      1  S   UNL     1      -4.502  -9.169  10.113  0.00  0.00    +0.062 S 
ATOM      5  O   UNL     1      -3.137  -8.891   9.724  0.00  0.00    -0.153 OA
ATOM      6  O   UNL     1      -5.241  -8.252  10.953  0.00  0.00    -0.153 OA
BRANCH   1  20
ATOM     20  C   UNL     1      -5.440  -9.434   8.641  0.00  0.00    +0.106 A 
ATOM     23  C   UNL     1      -4.993 -10.345   7.683  0.00  0.00    +0.041 A 
ATOM     24  C   UNL     1      -6.628  -8.733   8.435  0.00  0.00    +0.028 A 
ATOM     25  C   UNL     1      -5.735 -10.554   6.521  0.00  0.00    +0.057 A 
ATOM     26  C   UNL     1      -7.370  -8.942   7.273  0.00  0.00    +0.002 A 
ATOM     27  C   UNL     1      -6.922  -9.852   6.315  0.00  0.00    +0.012 A 
BRANCH  25  29
ATOM      2  F   UNL     1      -3.897 -11.560   5.395  0.00  0.00    -0.166 F 
ATOM      3  F   UNL     1      -5.637 -12.815   5.746  0.00  0.00    -0.166 F 
ATOM      4  F   UNL     1      -5.712 -11.261   4.235  0.00  0.00    -0.166 F 
ATOM     29  C   UNL     1      -5.258 -11.528   5.496  0.00  0.00    +0.417 C 
ENDBRANCH  25  29
ENDBRANCH   1  20
ENDBRANCH   9   1
BRANCH  10  17
ATOM     17  C   UNL     1      -6.089 -10.473  15.113  0.00  0.00    +0.082 C 
ATOM     21  C   UNL     1      -6.039  -9.577  16.353  0.00  0.00    +0.030 C 
ATOM     22  C   UNL     1      -6.764 -11.809  15.433  0.00  0.00    +0.030 C 
ENDBRANCH  10  17
BRANCH  12  19
ATOM      8  O   UNL     1      -3.166 -13.827  11.477  0.00  0.00    -0.249 OA
ATOM     19  C   UNL     1      -3.677 -12.977  10.759  0.00  0.00    +0.326 C 
BRANCH  19   7
ATOM      7  O   UNL     1      -4.665 -13.180   9.842  0.00  0.00    -0.467 OA
ATOM     28  C   UNL     1      -4.312 -14.011   8.731  0.00  0.00    +0.280 C 
ENDBRANCH  19   7
ENDBRANCH  12  19
TORSDOF 6
ENDMDL
