REMARK  Name = 45784196
REMARK  4 active torsions:
REMARK  status: ('A' for Active; 'I' for Inactive)
REMARK    1  A    between atoms: N_2  and  C_10
REMARK    2  A    between atoms: C_5  and  C_9
REMARK    3  A    between atoms: C_10  and  C_11
REMARK    4  A    between atoms: C_17  and  C_21
REMARK                            x       y       z     vdW  Elec       q    Type
REMARK                         _______ _______ _______ _____ _____    ______ ____
ROOT
ATOM      2  N   UNL     1      -2.032  -0.259  -0.139  0.00  0.00    -0.296 NA
ATOM      5  C   UNL     1       0.155  -0.912   0.398  0.00  0.00    +0.090 C 
ATOM      6  C   UNL     1      -0.536  -0.350   1.652  0.00  0.00    +0.029 C 
ATOM      7  C   UNL     1      -0.726  -0.452  -0.771  0.00  0.00    +0.097 C 
ATOM      8  C   UNL     1      -1.743   0.416   1.126  0.00  0.00    +0.085 C 
ENDROOT
BRANCH   5   9
ATOM      1  O   UNL     1       2.503  -1.535   0.199  0.00  0.00    -0.439 OA
ATOM      3  N   UNL     1       2.111   0.696   0.131  0.00  0.00    -0.213 NA
ATOM      9  C   UNL     1       1.604  -0.512   0.237  0.00  0.00    +0.201 A 
ATOM     12  C   UNL     1       3.460   0.463   0.011  0.00  0.00    +0.110 A 
ATOM     13  C   UNL     1       3.704  -0.902   0.052  0.00  0.00    +0.155 A 
ATOM     15  C   UNL     1       4.544   1.341  -0.137  0.00  0.00    +0.035 A 
ATOM     16  C   UNL     1       4.961  -1.485  -0.042  0.00  0.00    +0.049 A 
ATOM     17  C   UNL     1       5.829   0.789  -0.235  0.00  0.00    -0.048 A 
ATOM     18  C   UNL     1       6.031  -0.596  -0.189  0.00  0.00    +0.007 A 
ATOM     21  C   UNL     1       7.004   1.698  -0.393  0.00  0.00    +0.044 C 
ENDBRANCH   5   9
BRANCH   2  10
ATOM     10  C   UNL     1      -2.948   0.501  -0.977  0.00  0.00    +0.139 C 
BRANCH  10  11
ATOM      4  N   UNL     1      -4.935   1.351   0.141  0.00  0.00    -0.259 NA
ATOM     11  C   UNL     1      -4.380   0.326  -0.543  0.00  0.00    +0.055 A 
ATOM     14  C   UNL     1      -5.046  -0.847  -0.859  0.00  0.00    +0.024 A 
ATOM     19  C   UNL     1      -6.367  -0.977  -0.446  0.00  0.00    +0.003 A 
ATOM     20  C   UNL     1      -6.221   1.189   0.526  0.00  0.00    +0.111 A 
ATOM     22  C   UNL     1      -6.973   0.056   0.260  0.00  0.00    +0.020 A 
ENDBRANCH  10  11
ENDBRANCH   2  10
TORSDOF 3
