MODEL 1
REMARK VINA RESULT:      -7.1      0.000      0.000
REMARK  Name = 71693215
REMARK  8 active torsions:
REMARK  status: ('A' for Active; 'I' for Inactive)
REMARK    1  A    between atoms: N_2  and  C_13
REMARK    2  A    between atoms: C_5  and  C_9
REMARK    3  A    between atoms: C_7  and  C_13
REMARK    4  A    between atoms: C_8  and  C_12
REMARK    5  A    between atoms: C_9  and  C_14
REMARK    6  A    between atoms: C_9  and  C_15
REMARK    7  A    between atoms: C_10  and  C_16
REMARK    8  A    between atoms: C_12  and  C_17
REMARK                            x       y       z     vdW  Elec       q    Type
REMARK                         _______ _______ _______ _____ _____    ______ ____
ROOT
ATOM      5  C   UNL     1      12.397   8.872  21.959  0.00  0.00    +0.000 C 
ATOM      6  C   UNL     1      13.452   8.115  21.144  0.00  0.00    +0.012 C 
ATOM      7  C   UNL     1      10.974   8.525  21.461  0.00  0.00    +0.029 C 
ATOM      8  C   UNL     1      13.362   8.382  19.626  0.00  0.00    +0.022 C 
ATOM     10  C   UNL     1      11.929   8.462  19.121  0.00  0.00    -0.073 C 
ATOM     11  C   UNL     1      10.876   8.513  19.957  0.00  0.00    -0.023 C 
ATOM     16  C   UNL     1      11.722   8.542  17.633  0.00  0.00    +0.039 C 
ENDROOT
BRANCH   5   9
ATOM      9  C   UNL     1      12.648  10.386  21.923  0.00  0.00    -0.013 C 
ATOM     14  C   UNL     1      11.424  11.141  22.431  0.00  0.00    +0.007 C 
ATOM     15  C   UNL     1      13.883  10.740  22.747  0.00  0.00    +0.007 C 
ENDBRANCH   5   9
BRANCH   8  12
ATOM     12  C   UNL     1      14.195   7.325  18.891  0.00  0.00    +0.082 C 
BRANCH  12  17
ATOM      1 CL   UNL     1      20.839   8.533  22.422  0.00  0.00    -0.083 Cl
ATOM      3  N   UNL     1      16.129   8.249  20.182  0.00  0.00    -0.342 N 
ATOM      4  N   UNL     1      16.400   6.201  19.362  0.00  0.00    -0.232 NA
ATOM     17  C   UNL     1      15.581   7.223  19.464  0.00  0.00    +0.109 A 
ATOM     18  C   UNL     1      17.387   7.864  20.568  0.00  0.00    +0.068 A 
ATOM     19  C   UNL     1      17.533   6.583  20.044  0.00  0.00    +0.089 A 
ATOM     20  C   UNL     1      18.379   8.507  21.308  0.00  0.00    +0.047 A 
ATOM     21  C   UNL     1      18.734   5.887  20.261  0.00  0.00    +0.031 A 
ATOM     22  C   UNL     1      19.569   7.800  21.515  0.00  0.00    +0.043 A 
ATOM     23  C   UNL     1      19.745   6.513  21.002  0.00  0.00    +0.022 A 
ATOM     26  H   UNL     1      15.687   9.134  20.393  0.00  0.00    +0.167 HD
ENDBRANCH  12  17
ENDBRANCH   8  12
BRANCH   7  13
ATOM     13  C   UNL     1      10.496   7.177  22.007  0.00  0.00    +0.085 C 
BRANCH  13   2
ATOM      2  N   UNL     1      10.914   6.093  21.136  0.00  0.00    -0.329 NA
ATOM     24  H   UNL     1      11.800   6.335  20.694  0.00  0.00    +0.118 HD
ATOM     25  H   UNL     1      11.093   5.249  21.678  0.00  0.00    +0.118 HD
ENDBRANCH  13   2
ENDBRANCH   7  13
TORSDOF 5
ENDMDL
MODEL 2
REMARK VINA RESULT:      -6.9      1.483      2.181
REMARK  Name = 71693215
REMARK  8 active torsions:
REMARK  status: ('A' for Active; 'I' for Inactive)
REMARK    1  A    between atoms: N_2  and  C_13
REMARK    2  A    between atoms: C_5  and  C_9
REMARK    3  A    between atoms: C_7  and  C_13
REMARK    4  A    between atoms: C_8  and  C_12
REMARK    5  A    between atoms: C_9  and  C_14
REMARK    6  A    between atoms: C_9  and  C_15
REMARK    7  A    between atoms: C_10  and  C_16
REMARK    8  A    between atoms: C_12  and  C_17
REMARK                            x       y       z     vdW  Elec       q    Type
REMARK                         _______ _______ _______ _____ _____    ______ ____
ROOT
ATOM      5  C   UNL     1      13.336   8.240  21.509  0.00  0.00    +0.000 C 
ATOM      6  C   UNL     1      14.509   7.396  20.994  0.00  0.00    +0.012 C 
ATOM      7  C   UNL     1      12.093   8.046  20.608  0.00  0.00    +0.029 C 
ATOM      8  C   UNL     1      14.885   7.701  19.527  0.00  0.00    +0.022 C 
ATOM     10  C   UNL     1      13.673   7.934  18.638  0.00  0.00    -0.073 C 
ATOM     11  C   UNL     1      12.432   8.073  19.140  0.00  0.00    -0.023 C 
ATOM     16  C   UNL     1      13.912   8.063  17.159  0.00  0.00    +0.039 C 
ENDROOT
BRANCH   5   9
ATOM      9  C   UNL     1      13.722   9.721  21.617  0.00  0.00    -0.013 C 
ATOM     14  C   UNL     1      12.502  10.565  21.971  0.00  0.00    +0.007 C 
ATOM     15  C   UNL     1      14.828   9.908  22.653  0.00  0.00    +0.007 C 
ENDBRANCH   5   9
BRANCH   8  12
ATOM     12  C   UNL     1      15.797   6.581  19.012  0.00  0.00    +0.082 C 
BRANCH  12  17
ATOM      1 CL   UNL     1      22.745   4.942  21.678  0.00  0.00    -0.083 Cl
ATOM      3  N   UNL     1      18.054   5.608  19.478  0.00  0.00    -0.342 N 
ATOM      4  N   UNL     1      17.477   7.358  20.721  0.00  0.00    -0.232 NA
ATOM     17  C   UNL     1      17.101   6.546  19.759  0.00  0.00    +0.109 A 
ATOM     18  C   UNL     1      19.118   5.829  20.316  0.00  0.00    +0.068 A 
ATOM     19  C   UNL     1      18.733   6.926  21.081  0.00  0.00    +0.089 A 
ATOM     20  C   UNL     1      20.346   5.184  20.463  0.00  0.00    +0.047 A 
ATOM     21  C   UNL     1      19.613   7.422  22.058  0.00  0.00    +0.031 A 
ATOM     22  C   UNL     1      21.210   5.690  21.441  0.00  0.00    +0.043 A 
ATOM     23  C   UNL     1      20.852   6.790  22.224  0.00  0.00    +0.022 A 
ATOM     26  H   UNL     1      17.990   4.881  18.778  0.00  0.00    +0.167 HD
ENDBRANCH  12  17
ENDBRANCH   8  12
BRANCH   7  13
ATOM     13  C   UNL     1      11.358   6.742  20.931  0.00  0.00    +0.085 C 
BRANCH  13   2
ATOM      2  N   UNL     1      10.167   7.006  21.721  0.00  0.00    -0.329 NA
ATOM     24  H   UNL     1       9.545   6.200  21.677  0.00  0.00    +0.118 HD
ATOM     25  H   UNL     1      10.410   7.120  22.703  0.00  0.00    +0.118 HD
ENDBRANCH  13   2
ENDBRANCH   7  13
TORSDOF 5
ENDMDL
MODEL 3
REMARK VINA RESULT:      -6.7     27.265     28.372
REMARK  Name = 71693215
REMARK  8 active torsions:
REMARK  status: ('A' for Active; 'I' for Inactive)
REMARK    1  A    between atoms: N_2  and  C_13
REMARK    2  A    between atoms: C_5  and  C_9
REMARK    3  A    between atoms: C_7  and  C_13
REMARK    4  A    between atoms: C_8  and  C_12
REMARK    5  A    between atoms: C_9  and  C_14
REMARK    6  A    between atoms: C_9  and  C_15
REMARK    7  A    between atoms: C_10  and  C_16
REMARK    8  A    between atoms: C_12  and  C_17
REMARK                            x       y       z     vdW  Elec       q    Type
REMARK                         _______ _______ _______ _____ _____    ______ ____
ROOT
ATOM      5  C   UNL     1      -5.900 -10.568  17.910  0.00  0.00    +0.000 C 
ATOM      6  C   UNL     1      -4.840 -10.246  16.849  0.00  0.00    +0.012 C 
ATOM      7  C   UNL     1      -5.572 -11.904  18.617  0.00  0.00    +0.029 C 
ATOM      8  C   UNL     1      -4.675 -11.359  15.792  0.00  0.00    +0.022 C 
ATOM     10  C   UNL     1      -4.753 -12.758  16.383  0.00  0.00    -0.073 C 
ATOM     11  C   UNL     1      -5.145 -12.979  17.652  0.00  0.00    -0.023 C 
ATOM     16  C   UNL     1      -4.430 -13.914  15.476  0.00  0.00    +0.039 C 
ENDROOT
BRANCH   5   9
ATOM      9  C   UNL     1      -7.308 -10.589  17.300  0.00  0.00    -0.013 C 
ATOM     14  C   UNL     1      -8.323 -11.093  18.321  0.00  0.00    +0.007 C 
ATOM     15  C   UNL     1      -7.691  -9.200  16.797  0.00  0.00    +0.007 C 
ENDBRANCH   5   9
BRANCH   8  12
ATOM     12  C   UNL     1      -3.375 -11.111  15.017  0.00  0.00    +0.082 C 
BRANCH  12  17
ATOM      1 CL   UNL     1      -6.556  -8.630   8.553  0.00  0.00    -0.083 Cl
ATOM      3  N   UNL     1      -4.927 -10.364  13.203  0.00  0.00    -0.342 N 
ATOM      4  N   UNL     1      -2.763 -10.353  12.693  0.00  0.00    -0.232 NA
ATOM     17  C   UNL     1      -3.651 -10.609  13.628  0.00  0.00    +0.109 A 
ATOM     18  C   UNL     1      -4.858  -9.922  11.907  0.00  0.00    +0.068 A 
ATOM     19  C   UNL     1      -3.498  -9.924  11.612  0.00  0.00    +0.089 A 
ATOM     20  C   UNL     1      -5.839  -9.531  10.995  0.00  0.00    +0.047 A 
ATOM     21  C   UNL     1      -3.072  -9.515  10.337  0.00  0.00    +0.031 A 
ATOM     22  C   UNL     1      -5.399  -9.127   9.730  0.00  0.00    +0.043 A 
ATOM     23  C   UNL     1      -4.041  -9.118   9.405  0.00  0.00    +0.022 A 
ATOM     26  H   UNL     1      -5.771 -10.485  13.745  0.00  0.00    +0.167 HD
ENDBRANCH  12  17
ENDBRANCH   8  12
BRANCH   7  13
ATOM     13  C   UNL     1      -4.489 -11.728  19.686  0.00  0.00    +0.085 C 
BRANCH  13   2
ATOM      2  N   UNL     1      -3.279 -12.440  19.312  0.00  0.00    -0.329 NA
ATOM     24  H   UNL     1      -3.420 -12.902  18.414  0.00  0.00    +0.118 HD
ATOM     25  H   UNL     1      -2.510 -11.787  19.173  0.00  0.00    +0.118 HD
ENDBRANCH  13   2
ENDBRANCH   7  13
TORSDOF 5
ENDMDL
MODEL 4
REMARK VINA RESULT:      -6.7     25.666     28.331
REMARK  Name = 71693215
REMARK  8 active torsions:
REMARK  status: ('A' for Active; 'I' for Inactive)
REMARK    1  A    between atoms: N_2  and  C_13
REMARK    2  A    between atoms: C_5  and  C_9
REMARK    3  A    between atoms: C_7  and  C_13
REMARK    4  A    between atoms: C_8  and  C_12
REMARK    5  A    between atoms: C_9  and  C_14
REMARK    6  A    between atoms: C_9  and  C_15
REMARK    7  A    between atoms: C_10  and  C_16
REMARK    8  A    between atoms: C_12  and  C_17
REMARK                            x       y       z     vdW  Elec       q    Type
REMARK                         _______ _______ _______ _____ _____    ______ ____
ROOT
ATOM      5  C   UNL     1      -5.040 -12.300  15.642  0.00  0.00    +0.000 C 
ATOM      6  C   UNL     1      -4.041 -12.725  14.558  0.00  0.00    +0.012 C 
ATOM      7  C   UNL     1      -4.942 -10.779  15.903  0.00  0.00    +0.029 C 
ATOM      8  C   UNL     1      -2.580 -12.355  14.893  0.00  0.00    +0.022 C 
ATOM     10  C   UNL     1      -2.447 -10.990  15.550  0.00  0.00    -0.073 C 
ATOM     11  C   UNL     1      -3.516 -10.297  15.984  0.00  0.00    -0.023 C 
ATOM     16  C   UNL     1      -1.058 -10.452  15.759  0.00  0.00    +0.039 C 
ENDROOT
BRANCH   5   9
ATOM      9  C   UNL     1      -4.833 -13.104  16.933  0.00  0.00    -0.013 C 
ATOM     14  C   UNL     1      -5.652 -12.502  18.071  0.00  0.00    +0.007 C 
ATOM     15  C   UNL     1      -5.205 -14.567  16.714  0.00  0.00    +0.007 C 
ENDBRANCH   5   9
BRANCH   8  12
ATOM     12  C   UNL     1      -1.736 -12.488  13.619  0.00  0.00    +0.082 C 
BRANCH  12  17
ATOM      1 CL   UNL     1      -5.356 -10.477   7.223  0.00  0.00    -0.083 Cl
ATOM      3  N   UNL     1      -3.003 -12.418  11.463  0.00  0.00    -0.342 N 
ATOM      4  N   UNL     1      -2.370 -10.450  12.281  0.00  0.00    -0.232 NA
ATOM     17  C   UNL     1      -2.359 -11.750  12.468  0.00  0.00    +0.109 A 
ATOM     18  C   UNL     1      -3.459 -11.485  10.567  0.00  0.00    +0.068 A 
ATOM     19  C   UNL     1      -3.052 -10.266  11.100  0.00  0.00    +0.089 A 
ATOM     20  C   UNL     1      -4.173 -11.601   9.374  0.00  0.00    +0.047 A 
ATOM     21  C   UNL     1      -3.365  -9.080  10.415  0.00  0.00    +0.031 A 
ATOM     22  C   UNL     1      -4.477 -10.410   8.704  0.00  0.00    +0.043 A 
ATOM     23  C   UNL     1      -4.082  -9.171   9.214  0.00  0.00    +0.022 A 
ATOM     26  H   UNL     1      -3.123 -13.419  11.392  0.00  0.00    +0.167 HD
ENDBRANCH  12  17
ENDBRANCH   8  12
BRANCH   7  13
ATOM     13  C   UNL     1      -5.686  -9.972  14.836  0.00  0.00    +0.085 C 
BRANCH  13   2
ATOM      2  N   UNL     1      -6.986  -9.547  15.327  0.00  0.00    -0.329 NA
ATOM     24  H   UNL     1      -7.292  -8.724  14.809  0.00  0.00    +0.118 HD
ATOM     25  H   UNL     1      -7.685 -10.266  15.151  0.00  0.00    +0.118 HD
ENDBRANCH  13   2
ENDBRANCH   7  13
TORSDOF 5
ENDMDL
MODEL 5
REMARK VINA RESULT:      -6.7     17.287     20.436
REMARK  Name = 71693215
REMARK  8 active torsions:
REMARK  status: ('A' for Active; 'I' for Inactive)
REMARK    1  A    between atoms: N_2  and  C_13
REMARK    2  A    between atoms: C_5  and  C_9
REMARK    3  A    between atoms: C_7  and  C_13
REMARK    4  A    between atoms: C_8  and  C_12
REMARK    5  A    between atoms: C_9  and  C_14
REMARK    6  A    between atoms: C_9  and  C_15
REMARK    7  A    between atoms: C_10  and  C_16
REMARK    8  A    between atoms: C_12  and  C_17
REMARK                            x       y       z     vdW  Elec       q    Type
REMARK                         _______ _______ _______ _____ _____    ______ ____
ROOT
ATOM      5  C   UNL     1      11.049   4.360  -1.369  0.00  0.00    +0.000 C 
ATOM      6  C   UNL     1      10.683   4.069   0.092  0.00  0.00    +0.012 C 
ATOM      7  C   UNL     1      12.198   3.435  -1.835  0.00  0.00    +0.029 C 
ATOM      8  C   UNL     1      11.877   4.206   1.061  0.00  0.00    +0.022 C 
ATOM     10  C   UNL     1      13.176   3.666   0.484  0.00  0.00    -0.073 C 
ATOM     11  C   UNL     1      13.296   3.316  -0.810  0.00  0.00    -0.023 C 
ATOM     16  C   UNL     1      14.364   3.586   1.404  0.00  0.00    +0.039 C 
ENDROOT
BRANCH   5   9
ATOM      9  C   UNL     1      11.406   5.840  -1.568  0.00  0.00    -0.013 C 
ATOM     14  C   UNL     1      11.822   6.097  -3.013  0.00  0.00    +0.007 C 
ATOM     15  C   UNL     1      10.229   6.728  -1.177  0.00  0.00    +0.007 C 
ENDBRANCH   5   9
BRANCH   8  12
ATOM     12  C   UNL     1      11.501   3.555   2.398  0.00  0.00    +0.082 C 
BRANCH  12  17
ATOM      1 CL   UNL     1       8.668   7.313   8.390  0.00  0.00    -0.083 Cl
ATOM      3  N   UNL     1      10.793   4.326   4.670  0.00  0.00    -0.342 N 
ATOM      4  N   UNL     1      10.249   5.662   2.980  0.00  0.00    -0.232 NA
ATOM     17  C   UNL     1      10.838   4.538   3.320  0.00  0.00    +0.109 A 
ATOM     18  C   UNL     1      10.131   5.383   5.238  0.00  0.00    +0.068 A 
ATOM     19  C   UNL     1       9.802   6.203   4.163  0.00  0.00    +0.089 A 
ATOM     20  C   UNL     1       9.803   5.684   6.561  0.00  0.00    +0.047 A 
ATOM     21  C   UNL     1       9.103   7.399   4.402  0.00  0.00    +0.031 A 
ATOM     22  C   UNL     1       9.106   6.877   6.781  0.00  0.00    +0.043 A 
ATOM     23  C   UNL     1       8.762   7.721   5.723  0.00  0.00    +0.022 A 
ATOM     26  H   UNL     1      11.180   3.532   5.164  0.00  0.00    +0.167 HD
ENDBRANCH  12  17
ENDBRANCH   8  12
BRANCH   7  13
ATOM     13  C   UNL     1      11.688   2.036  -2.193  0.00  0.00    +0.085 C 
BRANCH  13   2
ATOM      2  N   UNL     1      10.363   2.108  -2.783  0.00  0.00    -0.329 NA
ATOM     24  H   UNL     1      10.061   3.081  -2.821  0.00  0.00    +0.118 HD
ATOM     25  H   UNL     1      10.385   1.784  -3.748  0.00  0.00    +0.118 HD
ENDBRANCH  13   2
ENDBRANCH   7  13
TORSDOF 5
ENDMDL
MODEL 6
REMARK VINA RESULT:      -6.5     25.709     28.769
REMARK  Name = 71693215
REMARK  8 active torsions:
REMARK  status: ('A' for Active; 'I' for Inactive)
REMARK    1  A    between atoms: N_2  and  C_13
REMARK    2  A    between atoms: C_5  and  C_9
REMARK    3  A    between atoms: C_7  and  C_13
REMARK    4  A    between atoms: C_8  and  C_12
REMARK    5  A    between atoms: C_9  and  C_14
REMARK    6  A    between atoms: C_9  and  C_15
REMARK    7  A    between atoms: C_10  and  C_16
REMARK    8  A    between atoms: C_12  and  C_17
REMARK                            x       y       z     vdW  Elec       q    Type
REMARK                         _______ _______ _______ _____ _____    ______ ____
ROOT
ATOM      5  C   UNL     1      -3.998 -11.532  12.667  0.00  0.00    +0.000 C 
ATOM      6  C   UNL     1      -4.454 -11.481  14.131  0.00  0.00    +0.012 C 
ATOM      7  C   UNL     1      -2.539 -12.039  12.571  0.00  0.00    +0.029 C 
ATOM      8  C   UNL     1      -3.548 -10.607  15.025  0.00  0.00    +0.022 C 
ATOM     10  C   UNL     1      -2.070 -10.755  14.698  0.00  0.00    -0.073 C 
ATOM     11  C   UNL     1      -1.639 -11.409  13.603  0.00  0.00    -0.023 C 
ATOM     16  C   UNL     1      -1.085 -10.087  15.619  0.00  0.00    +0.039 C 
ENDROOT
BRANCH   5   9
ATOM      9  C   UNL     1      -4.161 -10.166  11.986  0.00  0.00    -0.013 C 
ATOM     14  C   UNL     1      -3.493 -10.173  10.615  0.00  0.00    +0.007 C 
ATOM     15  C   UNL     1      -5.639  -9.806  11.866  0.00  0.00    +0.007 C 
ENDBRANCH   5   9
BRANCH   8  12
ATOM     12  C   UNL     1      -3.867 -10.911  16.493  0.00  0.00    +0.082 C 
BRANCH  12  17
ATOM      1 CL   UNL     1     -10.906 -10.503  19.382  0.00  0.00    -0.083 Cl
ATOM      3  N   UNL     1      -6.000 -11.253  17.756  0.00  0.00    -0.342 N 
ATOM      4  N   UNL     1      -5.980  -9.548  16.330  0.00  0.00    -0.232 NA
ATOM     17  C   UNL     1      -5.283 -10.540  16.835  0.00  0.00    +0.109 A 
ATOM     18  C   UNL     1      -7.243 -10.682  17.850  0.00  0.00    +0.068 A 
ATOM     19  C   UNL     1      -7.206  -9.620  16.951  0.00  0.00    +0.089 A 
ATOM     20  C   UNL     1      -8.362 -10.994  18.623  0.00  0.00    +0.047 A 
ATOM     21  C   UNL     1      -8.344  -8.810  16.800  0.00  0.00    +0.031 A 
ATOM     22  C   UNL     1      -9.487 -10.177  18.460  0.00  0.00    +0.043 A 
ATOM     23  C   UNL     1      -9.480  -9.104  17.566  0.00  0.00    +0.022 A 
ATOM     26  H   UNL     1      -5.674 -12.056  18.276  0.00  0.00    +0.167 HD
ENDBRANCH  12  17
ENDBRANCH   8  12
BRANCH   7  13
ATOM     13  C   UNL     1      -2.460 -13.563  12.698  0.00  0.00    +0.085 C 
BRANCH  13   2
ATOM      2  N   UNL     1      -1.186 -13.965  13.270  0.00  0.00    -0.329 NA
ATOM     24  H   UNL     1      -1.351 -14.559  14.081  0.00  0.00    +0.118 HD
ATOM     25  H   UNL     1      -0.663 -14.534  12.607  0.00  0.00    +0.118 HD
ENDBRANCH  13   2
ENDBRANCH   7  13
TORSDOF 5
ENDMDL
MODEL 7
REMARK VINA RESULT:      -6.5     27.148     30.033
REMARK  Name = 71693215
REMARK  8 active torsions:
REMARK  status: ('A' for Active; 'I' for Inactive)
REMARK    1  A    between atoms: N_2  and  C_13
REMARK    2  A    between atoms: C_5  and  C_9
REMARK    3  A    between atoms: C_7  and  C_13
REMARK    4  A    between atoms: C_8  and  C_12
REMARK    5  A    between atoms: C_9  and  C_14
REMARK    6  A    between atoms: C_9  and  C_15
REMARK    7  A    between atoms: C_10  and  C_16
REMARK    8  A    between atoms: C_12  and  C_17
REMARK                            x       y       z     vdW  Elec       q    Type
REMARK                         _______ _______ _______ _____ _____    ______ ____
ROOT
ATOM      5  C   UNL     1     -13.461   8.951  20.500  0.00  0.00    +0.000 C 
ATOM      6  C   UNL     1     -14.576   7.907  20.641  0.00  0.00    +0.012 C 
ATOM      7  C   UNL     1     -12.154   8.285  20.009  0.00  0.00    +0.029 C 
ATOM      8  C   UNL     1     -14.209   6.742  21.585  0.00  0.00    +0.022 C 
ATOM     10  C   UNL     1     -12.764   6.290  21.437  0.00  0.00    -0.073 C 
ATOM     11  C   UNL     1     -11.865   6.987  20.718  0.00  0.00    -0.023 C 
ATOM     16  C   UNL     1     -12.346   5.049  22.177  0.00  0.00    +0.039 C 
ENDROOT
BRANCH   5   9
ATOM      9  C   UNL     1     -13.241   9.710  21.816  0.00  0.00    -0.013 C 
ATOM     14  C   UNL     1     -12.190  10.800  21.632  0.00  0.00    +0.007 C 
ATOM     15  C   UNL     1     -14.556  10.305  22.312  0.00  0.00    +0.007 C 
ENDBRANCH   5   9
BRANCH   8  12
ATOM     12  C   UNL     1     -15.215   5.604  21.373  0.00  0.00    +0.082 C 
BRANCH  12  17
ATOM      1 CL   UNL     1     -17.002   1.095  27.250  0.00  0.00    -0.083 Cl
ATOM      3  N   UNL     1     -15.584   3.695  22.948  0.00  0.00    -0.342 N 
ATOM      4  N   UNL     1     -16.211   5.696  23.686  0.00  0.00    -0.232 NA
ATOM     17  C   UNL     1     -15.681   5.033  22.683  0.00  0.00    +0.109 A 
ATOM     18  C   UNL     1     -16.085   3.481  24.206  0.00  0.00    +0.068 A 
ATOM     19  C   UNL     1     -16.470   4.744  24.645  0.00  0.00    +0.089 A 
ATOM     20  C   UNL     1     -16.229   2.325  24.974  0.00  0.00    +0.047 A 
ATOM     21  C   UNL     1     -17.035   4.882  25.924  0.00  0.00    +0.031 A 
ATOM     22  C   UNL     1     -16.794   2.480  26.245  0.00  0.00    +0.043 A 
ATOM     23  C   UNL     1     -17.189   3.735  26.714  0.00  0.00    +0.022 A 
ATOM     26  H   UNL     1     -15.208   2.989  22.329  0.00  0.00    +0.167 HD
ENDBRANCH  12  17
ENDBRANCH   8  12
BRANCH   7  13
ATOM     13  C   UNL     1     -12.178   8.038  18.498  0.00  0.00    +0.085 C 
BRANCH  13   2
ATOM      2  N   UNL     1     -11.253   6.977  18.136  0.00  0.00    -0.329 NA
ATOM     24  H   UNL     1     -11.093   6.376  18.944  0.00  0.00    +0.118 HD
ATOM     25  H   UNL     1     -11.660   6.380  17.419  0.00  0.00    +0.118 HD
ENDBRANCH  13   2
ENDBRANCH   7  13
TORSDOF 5
ENDMDL
MODEL 8
REMARK VINA RESULT:      -6.4     26.428     29.837
REMARK  Name = 71693215
REMARK  8 active torsions:
REMARK  status: ('A' for Active; 'I' for Inactive)
REMARK    1  A    between atoms: N_2  and  C_13
REMARK    2  A    between atoms: C_5  and  C_9
REMARK    3  A    between atoms: C_7  and  C_13
REMARK    4  A    between atoms: C_8  and  C_12
REMARK    5  A    between atoms: C_9  and  C_14
REMARK    6  A    between atoms: C_9  and  C_15
REMARK    7  A    between atoms: C_10  and  C_16
REMARK    8  A    between atoms: C_12  and  C_17
REMARK                            x       y       z     vdW  Elec       q    Type
REMARK                         _______ _______ _______ _____ _____    ______ ____
ROOT
ATOM      5  C   UNL     1      -4.398 -10.620  17.430  0.00  0.00    +0.000 C 
ATOM      6  C   UNL     1      -5.488  -9.962  16.575  0.00  0.00    +0.012 C 
ATOM      7  C   UNL     1      -3.456 -11.473  16.547  0.00  0.00    +0.029 C 
ATOM      8  C   UNL     1      -6.324 -10.975  15.763  0.00  0.00    +0.022 C 
ATOM     10  C   UNL     1      -5.490 -12.107  15.185  0.00  0.00    -0.073 C 
ATOM     11  C   UNL     1      -4.206 -12.305  15.539  0.00  0.00    -0.023 C 
ATOM     16  C   UNL     1      -6.168 -13.052  14.231  0.00  0.00    +0.039 C 
ENDROOT
BRANCH   5   9
ATOM      9  C   UNL     1      -5.009 -11.455  18.564  0.00  0.00    -0.013 C 
ATOM     14  C   UNL     1      -3.910 -12.096  19.405  0.00  0.00    +0.007 C 
ATOM     15  C   UNL     1      -5.919 -10.589  19.430  0.00  0.00    +0.007 C 
ENDBRANCH   5   9
BRANCH   8  12
ATOM     12  C   UNL     1      -7.117 -10.211  14.695  0.00  0.00    +0.082 C 
BRANCH  12  17
ATOM      1 CL   UNL     1     -13.740  -6.663  15.959  0.00  0.00    -0.083 Cl
ATOM      3  N   UNL     1      -9.123  -8.718  14.639  0.00  0.00    -0.342 N 
ATOM      4  N   UNL     1      -9.105 -10.259  16.241  0.00  0.00    -0.232 NA
ATOM     17  C   UNL     1      -8.449  -9.756  15.220  0.00  0.00    +0.109 A 
ATOM     18  C   UNL     1     -10.293  -8.539  15.333  0.00  0.00    +0.068 A 
ATOM     19  C   UNL     1     -10.258  -9.512  16.327  0.00  0.00    +0.089 A 
ATOM     20  C   UNL     1     -11.346  -7.638  15.179  0.00  0.00    +0.047 A 
ATOM     21  C   UNL     1     -11.328  -9.606  17.232  0.00  0.00    +0.031 A 
ATOM     22  C   UNL     1     -12.404  -7.744  16.089  0.00  0.00    +0.043 A 
ATOM     23  C   UNL     1     -12.398  -8.711  17.097  0.00  0.00    +0.022 A 
ATOM     26  H   UNL     1      -8.818  -8.179  13.841  0.00  0.00    +0.167 HD
ENDBRANCH  12  17
ENDBRANCH   8  12
BRANCH   7  13
ATOM     13  C   UNL     1      -2.426 -10.606  15.817  0.00  0.00    +0.085 C 
BRANCH  13   2
ATOM      2  N   UNL     1      -1.079 -10.936  16.250  0.00  0.00    -0.329 NA
ATOM     24  H   UNL     1      -0.902 -10.513  17.160  0.00  0.00    +0.118 HD
ATOM     25  H   UNL     1      -0.986 -11.941  16.386  0.00  0.00    +0.118 HD
ENDBRANCH  13   2
ENDBRANCH   7  13
TORSDOF 5
ENDMDL
MODEL 9
REMARK VINA RESULT:      -6.3     26.766     28.761
REMARK  Name = 71693215
REMARK  8 active torsions:
REMARK  status: ('A' for Active; 'I' for Inactive)
REMARK    1  A    between atoms: N_2  and  C_13
REMARK    2  A    between atoms: C_5  and  C_9
REMARK    3  A    between atoms: C_7  and  C_13
REMARK    4  A    between atoms: C_8  and  C_12
REMARK    5  A    between atoms: C_9  and  C_14
REMARK    6  A    between atoms: C_9  and  C_15
REMARK    7  A    between atoms: C_10  and  C_16
REMARK    8  A    between atoms: C_12  and  C_17
REMARK                            x       y       z     vdW  Elec       q    Type
REMARK                         _______ _______ _______ _____ _____    ______ ____
ROOT
ATOM      5  C   UNL     1      -7.782 -11.507  17.647  0.00  0.00    +0.000 C 
ATOM      6  C   UNL     1      -6.953 -12.652  17.050  0.00  0.00    +0.012 C 
ATOM      7  C   UNL     1      -6.887 -10.277  17.925  0.00  0.00    +0.029 C 
ATOM      8  C   UNL     1      -5.763 -13.074  17.939  0.00  0.00    +0.022 C 
ATOM     10  C   UNL     1      -5.062 -11.894  18.595  0.00  0.00    -0.073 C 
ATOM     11  C   UNL     1      -5.575 -10.650  18.567  0.00  0.00    -0.023 C 
ATOM     16  C   UNL     1      -3.785 -12.171  19.339  0.00  0.00    +0.039 C 
ENDROOT
BRANCH   5   9
ATOM      9  C   UNL     1      -8.522 -11.959  18.914  0.00  0.00    -0.013 C 
ATOM     14  C   UNL     1      -9.322 -10.803  19.504  0.00  0.00    +0.007 C 
ATOM     15  C   UNL     1      -9.431 -13.145  18.604  0.00  0.00    +0.007 C 
ENDBRANCH   5   9
BRANCH   8  12
ATOM     12  C   UNL     1      -4.814 -13.944  17.106  0.00  0.00    +0.082 C 
BRANCH  12  17
ATOM      1 CL   UNL     1      -1.457  -9.646  11.785  0.00  0.00    -0.083 Cl
ATOM      3  N   UNL     1      -3.366 -12.364  15.816  0.00  0.00    -0.342 N 
ATOM      4  N   UNL     1      -4.954 -13.395  14.652  0.00  0.00    -0.232 NA
ATOM     17  C   UNL     1      -4.405 -13.252  15.837  0.00  0.00    +0.109 A 
ATOM     18  C   UNL     1      -3.236 -11.903  14.531  0.00  0.00    +0.068 A 
ATOM     19  C   UNL     1      -4.238 -12.561  13.824  0.00  0.00    +0.089 A 
ATOM     20  C   UNL     1      -2.353 -10.995  13.946  0.00  0.00    +0.047 A 
ATOM     21  C   UNL     1      -4.384 -12.310  12.450  0.00  0.00    +0.031 A 
ATOM     22  C   UNL     1      -2.513 -10.756  12.576  0.00  0.00    +0.043 A 
ATOM     23  C   UNL     1      -3.508 -11.401  11.839  0.00  0.00    +0.022 A 
ATOM     26  H   UNL     1      -2.793 -12.095  16.605  0.00  0.00    +0.167 HD
ENDBRANCH  12  17
ENDBRANCH   8  12
BRANCH   7  13
ATOM     13  C   UNL     1      -6.613  -9.475  16.649  0.00  0.00    +0.085 C 
BRANCH  13   2
ATOM      2  N   UNL     1      -5.207  -9.547  16.291  0.00  0.00    -0.329 NA
ATOM     24  H   UNL     1      -5.114  -9.513  15.276  0.00  0.00    +0.118 HD
ATOM     25  H   UNL     1      -4.709  -8.732  16.645  0.00  0.00    +0.118 HD
ENDBRANCH  13   2
ENDBRANCH   7  13
TORSDOF 5
ENDMDL
MODEL 10
REMARK VINA RESULT:      -6.2     25.976     29.158
REMARK  Name = 71693215
REMARK  8 active torsions:
REMARK  status: ('A' for Active; 'I' for Inactive)
REMARK    1  A    between atoms: N_2  and  C_13
REMARK    2  A    between atoms: C_5  and  C_9
REMARK    3  A    between atoms: C_7  and  C_13
REMARK    4  A    between atoms: C_8  and  C_12
REMARK    5  A    between atoms: C_9  and  C_14
REMARK    6  A    between atoms: C_9  and  C_15
REMARK    7  A    between atoms: C_10  and  C_16
REMARK    8  A    between atoms: C_12  and  C_17
REMARK                            x       y       z     vdW  Elec       q    Type
REMARK                         _______ _______ _______ _____ _____    ______ ____
ROOT
ATOM      5  C   UNL     1      -3.577 -10.529  15.237  0.00  0.00    +0.000 C 
ATOM      6  C   UNL     1      -3.917 -10.411  16.729  0.00  0.00    +0.012 C 
ATOM      7  C   UNL     1      -4.736 -11.206  14.469  0.00  0.00    +0.029 C 
ATOM      8  C   UNL     1      -4.249 -11.766  17.390  0.00  0.00    +0.022 C 
ATOM     10  C   UNL     1      -5.074 -12.678  16.495  0.00  0.00    -0.073 C 
ATOM     11  C   UNL     1      -5.290 -12.404  15.196  0.00  0.00    -0.023 C 
ATOM     16  C   UNL     1      -5.604 -13.949  17.101  0.00  0.00    +0.039 C 
ENDROOT
BRANCH   5   9
ATOM      9  C   UNL     1      -2.254 -11.278  15.027  0.00  0.00    -0.013 C 
ATOM     14  C   UNL     1      -2.016 -11.529  13.541  0.00  0.00    +0.007 C 
ATOM     15  C   UNL     1      -1.096 -10.492  15.635  0.00  0.00    +0.007 C 
ENDBRANCH   5   9
BRANCH   8  12
ATOM     12  C   UNL     1      -4.913 -11.501  18.746  0.00  0.00    +0.082 C 
BRANCH  12  17
ATOM      1 CL   UNL     1     -11.173  -7.647  16.742  0.00  0.00    -0.083 Cl
ATOM      3  N   UNL     1      -6.582  -9.923  17.756  0.00  0.00    -0.342 N 
ATOM      4  N   UNL     1      -7.396 -11.437  19.165  0.00  0.00    -0.232 NA
ATOM     17  C   UNL     1      -6.312 -10.980  18.580  0.00  0.00    +0.109 A 
ATOM     18  C   UNL     1      -7.931  -9.682  17.813  0.00  0.00    +0.068 A 
ATOM     19  C   UNL     1      -8.416 -10.640  18.699  0.00  0.00    +0.089 A 
ATOM     20  C   UNL     1      -8.743  -8.738  17.184  0.00  0.00    +0.047 A 
ATOM     21  C   UNL     1      -9.791 -10.672  18.987  0.00  0.00    +0.031 A 
ATOM     22  C   UNL     1     -10.109  -8.784  17.483  0.00  0.00    +0.043 A 
ATOM     23  C   UNL     1     -10.626  -9.733  18.367  0.00  0.00    +0.022 A 
ATOM     26  H   UNL     1      -5.910  -9.410  17.201  0.00  0.00    +0.167 HD
ENDBRANCH  12  17
ENDBRANCH   8  12
BRANCH   7  13
ATOM     13  C   UNL     1      -5.874 -10.222  14.179  0.00  0.00    +0.085 C 
BRANCH  13   2
ATOM      2  N   UNL     1      -7.153 -10.787  14.574  0.00  0.00    -0.329 NA
ATOM     24  H   UNL     1      -7.765 -10.043  14.905  0.00  0.00    +0.118 HD
ATOM     25  H   UNL     1      -7.623 -11.199  13.770  0.00  0.00    +0.118 HD
ENDBRANCH  13   2
ENDBRANCH   7  13
TORSDOF 5
ENDMDL
