REMARK  Name = 51136653
REMARK  9 active torsions:
REMARK  status: ('A' for Active; 'I' for Inactive)
REMARK    1  A    between atoms: O_2  and  C_18
REMARK    2  A    between atoms: O_4  and  C_26
REMARK    3  A    between atoms: O_4  and  C_32
REMARK    4  A    between atoms: C_8  and  C_13
REMARK    5  A    between atoms: C_9  and  C_14
REMARK    6  A    between atoms: C_13  and  C_15
REMARK    7  A    between atoms: C_14  and  C_18
REMARK    8  A    between atoms: C_16  and  C_22
REMARK    9  A    between atoms: C_31  and  C_33
REMARK                            x       y       z     vdW  Elec       q    Type
REMARK                         _______ _______ _______ _____ _____    ______ ____
ROOT
ATOM      1  O   UNL     1       1.041   3.363   1.924  0.00  0.00    -0.270 OA
ATOM      5  N   UNL     1       1.988   2.056   0.230  0.00  0.00    -0.297 N 
ATOM      8  C   UNL     1       2.459  -0.178  -0.752  0.00  0.00    +0.016 C 
ATOM      9  C   UNL     1       3.918  -0.050  -0.245  0.00  0.00    +0.006 C 
ATOM     10  C   UNL     1       4.011   0.870   0.985  0.00  0.00    +0.023 C 
ATOM     11  C   UNL     1       1.856   1.222  -0.973  0.00  0.00    +0.112 C 
ATOM     12  C   UNL     1       3.357   2.222   0.715  0.00  0.00    +0.108 C 
ATOM     16  C   UNL     1       0.935   2.668   0.914  0.00  0.00    +0.247 C 
ENDROOT
BRANCH  16  22
ATOM     22  C   UNL     1      -0.425   2.479   0.398  0.00  0.00    +0.037 A 
ATOM     27  C   UNL     1      -0.747   2.900  -0.892  0.00  0.00    +0.014 A 
ATOM     28  C   UNL     1      -1.397   1.877   1.198  0.00  0.00    +0.014 A 
ATOM     29  C   UNL     1      -2.040   2.718  -1.383  0.00  0.00    +0.019 A 
ATOM     30  C   UNL     1      -2.689   1.696   0.708  0.00  0.00    +0.019 A 
ATOM     31  C   UNL     1      -3.011   2.116  -0.583  0.00  0.00    +0.052 A 
BRANCH  31  33
ATOM      7  N   UNL     1      -5.412   1.780  -1.493  0.00  0.00    -0.191 NA
ATOM     33  C   UNL     1      -4.336   1.931  -1.085  0.00  0.00    +0.099 C 
ENDBRANCH  31  33
ENDBRANCH  16  22
BRANCH   8  13
ATOM     13  C   UNL     1       1.553  -1.010   0.163  0.00  0.00    +0.061 C 
BRANCH  13  15
ATOM      6  N   UNL     1       0.501  -1.705  -1.881  0.00  0.00    -0.287 NA
ATOM     15  C   UNL     1       0.355  -1.504  -0.613  0.00  0.00    +0.044 C 
ATOM     17  C   UNL     1      -0.923  -1.727   0.110  0.00  0.00    -0.001 A 
ATOM     19  C   UNL     1      -2.084  -1.803  -0.670  0.00  0.00    -0.033 A 
ATOM     20  C   UNL     1      -1.965  -1.642  -2.156  0.00  0.00    +0.059 C 
ATOM     21  C   UNL     1      -0.645  -2.243  -2.623  0.00  0.00    +0.146 C 
ATOM     23  C   UNL     1      -0.994  -1.844   1.500  0.00  0.00    +0.013 A 
ATOM     24  C   UNL     1      -3.324  -1.971  -0.047  0.00  0.00    +0.050 A 
ATOM     25  C   UNL     1      -2.235  -2.027   2.111  0.00  0.00    +0.046 A 
ATOM     26  C   UNL     1      -3.397  -2.087   1.341  0.00  0.00    +0.120 A 
BRANCH  26   4
ATOM      4  O   UNL     1      -4.605  -2.259   1.946  0.00  0.00    -0.495 OA
ATOM     32  C   UNL     1      -5.752  -2.312   1.099  0.00  0.00    +0.277 C 
ENDBRANCH  26   4
ENDBRANCH  13  15
ENDBRANCH   8  13
BRANCH   9  14
ATOM     14  C   UNL     1       4.576  -1.399   0.041  0.00  0.00    +0.124 C 
BRANCH  14  18
ATOM      3  O   UNL     1       6.736  -0.304  -0.231  0.00  0.00    -0.251 OA
ATOM     18  C   UNL     1       6.076  -1.307  -0.005  0.00  0.00    +0.305 C 
BRANCH  18   2
ATOM      2  O   UNL     1       6.618  -2.526   0.249  0.00  0.00    -0.481 OA
ATOM     34  H   UNL     1       7.599  -2.501   0.227  0.00  0.00    +0.295 HD
ENDBRANCH  18   2
ENDBRANCH  14  18
ENDBRANCH   9  14
TORSDOF 8
