MODEL 1
REMARK VINA RESULT:      -6.8      0.000      0.000
REMARK  Name = 75367171
REMARK  3 active torsions:
REMARK  status: ('A' for Active; 'I' for Inactive)
REMARK    1  A    between atoms: N_2  and  C_7
REMARK    2  A    between atoms: C_8  and  C_16
REMARK    3  A    between atoms: C_17  and  C_19
REMARK                            x       y       z     vdW  Elec       q    Type
REMARK                         _______ _______ _______ _____ _____    ______ ____
ROOT
ATOM      1  O   UNL     1      13.832   8.323  17.142  0.00  0.00    -0.377 OA
ATOM      2  N   UNL     1      14.102   8.739  19.981  0.00  0.00    -0.286 NA
ATOM      8  C   UNL     1      14.133   7.377  19.401  0.00  0.00    +0.149 C 
ATOM     11  C   UNL     1      14.449   9.761  18.984  0.00  0.00    +0.113 C 
ATOM     14  C   UNL     1      13.398   7.306  18.047  0.00  0.00    +0.186 C 
ATOM     15  C   UNL     1      13.652   9.624  17.693  0.00  0.00    +0.175 C 
ENDROOT
BRANCH   2   7
ATOM      3  N   UNL     1      11.290   9.453  23.092  0.00  0.00    -0.316 NA
ATOM      7  C   UNL     1      12.827   9.027  20.635  0.00  0.00    +0.060 C 
ATOM      9  C   UNL     1      12.900  10.337  21.426  0.00  0.00    +0.034 C 
ATOM     10  C   UNL     1      12.434   7.872  21.561  0.00  0.00    +0.034 C 
ATOM     12  C   UNL     1      11.606  10.575  22.205  0.00  0.00    +0.082 C 
ATOM     13  C   UNL     1      11.157   8.206  22.335  0.00  0.00    +0.082 C 
ATOM     24  H   UNL     1      10.415   9.645  23.579  0.00  0.00    +0.122 HD
ENDBRANCH   2   7
BRANCH   8  16
ATOM      4  N   UNL     1      16.449   7.163  20.390  0.00  0.00    -0.341 N 
ATOM      5  N   UNL     1      16.094   6.009  18.526  0.00  0.00    -0.238 NA
ATOM     16  C   UNL     1      15.561   6.827  19.407  0.00  0.00    +0.127 A 
ATOM     17  C   UNL     1      17.624   6.520  20.119  0.00  0.00    +0.066 A 
ATOM     18  C   UNL     1      17.380   5.814  18.964  0.00  0.00    +0.139 A 
ATOM     25  H   UNL     1      16.260   7.772  21.176  0.00  0.00    +0.167 HD
BRANCH  17  19
ATOM      6  N   UNL     1      21.083   6.861  22.538  0.00  0.00    -0.263 NA
ATOM     19  C   UNL     1      18.799   6.635  20.942  0.00  0.00    +0.003 A 
ATOM     20  C   UNL     1      19.889   5.799  20.724  0.00  0.00    +0.029 A 
ATOM     21  C   UNL     1      18.850   7.584  21.957  0.00  0.00    +0.029 A 
ATOM     22  C   UNL     1      20.996   5.951  21.542  0.00  0.00    +0.111 A 
ATOM     23  C   UNL     1      20.004   7.656  22.719  0.00  0.00    +0.111 A 
ENDBRANCH  17  19
ENDBRANCH   8  16
TORSDOF 3
ENDMDL
MODEL 2
REMARK VINA RESULT:      -6.7      2.121      3.312
REMARK  Name = 75367171
REMARK  3 active torsions:
REMARK  status: ('A' for Active; 'I' for Inactive)
REMARK    1  A    between atoms: N_2  and  C_7
REMARK    2  A    between atoms: C_8  and  C_16
REMARK    3  A    between atoms: C_17  and  C_19
REMARK                            x       y       z     vdW  Elec       q    Type
REMARK                         _______ _______ _______ _____ _____    ______ ____
ROOT
ATOM      1  O   UNL     1      14.933   8.346  22.112  0.00  0.00    -0.377 OA
ATOM      2  N   UNL     1      14.223   7.505  19.448  0.00  0.00    -0.286 NA
ATOM      8  C   UNL     1      15.538   8.123  19.730  0.00  0.00    +0.149 C 
ATOM     11  C   UNL     1      13.626   6.924  20.659  0.00  0.00    +0.113 C 
ATOM     14  C   UNL     1      15.502   9.017  20.987  0.00  0.00    +0.186 C 
ATOM     15  C   UNL     1      13.612   7.891  21.835  0.00  0.00    +0.175 C 
ENDROOT
BRANCH   2   7
ATOM      3  N   UNL     1      12.175   9.526  16.315  0.00  0.00    -0.316 NA
ATOM      7  C   UNL     1      13.312   8.435  18.785  0.00  0.00    +0.060 C 
ATOM      9  C   UNL     1      12.256   7.680  17.970  0.00  0.00    +0.034 C 
ATOM     10  C   UNL     1      14.095   9.389  17.879  0.00  0.00    +0.034 C 
ATOM     12  C   UNL     1      11.378   8.654  17.182  0.00  0.00    +0.082 C 
ATOM     13  C   UNL     1      13.145  10.297  17.095  0.00  0.00    +0.082 C 
ATOM     24  H   UNL     1      11.555  10.167  15.821  0.00  0.00    +0.122 HD
ENDBRANCH   2   7
BRANCH   8  16
ATOM      4  N   UNL     1      17.724   7.144  20.537  0.00  0.00    -0.341 N 
ATOM      5  N   UNL     1      16.699   6.003  18.931  0.00  0.00    -0.238 NA
ATOM     16  C   UNL     1      16.642   7.064  19.705  0.00  0.00    +0.127 A 
ATOM     17  C   UNL     1      18.521   6.065  20.276  0.00  0.00    +0.066 A 
ATOM     18  C   UNL     1      17.868   5.376  19.282  0.00  0.00    +0.139 A 
ATOM     25  H   UNL     1      17.891   7.869  21.222  0.00  0.00    +0.167 HD
BRANCH  17  19
ATOM      6  N   UNL     1      22.169   5.322  22.296  0.00  0.00    -0.263 NA
ATOM     19  C   UNL     1      19.760   5.812  20.964  0.00  0.00    +0.003 A 
ATOM     20  C   UNL     1      20.684   4.920  20.431  0.00  0.00    +0.029 A 
ATOM     21  C   UNL     1      20.039   6.460  22.162  0.00  0.00    +0.029 A 
ATOM     22  C   UNL     1      21.862   4.711  21.129  0.00  0.00    +0.111 A 
ATOM     23  C   UNL     1      21.246   6.183  22.783  0.00  0.00    +0.111 A 
ENDBRANCH  17  19
ENDBRANCH   8  16
TORSDOF 3
ENDMDL
MODEL 3
REMARK VINA RESULT:      -6.0      2.217      7.515
REMARK  Name = 75367171
REMARK  3 active torsions:
REMARK  status: ('A' for Active; 'I' for Inactive)
REMARK    1  A    between atoms: N_2  and  C_7
REMARK    2  A    between atoms: C_8  and  C_16
REMARK    3  A    between atoms: C_17  and  C_19
REMARK                            x       y       z     vdW  Elec       q    Type
REMARK                         _______ _______ _______ _____ _____    ______ ____
ROOT
ATOM      1  O   UNL     1      12.617   8.791  18.260  0.00  0.00    -0.377 OA
ATOM      2  N   UNL     1      14.288   7.908  20.435  0.00  0.00    -0.286 NA
ATOM      8  C   UNL     1      13.862   9.321  20.323  0.00  0.00    +0.149 C 
ATOM     11  C   UNL     1      13.387   7.010  19.700  0.00  0.00    +0.113 C 
ATOM     14  C   UNL     1      13.524   9.711  18.869  0.00  0.00    +0.186 C 
ATOM     15  C   UNL     1      13.135   7.465  18.269  0.00  0.00    +0.175 C 
ENDROOT
BRANCH   2   7
ATOM      3  N   UNL     1      18.264   6.394  20.431  0.00  0.00    -0.316 NA
ATOM      7  C   UNL     1      15.682   7.723  20.038  0.00  0.00    +0.060 C 
ATOM      9  C   UNL     1      15.936   6.282  19.582  0.00  0.00    +0.034 C 
ATOM     10  C   UNL     1      16.615   8.081  21.199  0.00  0.00    +0.034 C 
ATOM     12  C   UNL     1      17.419   6.060  19.281  0.00  0.00    +0.082 C 
ATOM     13  C   UNL     1      18.073   7.789  20.835  0.00  0.00    +0.082 C 
ATOM     24  H   UNL     1      19.242   6.246  20.184  0.00  0.00    +0.122 HD
ENDBRANCH   2   7
BRANCH   8  16
ATOM      4  N   UNL     1      12.608  10.905  21.841  0.00  0.00    -0.341 N 
ATOM      5  N   UNL     1      11.934   8.790  21.898  0.00  0.00    -0.238 NA
ATOM     16  C   UNL     1      12.784   9.638  21.360  0.00  0.00    +0.127 A 
ATOM     17  C   UNL     1      11.582  10.864  22.742  0.00  0.00    +0.066 A 
ATOM     18  C   UNL     1      11.182   9.548  22.759  0.00  0.00    +0.139 A 
ATOM     25  H   UNL     1      13.141  11.721  21.567  0.00  0.00    +0.167 HD
BRANCH  17  19
ATOM      6  N   UNL     1      10.187  14.262  24.849  0.00  0.00    -0.263 NA
ATOM     19  C   UNL     1      11.109  12.019  23.458  0.00  0.00    +0.003 A 
ATOM     20  C   UNL     1      10.755  13.173  22.767  0.00  0.00    +0.029 A 
ATOM     21  C   UNL     1      11.002  11.985  24.844  0.00  0.00    +0.029 A 
ATOM     22  C   UNL     1      10.305  14.257  23.502  0.00  0.00    +0.111 A 
ATOM     23  C   UNL     1      10.539  13.122  25.486  0.00  0.00    +0.111 A 
ENDBRANCH  17  19
ENDBRANCH   8  16
TORSDOF 3
ENDMDL
MODEL 4
REMARK VINA RESULT:      -5.9     27.096     29.078
REMARK  Name = 75367171
REMARK  3 active torsions:
REMARK  status: ('A' for Active; 'I' for Inactive)
REMARK    1  A    between atoms: N_2  and  C_7
REMARK    2  A    between atoms: C_8  and  C_16
REMARK    3  A    between atoms: C_17  and  C_19
REMARK                            x       y       z     vdW  Elec       q    Type
REMARK                         _______ _______ _______ _____ _____    ______ ____
ROOT
ATOM      1  O   UNL     1      -6.327 -11.656  19.924  0.00  0.00    -0.377 OA
ATOM      2  N   UNL     1      -7.630 -10.920  17.461  0.00  0.00    -0.286 NA
ATOM      8  C   UNL     1      -6.455 -10.169  17.959  0.00  0.00    +0.149 C 
ATOM     11  C   UNL     1      -7.684 -12.277  18.022  0.00  0.00    +0.113 C 
ATOM     14  C   UNL     1      -6.291 -10.297  19.488  0.00  0.00    +0.186 C 
ATOM     15  C   UNL     1      -7.540 -12.296  19.538  0.00  0.00    +0.175 C 
ENDROOT
BRANCH   2   7
ATOM      3  N   UNL     1     -11.204  -8.788  16.579  0.00  0.00    -0.316 NA
ATOM      7  C   UNL     1      -8.878 -10.191  17.677  0.00  0.00    +0.060 C 
ATOM      9  C   UNL     1     -10.063 -10.938  17.056  0.00  0.00    +0.034 C 
ATOM     10  C   UNL     1      -8.776  -8.781  17.089  0.00  0.00    +0.034 C 
ATOM     12  C   UNL     1     -11.348 -10.117  17.178  0.00  0.00    +0.082 C 
ATOM     13  C   UNL     1     -10.112  -8.043  17.210  0.00  0.00    +0.082 C 
ATOM     24  H   UNL     1     -12.075  -8.270  16.696  0.00  0.00    +0.122 HD
ENDBRANCH   2   7
BRANCH   8  16
ATOM      4  N   UNL     1      -5.168 -10.266  15.787  0.00  0.00    -0.341 N 
ATOM      5  N   UNL     1      -4.096 -11.042  17.569  0.00  0.00    -0.238 NA
ATOM     16  C   UNL     1      -5.214 -10.507  17.131  0.00  0.00    +0.127 A 
ATOM     17  C   UNL     1      -3.943 -10.672  15.338  0.00  0.00    +0.066 A 
ATOM     18  C   UNL     1      -3.299 -11.147  16.457  0.00  0.00    +0.139 A 
ATOM     25  H   UNL     1      -5.909  -9.854  15.234  0.00  0.00    +0.167 HD
BRANCH  17  19
ATOM      6  N   UNL     1      -2.726 -10.387  11.292  0.00  0.00    -0.263 NA
ATOM     19  C   UNL     1      -3.530 -10.574  13.963  0.00  0.00    +0.003 A 
ATOM     20  C   UNL     1      -2.183 -10.672  13.631  0.00  0.00    +0.029 A 
ATOM     21  C   UNL     1      -4.475 -10.383  12.962  0.00  0.00    +0.029 A 
ATOM     22  C   UNL     1      -1.836 -10.572  12.293  0.00  0.00    +0.111 A 
ATOM     23  C   UNL     1      -4.026 -10.297  11.654  0.00  0.00    +0.111 A 
ENDBRANCH  17  19
ENDBRANCH   8  16
TORSDOF 3
ENDMDL
MODEL 5
REMARK VINA RESULT:      -5.8     27.316     30.360
REMARK  Name = 75367171
REMARK  3 active torsions:
REMARK  status: ('A' for Active; 'I' for Inactive)
REMARK    1  A    between atoms: N_2  and  C_7
REMARK    2  A    between atoms: C_8  and  C_16
REMARK    3  A    between atoms: C_17  and  C_19
REMARK                            x       y       z     vdW  Elec       q    Type
REMARK                         _______ _______ _______ _____ _____    ______ ____
ROOT
ATOM      1  O   UNL     1      -6.202 -12.928  18.322  0.00  0.00    -0.377 OA
ATOM      2  N   UNL     1      -5.065 -10.733  16.840  0.00  0.00    -0.286 NA
ATOM      8  C   UNL     1      -6.374 -11.314  16.462  0.00  0.00    +0.149 C 
ATOM     11  C   UNL     1      -4.733 -11.010  18.244  0.00  0.00    +0.113 C 
ATOM     14  C   UNL     1      -6.518 -12.775  16.937  0.00  0.00    +0.186 C 
ATOM     15  C   UNL     1      -4.880 -12.482  18.608  0.00  0.00    +0.175 C 
ENDROOT
BRANCH   2   7
ATOM      3  N   UNL     1      -1.853 -10.458  14.064  0.00  0.00    -0.316 NA
ATOM      7  C   UNL     1      -3.998 -11.154  15.935  0.00  0.00    +0.060 C 
ATOM      9  C   UNL     1      -2.638 -10.631  16.410  0.00  0.00    +0.034 C 
ATOM     10  C   UNL     1      -4.284 -10.663  14.513  0.00  0.00    +0.034 C 
ATOM     12  C   UNL     1      -1.541 -10.971  15.401  0.00  0.00    +0.082 C 
ATOM     13  C   UNL     1      -3.122 -11.002  13.576  0.00  0.00    +0.082 C 
ATOM     24  H   UNL     1      -1.106 -10.719  13.421  0.00  0.00    +0.122 HD
ENDBRANCH   2   7
BRANCH   8  16
ATOM      4  N   UNL     1      -8.592 -10.825  17.569  0.00  0.00    -0.341 N 
ATOM      5  N   UNL     1      -7.601  -9.088  16.603  0.00  0.00    -0.238 NA
ATOM     16  C   UNL     1      -7.511 -10.374  16.864  0.00  0.00    +0.127 A 
ATOM     17  C   UNL     1      -9.424  -9.760  17.770  0.00  0.00    +0.066 A 
ATOM     18  C   UNL     1      -8.790  -8.699  17.166  0.00  0.00    +0.139 A 
ATOM     25  H   UNL     1      -8.738 -11.775  17.886  0.00  0.00    +0.167 HD
BRANCH  17  19
ATOM      6  N   UNL     1     -13.098 -10.036  19.858  0.00  0.00    -0.263 NA
ATOM     19  C   UNL     1     -10.673  -9.852  18.480  0.00  0.00    +0.003 A 
ATOM     20  C   UNL     1     -11.856  -9.456  17.867  0.00  0.00    +0.029 A 
ATOM     21  C   UNL     1     -10.701 -10.341  19.782  0.00  0.00    +0.029 A 
ATOM     22  C   UNL     1     -13.031  -9.565  18.592  0.00  0.00    +0.111 A 
ATOM     23  C   UNL     1     -11.928 -10.413  20.421  0.00  0.00    +0.111 A 
ENDBRANCH  17  19
ENDBRANCH   8  16
TORSDOF 3
ENDMDL
MODEL 6
REMARK VINA RESULT:      -5.8      4.175      5.896
REMARK  Name = 75367171
REMARK  3 active torsions:
REMARK  status: ('A' for Active; 'I' for Inactive)
REMARK    1  A    between atoms: N_2  and  C_7
REMARK    2  A    between atoms: C_8  and  C_16
REMARK    3  A    between atoms: C_17  and  C_19
REMARK                            x       y       z     vdW  Elec       q    Type
REMARK                         _______ _______ _______ _____ _____    ______ ____
ROOT
ATOM      1  O   UNL     1      12.189   6.447  20.905  0.00  0.00    -0.377 OA
ATOM      2  N   UNL     1      12.129   9.327  20.975  0.00  0.00    -0.286 NA
ATOM      8  C   UNL     1      13.363   8.597  20.605  0.00  0.00    +0.149 C 
ATOM     11  C   UNL     1      10.929   8.505  20.768  0.00  0.00    +0.113 C 
ATOM     14  C   UNL     1      13.388   7.169  21.190  0.00  0.00    +0.186 C 
ATOM     15  C   UNL     1      11.040   7.125  21.404  0.00  0.00    +0.175 C 
ENDROOT
BRANCH   2   7
ATOM      3  N   UNL     1      12.084  12.157  24.151  0.00  0.00    -0.316 NA
ATOM      7  C   UNL     1      12.195   9.862  22.333  0.00  0.00    +0.060 C 
ATOM      9  C   UNL     1      10.872  10.530  22.724  0.00  0.00    +0.034 C 
ATOM     10  C   UNL     1      13.348  10.863  22.453  0.00  0.00    +0.034 C 
ATOM     12  C   UNL     1      10.983  11.193  24.098  0.00  0.00    +0.082 C 
ATOM     13  C   UNL     1      13.362  11.513  23.839  0.00  0.00    +0.082 C 
ATOM     24  H   UNL     1      12.132  12.563  25.085  0.00  0.00    +0.122 HD
ENDBRANCH   2   7
BRANCH   8  16
ATOM      4  N   UNL     1      13.990   9.877  18.519  0.00  0.00    -0.341 N 
ATOM      5  N   UNL     1      13.507   7.732  18.215  0.00  0.00    -0.238 NA
ATOM     16  C   UNL     1      13.613   8.699  19.100  0.00  0.00    +0.127 A 
ATOM     17  C   UNL     1      14.133   9.648  17.180  0.00  0.00    +0.066 A 
ATOM     18  C   UNL     1      13.830   8.316  17.017  0.00  0.00    +0.139 A 
ATOM     25  H   UNL     1      14.140  10.754  19.003  0.00  0.00    +0.167 HD
BRANCH  17  19
ATOM      6  N   UNL     1      15.284  12.639  14.412  0.00  0.00    -0.263 NA
ATOM     19  C   UNL     1      14.523  10.665  16.238  0.00  0.00    +0.003 A 
ATOM     20  C   UNL     1      14.338  12.008  16.545  0.00  0.00    +0.029 A 
ATOM     21  C   UNL     1      15.088  10.307  15.020  0.00  0.00    +0.029 A 
ATOM     22  C   UNL     1      14.730  12.948  15.607  0.00  0.00    +0.111 A 
ATOM     23  C   UNL     1      15.448  11.323  14.149  0.00  0.00    +0.111 A 
ENDBRANCH  17  19
ENDBRANCH   8  16
TORSDOF 3
ENDMDL
MODEL 7
REMARK VINA RESULT:      -5.8      2.793      8.294
REMARK  Name = 75367171
REMARK  3 active torsions:
REMARK  status: ('A' for Active; 'I' for Inactive)
REMARK    1  A    between atoms: N_2  and  C_7
REMARK    2  A    between atoms: C_8  and  C_16
REMARK    3  A    between atoms: C_17  and  C_19
REMARK                            x       y       z     vdW  Elec       q    Type
REMARK                         _______ _______ _______ _____ _____    ______ ____
ROOT
ATOM      1  O   UNL     1      20.451   8.329  22.428  0.00  0.00    -0.377 OA
ATOM      2  N   UNL     1      21.137   6.010  20.860  0.00  0.00    -0.286 NA
ATOM      8  C   UNL     1      19.942   6.016  21.734  0.00  0.00    +0.149 C 
ATOM     11  C   UNL     1      21.553   7.373  20.500  0.00  0.00    +0.113 C 
ATOM     14  C   UNL     1      20.074   7.031  22.889  0.00  0.00    +0.186 C 
ATOM     15  C   UNL     1      21.680   8.291  21.709  0.00  0.00    +0.175 C 
ENDROOT
BRANCH   2   7
ATOM      3  N   UNL     1      24.060   2.952  21.304  0.00  0.00    -0.316 NA
ATOM      7  C   UNL     1      22.235   5.241  21.439  0.00  0.00    +0.060 C 
ATOM      9  C   UNL     1      23.443   5.214  20.495  0.00  0.00    +0.034 C 
ATOM     10  C   UNL     1      21.776   3.813  21.749  0.00  0.00    +0.034 C 
ATOM     12  C   UNL     1      24.546   4.310  21.048  0.00  0.00    +0.082 C 
ATOM     13  C   UNL     1      22.945   2.964  22.254  0.00  0.00    +0.082 C 
ATOM     24  H   UNL     1      24.820   2.389  21.685  0.00  0.00    +0.122 HD
ENDBRANCH   2   7
BRANCH   8  16
ATOM      4  N   UNL     1      17.513   6.637  21.423  0.00  0.00    -0.341 N 
ATOM      5  N   UNL     1      18.516   5.779  19.638  0.00  0.00    -0.238 NA
ATOM     16  C   UNL     1      18.667   6.130  20.897  0.00  0.00    +0.127 A 
ATOM     17  C   UNL     1      16.565   6.607  20.439  0.00  0.00    +0.066 A 
ATOM     18  C   UNL     1      17.209   6.074  19.347  0.00  0.00    +0.139 A 
ATOM     25  H   UNL     1      17.393   6.977  22.369  0.00  0.00    +0.167 HD
BRANCH  17  19
ATOM      6  N   UNL     1      12.586   7.950  20.992  0.00  0.00    -0.263 NA
ATOM     19  C   UNL     1      15.213   7.065  20.627  0.00  0.00    +0.003 A 
ATOM     20  C   UNL     1      14.273   6.897  19.616  0.00  0.00    +0.029 A 
ATOM     21  C   UNL     1      14.842   7.674  21.820  0.00  0.00    +0.029 A 
ATOM     22  C   UNL     1      12.985   7.353  19.845  0.00  0.00    +0.111 A 
ATOM     23  C   UNL     1      13.528   8.095  21.951  0.00  0.00    +0.111 A 
ENDBRANCH  17  19
ENDBRANCH   8  16
TORSDOF 3
ENDMDL
MODEL 8
REMARK VINA RESULT:      -5.7     17.211     20.247
REMARK  Name = 75367171
REMARK  3 active torsions:
REMARK  status: ('A' for Active; 'I' for Inactive)
REMARK    1  A    between atoms: N_2  and  C_7
REMARK    2  A    between atoms: C_8  and  C_16
REMARK    3  A    between atoms: C_17  and  C_19
REMARK                            x       y       z     vdW  Elec       q    Type
REMARK                         _______ _______ _______ _____ _____    ______ ____
ROOT
ATOM      1  O   UNL     1      14.173   3.397   1.773  0.00  0.00    -0.377 OA
ATOM      2  N   UNL     1      12.616   4.751  -0.239  0.00  0.00    -0.286 NA
ATOM      8  C   UNL     1      11.965   3.933   0.810  0.00  0.00    +0.149 C 
ATOM     11  C   UNL     1      13.955   5.195   0.172  0.00  0.00    +0.113 C 
ATOM     14  C   UNL     1      12.913   2.855   1.375  0.00  0.00    +0.186 C 
ATOM     15  C   UNL     1      14.823   4.055   0.690  0.00  0.00    +0.175 C 
ENDROOT
BRANCH   2   7
ATOM      3  N   UNL     1      11.759   3.906  -4.319  0.00  0.00    -0.316 NA
ATOM      7  C   UNL     1      12.641   4.067  -1.530  0.00  0.00    +0.060 C 
ATOM      9  C   UNL     1      13.215   4.977  -2.621  0.00  0.00    +0.034 C 
ATOM     10  C   UNL     1      11.232   3.607  -1.914  0.00  0.00    +0.034 C 
ATOM     12  C   UNL     1      13.131   4.304  -3.992  0.00  0.00    +0.082 C 
ATOM     13  C   UNL     1      11.225   2.986  -3.312  0.00  0.00    +0.082 C 
ATOM     24  H   UNL     1      11.751   3.449  -5.231  0.00  0.00    +0.122 HD
ENDBRANCH   2   7
BRANCH   8  16
ATOM      4  N   UNL     1      11.500   4.651   3.187  0.00  0.00    -0.341 N 
ATOM      5  N   UNL     1      10.478   5.837   1.613  0.00  0.00    -0.238 NA
ATOM     16  C   UNL     1      11.293   4.832   1.849  0.00  0.00    +0.127 A 
ATOM     17  C   UNL     1      10.770   5.599   3.847  0.00  0.00    +0.066 A 
ATOM     18  C   UNL     1      10.149   6.319   2.854  0.00  0.00    +0.139 A 
ATOM     25  H   UNL     1      12.093   3.944   3.604  0.00  0.00    +0.167 HD
BRANCH  17  19
ATOM      6  N   UNL     1      10.674   5.955   8.066  0.00  0.00    -0.263 NA
ATOM     19  C   UNL     1      10.738   5.719   5.282  0.00  0.00    +0.003 A 
ATOM     20  C   UNL     1      11.640   6.554   5.932  0.00  0.00    +0.029 A 
ATOM     21  C   UNL     1       9.805   5.001   6.021  0.00  0.00    +0.029 A 
ATOM     22  C   UNL     1      11.568   6.636   7.313  0.00  0.00    +0.111 A 
ATOM     23  C   UNL     1       9.814   5.153   7.398  0.00  0.00    +0.111 A 
ENDBRANCH  17  19
ENDBRANCH   8  16
TORSDOF 3
ENDMDL
MODEL 9
REMARK VINA RESULT:      -5.7     27.502     29.778
REMARK  Name = 75367171
REMARK  3 active torsions:
REMARK  status: ('A' for Active; 'I' for Inactive)
REMARK    1  A    between atoms: N_2  and  C_7
REMARK    2  A    between atoms: C_8  and  C_16
REMARK    3  A    between atoms: C_17  and  C_19
REMARK                            x       y       z     vdW  Elec       q    Type
REMARK                         _______ _______ _______ _____ _____    ______ ____
ROOT
ATOM      1  O   UNL     1      -9.022 -10.584  15.393  0.00  0.00    -0.377 OA
ATOM      2  N   UNL     1      -9.030 -10.563  18.275  0.00  0.00    -0.286 NA
ATOM      8  C   UNL     1      -8.300 -11.606  17.520  0.00  0.00    +0.149 C 
ATOM     11  C   UNL     1      -9.247  -9.357  17.463  0.00  0.00    +0.113 C 
ATOM     14  C   UNL     1      -8.882 -11.814  16.106  0.00  0.00    +0.186 C 
ATOM     15  C   UNL     1      -9.849  -9.663  16.098  0.00  0.00    +0.175 C 
ENDROOT
BRANCH   2   7
ATOM      3  N   UNL     1     -11.967 -11.573  21.181  0.00  0.00    -0.316 NA
ATOM      7  C   UNL     1     -10.278 -11.069  18.841  0.00  0.00    +0.060 C 
ATOM      9  C   UNL     1     -11.056  -9.950  19.542  0.00  0.00    +0.034 C 
ATOM     10  C   UNL     1      -9.991 -12.208  19.824  0.00  0.00    +0.034 C 
ATOM     12  C   UNL     1     -12.301 -10.505  20.236  0.00  0.00    +0.082 C 
ATOM     13  C   UNL     1     -11.278 -12.675  20.506  0.00  0.00    +0.082 C 
ATOM     24  H   UNL     1     -12.825 -11.924  21.609  0.00  0.00    +0.122 HD
ENDBRANCH   2   7
BRANCH   8  16
ATOM      4  N   UNL     1      -6.051 -11.189  16.447  0.00  0.00    -0.341 N 
ATOM      5  N   UNL     1      -6.051 -11.269  18.666  0.00  0.00    -0.238 NA
ATOM     16  C   UNL     1      -6.792 -11.354  17.582  0.00  0.00    +0.127 A 
ATOM     17  C   UNL     1      -4.755 -10.985  16.829  0.00  0.00    +0.066 A 
ATOM     18  C   UNL     1      -4.781 -11.039  18.203  0.00  0.00    +0.139 A 
ATOM     25  H   UNL     1      -6.406 -11.208  15.499  0.00  0.00    +0.167 HD
BRANCH  17  19
ATOM      6  N   UNL     1      -1.586 -10.360  14.090  0.00  0.00    -0.263 NA
ATOM     19  C   UNL     1      -3.678 -10.771  15.898  0.00  0.00    +0.003 A 
ATOM     20  C   UNL     1      -2.372 -10.639  16.359  0.00  0.00    +0.029 A 
ATOM     21  C   UNL     1      -3.938 -10.699  14.534  0.00  0.00    +0.029 A 
ATOM     22  C   UNL     1      -1.371 -10.436  15.423  0.00  0.00    +0.111 A 
ATOM     23  C   UNL     1      -2.867 -10.494  13.680  0.00  0.00    +0.111 A 
ENDBRANCH  17  19
ENDBRANCH   8  16
TORSDOF 3
ENDMDL
MODEL 10
REMARK VINA RESULT:      -5.7     27.106     29.436
REMARK  Name = 75367171
REMARK  3 active torsions:
REMARK  status: ('A' for Active; 'I' for Inactive)
REMARK    1  A    between atoms: N_2  and  C_7
REMARK    2  A    between atoms: C_8  and  C_16
REMARK    3  A    between atoms: C_17  and  C_19
REMARK                            x       y       z     vdW  Elec       q    Type
REMARK                         _______ _______ _______ _____ _____    ______ ____
ROOT
ATOM      1  O   UNL     1      -8.939 -12.453  19.272  0.00  0.00    -0.377 OA
ATOM      2  N   UNL     1      -8.765 -10.632  17.046  0.00  0.00    -0.286 NA
ATOM      8  C   UNL     1      -7.992 -10.399  18.287  0.00  0.00    +0.149 C 
ATOM     11  C   UNL     1      -9.142 -12.044  16.899  0.00  0.00    +0.113 C 
ATOM     14  C   UNL     1      -8.642 -11.077  19.511  0.00  0.00    +0.186 C 
ATOM     15  C   UNL     1      -9.800 -12.615  18.149  0.00  0.00    +0.175 C 
ENDROOT
BRANCH   2   7
ATOM      3  N   UNL     1     -11.275  -7.494  15.649  0.00  0.00    -0.316 NA
ATOM      7  C   UNL     1      -9.922  -9.746  16.948  0.00  0.00    +0.060 C 
ATOM      9  C   UNL     1     -10.600  -9.880  15.580  0.00  0.00    +0.034 C 
ATOM     10  C   UNL     1      -9.500  -8.293  17.187  0.00  0.00    +0.034 C 
ATOM     12  C   UNL     1     -11.737  -8.868  15.434  0.00  0.00    +0.082 C 
ATOM     13  C   UNL     1     -10.681  -7.343  16.980  0.00  0.00    +0.082 C 
ATOM     24  H   UNL     1     -12.065  -6.855  15.559  0.00  0.00    +0.122 HD
ENDBRANCH   2   7
BRANCH   8  16
ATOM      4  N   UNL     1      -5.897 -10.444  16.875  0.00  0.00    -0.341 N 
ATOM      5  N   UNL     1      -5.685 -11.267  18.926  0.00  0.00    -0.238 NA
ATOM     16  C   UNL     1      -6.513 -10.719  18.064  0.00  0.00    +0.127 A 
ATOM     17  C   UNL     1      -4.594 -10.841  16.986  0.00  0.00    +0.066 A 
ATOM     18  C   UNL     1      -4.488 -11.345  18.261  0.00  0.00    +0.139 A 
ATOM     25  H   UNL     1      -6.333 -10.016  16.068  0.00  0.00    +0.167 HD
BRANCH  17  19
ATOM      6  N   UNL     1      -1.763 -10.447  13.862  0.00  0.00    -0.263 NA
ATOM     19  C   UNL     1      -3.632 -10.709  15.924  0.00  0.00    +0.003 A 
ATOM     20  C   UNL     1      -4.049 -10.723  14.598  0.00  0.00    +0.029 A 
ATOM     21  C   UNL     1      -2.281 -10.564  16.221  0.00  0.00    +0.029 A 
ATOM     22  C   UNL     1      -3.084 -10.591  13.613  0.00  0.00    +0.111 A 
ATOM     23  C   UNL     1      -1.395 -10.438  15.163  0.00  0.00    +0.111 A 
ENDBRANCH  17  19
ENDBRANCH   8  16
TORSDOF 3
ENDMDL
