REMARK  Name = 26744948
REMARK  8 active torsions:
REMARK  status: ('A' for Active; 'I' for Inactive)
REMARK    1  A    between atoms: O_2  and  C_30
REMARK    2  A    between atoms: O_2  and  C_33
REMARK    3  A    between atoms: N_4  and  C_15
REMARK    4  A    between atoms: N_9  and  C_24
REMARK    5  A    between atoms: C_10  and  C_16
REMARK    6  A    between atoms: C_15  and  C_17
REMARK    7  A    between atoms: C_21  and  C_25
REMARK    8  A    between atoms: C_31  and  C_32
REMARK                            x       y       z     vdW  Elec       q    Type
REMARK                         _______ _______ _______ _____ _____    ______ ____
ROOT
ATOM      4  N   UNL     1      -1.585  -1.622   0.447  0.00  0.00    -0.281 NA
ATOM      5  N   UNL     1      -3.883  -4.016  -1.301  0.00  0.00    -0.347 N 
ATOM      6  N   UNL     1      -2.002  -5.045  -1.931  0.00  0.00    -0.240 NA
ATOM     10  C   UNL     1      -0.494  -2.640   0.624  0.00  0.00    +0.152 C 
ATOM     11  C   UNL     1      -0.382  -3.619  -0.599  0.00  0.00    +0.086 C 
ATOM     12  C   UNL     1      -2.928  -2.253   0.289  0.00  0.00    +0.140 C 
ATOM     13  C   UNL     1      -2.862  -3.380  -0.664  0.00  0.00    +0.053 A 
ATOM     14  C   UNL     1      -1.723  -4.031  -1.060  0.00  0.00    +0.065 A 
ATOM     18  C   UNL     1      -3.314  -5.013  -2.054  0.00  0.00    +0.197 A 
ATOM     34  H   UNL     1      -4.870  -3.803  -1.232  0.00  0.00    +0.167 HD
ENDROOT
BRANCH  10  16
ATOM      1  O   UNL     1       1.484  -2.344   2.045  0.00  0.00    -0.336 OA
ATOM      7  N   UNL     1       1.591  -1.245   0.096  0.00  0.00    -0.190 NA
ATOM      8  N   UNL     1       2.718  -1.681   2.038  0.00  0.00    -0.056 NA
ATOM     16  C   UNL     1       0.885  -2.034   0.866  0.00  0.00    +0.245 A 
ATOM     21  C   UNL     1       2.707  -1.056   0.858  0.00  0.00    +0.202 A 
BRANCH  21  25
ATOM     25  C   UNL     1       3.795  -0.236   0.408  0.00  0.00    +0.023 A 
ATOM     26  C   UNL     1       3.729   0.392  -0.836  0.00  0.00    +0.015 A 
ATOM     27  C   UNL     1       4.920  -0.068   1.215  0.00  0.00    +0.015 A 
ATOM     28  C   UNL     1       4.788   1.187  -1.273  0.00  0.00    +0.046 A 
ATOM     29  C   UNL     1       5.979   0.728   0.778  0.00  0.00    +0.046 A 
ATOM     30  C   UNL     1       5.913   1.355  -0.466  0.00  0.00    +0.120 A 
BRANCH  30   2
ATOM      2  O   UNL     1       6.947   2.132  -0.891  0.00  0.00    -0.495 OA
ATOM     33  C   UNL     1       6.814   2.745  -2.173  0.00  0.00    +0.277 C 
ENDBRANCH  30   2
ENDBRANCH  21  25
ENDBRANCH  10  16
BRANCH   4  15
ATOM     15  C   UNL     1      -1.655  -0.676   1.569  0.00  0.00    +0.120 C 
BRANCH  15  17
ATOM     17  C   UNL     1      -2.284   0.630   1.163  0.00  0.00    -0.033 A 
ATOM     19  C   UNL     1      -1.552   1.557   0.421  0.00  0.00    +0.007 A 
ATOM     20  C   UNL     1      -3.600   0.914   1.530  0.00  0.00    +0.007 A 
ATOM     22  C   UNL     1      -2.134   2.767   0.047  0.00  0.00    +0.023 A 
ATOM     23  C   UNL     1      -4.182   2.125   1.156  0.00  0.00    +0.023 A 
ATOM     24  C   UNL     1      -3.450   3.052   0.414  0.00  0.00    +0.033 A 
BRANCH  24   9
ATOM      3  O   UNL     1      -2.326   5.356  -1.166  0.00  0.00    -0.276 OA
ATOM      9  N   UNL     1      -4.032   4.263   0.039  0.00  0.00    -0.286 N 
ATOM     31  C   UNL     1      -3.459   5.307  -0.699  0.00  0.00    +0.214 C 
ATOM     32  C   UNL     1      -4.424   6.449  -0.893  0.00  0.00    +0.109 C 
ATOM     35  H   UNL     1      -4.994   4.395   0.345  0.00  0.00    +0.155 HD
ENDBRANCH  24   9
ENDBRANCH  15  17
ENDBRANCH   4  15
TORSDOF 6
