MODEL 1
REMARK VINA RESULT:      -7.2      0.000      0.000
REMARK  Name = 25313352
REMARK  8 active torsions:
REMARK  status: ('A' for Active; 'I' for Inactive)
REMARK    1  A    between atoms: O_3  and  C_21
REMARK    2  A    between atoms: N_6  and  C_14
REMARK    3  A    between atoms: N_7  and  C_22
REMARK    4  A    between atoms: C_8  and  C_11
REMARK    5  A    between atoms: C_9  and  C_15
REMARK    6  A    between atoms: C_11  and  C_14
REMARK    7  A    between atoms: C_15  and  C_21
REMARK    8  A    between atoms: C_20  and  C_23
REMARK                            x       y       z     vdW  Elec       q    Type
REMARK                         _______ _______ _______ _____ _____    ______ ____
ROOT
ATOM     11  C   UNL     1      14.885   8.997  19.644  0.00  0.00    +0.020 C 
ENDROOT
BRANCH  11   8
ATOM      2  O   UNL     1      13.467   8.617  15.113  0.00  0.00    -0.276 OA
ATOM      5  N   UNL     1      12.947   9.348  17.257  0.00  0.00    -0.301 N 
ATOM      8  C   UNL     1      13.448   9.530  19.684  0.00  0.00    +0.011 C 
ATOM      9  C   UNL     1      12.379   8.439  19.948  0.00  0.00    +0.006 C 
ATOM     10  C   UNL     1      13.119  10.278  18.380  0.00  0.00    +0.111 C 
ATOM     12  C   UNL     1      12.197   7.518  18.730  0.00  0.00    +0.023 C 
ATOM     13  C   UNL     1      11.922   8.324  17.463  0.00  0.00    +0.108 C 
ATOM     20  C   UNL     1      13.649   9.396  16.053  0.00  0.00    +0.212 C 
ATOM     23  C   UNL     1      14.690  10.479  15.921  0.00  0.00    +0.109 C 
BRANCH   9  15
ATOM     15  C   UNL     1      12.658   7.617  21.207  0.00  0.00    +0.124 C 
BRANCH  15  21
ATOM      4  O   UNL     1      10.350   7.163  21.849  0.00  0.00    -0.251 OA
ATOM     21  C   UNL     1      11.477   6.768  21.588  0.00  0.00    +0.305 C 
BRANCH  21   3
ATOM      3  O   UNL     1      11.841   5.460  21.606  0.00  0.00    -0.481 OA
ATOM     29  H   UNL     1      12.790   5.342  21.390  0.00  0.00    +0.295 HD
ENDBRANCH  21   3
ENDBRANCH  15  21
ENDBRANCH   9  15
ENDBRANCH  11   8
BRANCH  11  14
ATOM     14  C   UNL     1      15.760   9.719  20.659  0.00  0.00    +0.085 C 
BRANCH  14   6
ATOM      6  N   UNL     1      16.685   8.771  21.281  0.00  0.00    -0.299 NA
ATOM      7  N   UNL     1      18.985   7.084  21.424  0.00  0.00    -0.327 N 
ATOM     16  C   UNL     1      18.028   9.354  21.383  0.00  0.00    +0.103 C 
ATOM     17  C   UNL     1      16.739   7.523  20.510  0.00  0.00    +0.103 C 
ATOM     18  C   UNL     1      18.992   8.393  22.084  0.00  0.00    +0.120 C 
ATOM     19  C   UNL     1      17.660   6.502  21.182  0.00  0.00    +0.120 C 
BRANCH   7  22
ATOM      1  F   UNL     1      23.248   3.636  22.126  0.00  0.00    -0.205 F 
ATOM     22  C   UNL     1      20.064   6.212  21.601  0.00  0.00    +0.030 A 
ATOM     24  C   UNL     1      20.809   6.255  22.779  0.00  0.00    +0.026 A 
ATOM     25  C   UNL     1      20.394   5.297  20.601  0.00  0.00    +0.026 A 
ATOM     26  C   UNL     1      21.884   5.385  22.957  0.00  0.00    +0.040 A 
ATOM     27  C   UNL     1      21.470   4.426  20.779  0.00  0.00    +0.040 A 
ATOM     28  C   UNL     1      22.214   4.470  21.956  0.00  0.00    +0.124 A 
ENDBRANCH   7  22
ENDBRANCH  14   6
ENDBRANCH  11  14
TORSDOF 7
ENDMDL
MODEL 2
REMARK VINA RESULT:      -6.6     14.616     18.682
REMARK  Name = 25313352
REMARK  8 active torsions:
REMARK  status: ('A' for Active; 'I' for Inactive)
REMARK    1  A    between atoms: O_3  and  C_21
REMARK    2  A    between atoms: N_6  and  C_14
REMARK    3  A    between atoms: N_7  and  C_22
REMARK    4  A    between atoms: C_8  and  C_11
REMARK    5  A    between atoms: C_9  and  C_15
REMARK    6  A    between atoms: C_11  and  C_14
REMARK    7  A    between atoms: C_15  and  C_21
REMARK    8  A    between atoms: C_20  and  C_23
REMARK                            x       y       z     vdW  Elec       q    Type
REMARK                         _______ _______ _______ _____ _____    ______ ____
ROOT
ATOM     11  C   UNL     1      10.686   5.942   5.664  0.00  0.00    +0.020 C 
ENDROOT
BRANCH  11   8
ATOM      2  O   UNL     1       8.797  10.282   5.147  0.00  0.00    -0.276 OA
ATOM      5  N   UNL     1      10.072   8.864   6.474  0.00  0.00    -0.301 N 
ATOM      8  C   UNL     1      11.033   6.632   6.989  0.00  0.00    +0.011 C 
ATOM      9  C   UNL     1       9.955   6.462   8.089  0.00  0.00    +0.006 C 
ATOM     10  C   UNL     1      11.311   8.128   6.756  0.00  0.00    +0.111 C 
ATOM     12  C   UNL     1       8.695   7.289   7.778  0.00  0.00    +0.023 C 
ATOM     13  C   UNL     1       9.044   8.750   7.509  0.00  0.00    +0.108 C 
ATOM     20  C   UNL     1       9.838   9.651   5.348  0.00  0.00    +0.212 C 
ATOM     23  C   UNL     1      10.945   9.715   4.326  0.00  0.00    +0.109 C 
BRANCH   9  15
ATOM     15  C   UNL     1       9.588   5.001   8.351  0.00  0.00    +0.124 C 
BRANCH  15  21
ATOM      4  O   UNL     1       8.413   4.271  10.358  0.00  0.00    -0.251 OA
ATOM     21  C   UNL     1       9.410   4.728   9.819  0.00  0.00    +0.305 C 
BRANCH  21   3
ATOM      3  O   UNL     1      10.541   5.069  10.489  0.00  0.00    -0.481 OA
ATOM     29  H   UNL     1      10.839   5.975  10.264  0.00  0.00    +0.295 HD
ENDBRANCH  21   3
ENDBRANCH  15  21
ENDBRANCH   9  15
ENDBRANCH  11   8
BRANCH  11  14
ATOM     14  C   UNL     1      11.763   6.200   4.620  0.00  0.00    +0.085 C 
BRANCH  14   6
ATOM      6  N   UNL     1      11.252   5.874   3.288  0.00  0.00    -0.299 NA
ATOM      7  N   UNL     1      11.320   4.707   0.682  0.00  0.00    -0.327 N 
ATOM     16  C   UNL     1      11.136   4.420   3.122  0.00  0.00    +0.103 C 
ATOM     17  C   UNL     1      12.130   6.427   2.250  0.00  0.00    +0.103 C 
ATOM     18  C   UNL     1      10.548   4.068   1.753  0.00  0.00    +0.120 C 
ATOM     19  C   UNL     1      11.575   6.142   0.853  0.00  0.00    +0.120 C 
BRANCH   7  22
ATOM      1  F   UNL     1      11.040   2.709  -4.465  0.00  0.00    -0.205 F 
ATOM     22  C   UNL     1      11.249   4.202  -0.620  0.00  0.00    +0.030 A 
ATOM     24  C   UNL     1      12.121   3.191  -1.024  0.00  0.00    +0.026 A 
ATOM     25  C   UNL     1      10.306   4.708  -1.515  0.00  0.00    +0.026 A 
ATOM     26  C   UNL     1      12.050   2.686  -2.322  0.00  0.00    +0.040 A 
ATOM     27  C   UNL     1      10.235   4.203  -2.814  0.00  0.00    +0.040 A 
ATOM     28  C   UNL     1      11.107   3.193  -3.217  0.00  0.00    +0.124 A 
ENDBRANCH   7  22
ENDBRANCH  14   6
ENDBRANCH  11  14
TORSDOF 7
ENDMDL
MODEL 3
REMARK VINA RESULT:      -6.3     27.431     30.637
REMARK  Name = 25313352
REMARK  8 active torsions:
REMARK  status: ('A' for Active; 'I' for Inactive)
REMARK    1  A    between atoms: O_3  and  C_21
REMARK    2  A    between atoms: N_6  and  C_14
REMARK    3  A    between atoms: N_7  and  C_22
REMARK    4  A    between atoms: C_8  and  C_11
REMARK    5  A    between atoms: C_9  and  C_15
REMARK    6  A    between atoms: C_11  and  C_14
REMARK    7  A    between atoms: C_15  and  C_21
REMARK    8  A    between atoms: C_20  and  C_23
REMARK                            x       y       z     vdW  Elec       q    Type
REMARK                         _______ _______ _______ _____ _____    ______ ____
ROOT
ATOM     11  C   UNL     1      -5.407 -10.212  15.290  0.00  0.00    +0.020 C 
ENDROOT
BRANCH  11   8
ATOM      2  O   UNL     1      -1.648  -9.870  12.387  0.00  0.00    -0.276 OA
ATOM      5  N   UNL     1      -2.931 -11.247  13.749  0.00  0.00    -0.301 N 
ATOM      8  C   UNL     1      -4.768 -11.602  15.384  0.00  0.00    +0.011 C 
ATOM      9  C   UNL     1      -3.700 -11.731  16.500  0.00  0.00    +0.006 C 
ATOM     10  C   UNL     1      -4.158 -12.003  14.029  0.00  0.00    +0.111 C 
ATOM     12  C   UNL     1      -2.415 -10.965  16.143  0.00  0.00    +0.023 C 
ATOM     13  C   UNL     1      -1.890 -11.372  14.769  0.00  0.00    +0.108 C 
ATOM     20  C   UNL     1      -2.699 -10.476  12.611  0.00  0.00    +0.212 C 
ATOM     23  C   UNL     1      -3.823 -10.395  11.609  0.00  0.00    +0.109 C 
BRANCH   9  15
ATOM     15  C   UNL     1      -4.215 -11.308  17.875  0.00  0.00    +0.124 C 
BRANCH  15  21
ATOM      4  O   UNL     1      -3.379 -12.165  19.999  0.00  0.00    -0.251 OA
ATOM     21  C   UNL     1      -3.925 -12.349  18.921  0.00  0.00    +0.305 C 
BRANCH  21   3
ATOM      3  O   UNL     1      -4.364 -13.561  18.495  0.00  0.00    -0.481 OA
ATOM     29  H   UNL     1      -3.700 -14.013  17.933  0.00  0.00    +0.295 HD
ENDBRANCH  21   3
ENDBRANCH  15  21
ENDBRANCH   9  15
ENDBRANCH  11   8
BRANCH  11  14
ATOM     14  C   UNL     1      -6.608 -10.228  14.355  0.00  0.00    +0.085 C 
BRANCH  14   6
ATOM      6  N   UNL     1      -7.804  -9.791  15.075  0.00  0.00    -0.299 NA
ATOM      7  N   UNL     1      -9.811  -9.900  17.105  0.00  0.00    -0.327 N 
ATOM     16  C   UNL     1      -7.474  -9.454  16.465  0.00  0.00    +0.103 C 
ATOM     17  C   UNL     1      -8.833 -10.838  15.046  0.00  0.00    +0.103 C 
ATOM     18  C   UNL     1      -8.707  -8.941  17.213  0.00  0.00    +0.120 C 
ATOM     19  C   UNL     1     -10.111 -10.371  15.747  0.00  0.00    +0.120 C 
BRANCH   7  22
ATOM      1  F   UNL     1     -13.939  -9.756  20.778  0.00  0.00    -0.205 F 
ATOM     22  C   UNL     1     -10.856  -9.863  18.034  0.00  0.00    +0.030 A 
ATOM     24  C   UNL     1     -10.599 -10.113  19.382  0.00  0.00    +0.026 A 
ATOM     25  C   UNL     1     -12.155  -9.577  17.613  0.00  0.00    +0.026 A 
ATOM     26  C   UNL     1     -11.640 -10.077  20.309  0.00  0.00    +0.040 A 
ATOM     27  C   UNL     1     -13.196  -9.540  18.540  0.00  0.00    +0.040 A 
ATOM     28  C   UNL     1     -12.939  -9.790  19.888  0.00  0.00    +0.124 A 
ENDBRANCH   7  22
ENDBRANCH  14   6
ENDBRANCH  11  14
TORSDOF 7
ENDMDL
MODEL 4
REMARK VINA RESULT:      -6.3     28.876     32.836
REMARK  Name = 25313352
REMARK  8 active torsions:
REMARK  status: ('A' for Active; 'I' for Inactive)
REMARK    1  A    between atoms: O_3  and  C_21
REMARK    2  A    between atoms: N_6  and  C_14
REMARK    3  A    between atoms: N_7  and  C_22
REMARK    4  A    between atoms: C_8  and  C_11
REMARK    5  A    between atoms: C_9  and  C_15
REMARK    6  A    between atoms: C_11  and  C_14
REMARK    7  A    between atoms: C_15  and  C_21
REMARK    8  A    between atoms: C_20  and  C_23
REMARK                            x       y       z     vdW  Elec       q    Type
REMARK                         _______ _______ _______ _____ _____    ______ ____
ROOT
ATOM     11  C   UNL     1     -16.173   3.428  26.305  0.00  0.00    +0.020 C 
ENDROOT
BRANCH  11   8
ATOM      2  O   UNL     1     -18.889  -0.440  25.721  0.00  0.00    -0.276 OA
ATOM      5  N   UNL     1     -18.416   1.423  27.028  0.00  0.00    -0.301 N 
ATOM      8  C   UNL     1     -17.031   3.411  27.576  0.00  0.00    +0.011 C 
ATOM      9  C   UNL     1     -16.407   2.608  28.745  0.00  0.00    +0.006 C 
ATOM     10  C   UNL     1     -18.438   2.872  27.264  0.00  0.00    +0.111 C 
ATOM     12  C   UNL     1     -16.450   1.093  28.477  0.00  0.00    +0.023 C 
ATOM     13  C   UNL     1     -17.862   0.633  28.127  0.00  0.00    +0.108 C 
ATOM     20  C   UNL     1     -18.895   0.783  25.885  0.00  0.00    +0.212 C 
ATOM     23  C   UNL     1     -19.448   1.668  24.796  0.00  0.00    +0.109 C 
BRANCH   9  15
ATOM     15  C   UNL     1     -14.986   3.053  29.090  0.00  0.00    +0.124 C 
BRANCH  15  21
ATOM      4  O   UNL     1     -14.928   2.038  31.305  0.00  0.00    -0.251 OA
ATOM     21  C   UNL     1     -14.409   2.245  30.219  0.00  0.00    +0.305 C 
BRANCH  21   3
ATOM      3  O   UNL     1     -13.192   1.760  29.859  0.00  0.00    -0.481 OA
ATOM     29  H   UNL     1     -12.880   1.063  30.475  0.00  0.00    +0.295 HD
ENDBRANCH  21   3
ENDBRANCH  15  21
ENDBRANCH   9  15
ENDBRANCH  11   8
BRANCH  11  14
ATOM     14  C   UNL     1     -16.840   4.251  25.211  0.00  0.00    +0.085 C 
BRANCH  14   6
ATOM      6  N   UNL     1     -15.834   5.042  24.501  0.00  0.00    -0.299 NA
ATOM      7  N   UNL     1     -14.480   6.092  22.216  0.00  0.00    -0.327 N 
ATOM     16  C   UNL     1     -16.478   6.055  23.656  0.00  0.00    +0.103 C 
ATOM     17  C   UNL     1     -14.983   4.173  23.679  0.00  0.00    +0.103 C 
ATOM     18  C   UNL     1     -15.436   6.926  22.951  0.00  0.00    +0.120 C 
ATOM     19  C   UNL     1     -13.891   4.982  22.976  0.00  0.00    +0.120 C 
BRANCH   7  22
ATOM      1  F   UNL     1     -11.507   8.293  18.109  0.00  0.00    -0.205 F 
ATOM     22  C   UNL     1     -13.728   6.649  21.177  0.00  0.00    +0.030 A 
ATOM     24  C   UNL     1     -12.339   6.526  21.178  0.00  0.00    +0.026 A 
ATOM     25  C   UNL     1     -14.367   7.327  20.139  0.00  0.00    +0.026 A 
ATOM     26  C   UNL     1     -11.588   7.081  20.142  0.00  0.00    +0.040 A 
ATOM     27  C   UNL     1     -13.616   7.883  19.102  0.00  0.00    +0.040 A 
ATOM     28  C   UNL     1     -12.228   7.759  19.104  0.00  0.00    +0.124 A 
ENDBRANCH   7  22
ENDBRANCH  14   6
ENDBRANCH  11  14
TORSDOF 7
ENDMDL
MODEL 5
REMARK VINA RESULT:      -6.2     27.860     29.384
REMARK  Name = 25313352
REMARK  8 active torsions:
REMARK  status: ('A' for Active; 'I' for Inactive)
REMARK    1  A    between atoms: O_3  and  C_21
REMARK    2  A    between atoms: N_6  and  C_14
REMARK    3  A    between atoms: N_7  and  C_22
REMARK    4  A    between atoms: C_8  and  C_11
REMARK    5  A    between atoms: C_9  and  C_15
REMARK    6  A    between atoms: C_11  and  C_14
REMARK    7  A    between atoms: C_15  and  C_21
REMARK    8  A    between atoms: C_20  and  C_23
REMARK                            x       y       z     vdW  Elec       q    Type
REMARK                         _______ _______ _______ _____ _____    ______ ____
ROOT
ATOM     11  C   UNL     1     -13.414   9.541  20.563  0.00  0.00    +0.020 C 
ENDROOT
BRANCH  11   8
ATOM      2  O   UNL     1      -9.975   9.402  17.272  0.00  0.00    -0.276 OA
ATOM      5  N   UNL     1     -11.956   8.471  18.052  0.00  0.00    -0.301 N 
ATOM      8  C   UNL     1     -13.772   8.299  19.738  0.00  0.00    +0.011 C 
ATOM      9  C   UNL     1     -13.119   6.991  20.254  0.00  0.00    +0.006 C 
ATOM     10  C   UNL     1     -13.409   8.515  18.259  0.00  0.00    +0.111 C 
ATOM     12  C   UNL     1     -11.607   6.966  19.974  0.00  0.00    +0.023 C 
ATOM     13  C   UNL     1     -11.312   7.236  18.500  0.00  0.00    +0.108 C 
ATOM     20  C   UNL     1     -11.193   9.474  17.458  0.00  0.00    +0.212 C 
ATOM     23  C   UNL     1     -11.929  10.717  17.026  0.00  0.00    +0.109 C 
BRANCH   9  15
ATOM     15  C   UNL     1     -13.396   6.724  21.734  0.00  0.00    +0.124 C 
BRANCH  15  21
ATOM      4  O   UNL     1     -14.748   4.697  21.803  0.00  0.00    -0.251 OA
ATOM     21  C   UNL     1     -13.686   5.271  21.991  0.00  0.00    +0.305 C 
BRANCH  21   3
ATOM      3  O   UNL     1     -12.575   4.662  22.478  0.00  0.00    -0.481 OA
ATOM     29  H   UNL     1     -11.807   4.767  21.877  0.00  0.00    +0.295 HD
ENDBRANCH  21   3
ENDBRANCH  15  21
ENDBRANCH   9  15
ENDBRANCH  11   8
BRANCH  11  14
ATOM     14  C   UNL     1     -14.635  10.071  21.302  0.00  0.00    +0.085 C 
BRANCH  14   6
ATOM      6  N   UNL     1     -14.223  10.685  22.565  0.00  0.00    -0.299 NA
ATOM      7  N   UNL     1     -12.897  10.811  25.092  0.00  0.00    -0.327 N 
ATOM     16  C   UNL     1     -12.760  10.792  22.632  0.00  0.00    +0.103 C 
ATOM     17  C   UNL     1     -14.719   9.902  23.703  0.00  0.00    +0.103 C 
ATOM     18  C   UNL     1     -12.319  11.483  23.924  0.00  0.00    +0.120 C 
ATOM     19  C   UNL     1     -14.343  10.564  25.030  0.00  0.00    +0.120 C 
BRANCH   7  22
ATOM      1  F   UNL     1     -10.585  11.480  30.068  0.00  0.00    -0.205 F 
ATOM     22  C   UNL     1     -12.312  10.980  26.351  0.00  0.00    +0.030 A 
ATOM     24  C   UNL     1     -12.368  12.221  26.984  0.00  0.00    +0.026 A 
ATOM     25  C   UNL     1     -11.673   9.907  26.973  0.00  0.00    +0.026 A 
ATOM     26  C   UNL     1     -11.785  12.390  28.240  0.00  0.00    +0.040 A 
ATOM     27  C   UNL     1     -11.090  10.076  28.230  0.00  0.00    +0.040 A 
ATOM     28  C   UNL     1     -11.146  11.317  28.863  0.00  0.00    +0.124 A 
ENDBRANCH   7  22
ENDBRANCH  14   6
ENDBRANCH  11  14
TORSDOF 7
ENDMDL
MODEL 6
REMARK VINA RESULT:      -6.1      4.862      9.256
REMARK  Name = 25313352
REMARK  8 active torsions:
REMARK  status: ('A' for Active; 'I' for Inactive)
REMARK    1  A    between atoms: O_3  and  C_21
REMARK    2  A    between atoms: N_6  and  C_14
REMARK    3  A    between atoms: N_7  and  C_22
REMARK    4  A    between atoms: C_8  and  C_11
REMARK    5  A    between atoms: C_9  and  C_15
REMARK    6  A    between atoms: C_11  and  C_14
REMARK    7  A    between atoms: C_15  and  C_21
REMARK    8  A    between atoms: C_20  and  C_23
REMARK                            x       y       z     vdW  Elec       q    Type
REMARK                         _______ _______ _______ _____ _____    ______ ____
ROOT
ATOM     11  C   UNL     1      20.284   5.748  21.712  0.00  0.00    +0.020 C 
ENDROOT
BRANCH  11   8
ATOM      2  O   UNL     1      20.539   9.087  25.098  0.00  0.00    -0.276 OA
ATOM      5  N   UNL     1      21.675   7.884  23.466  0.00  0.00    -0.301 N 
ATOM      8  C   UNL     1      21.779   6.089  21.752  0.00  0.00    +0.011 C 
ATOM      9  C   UNL     1      22.594   5.231  22.753  0.00  0.00    +0.006 C 
ATOM     10  C   UNL     1      21.978   7.583  22.061  0.00  0.00    +0.111 C 
ATOM     12  C   UNL     1      22.282   5.613  24.210  0.00  0.00    +0.023 C 
ATOM     13  C   UNL     1      22.451   7.113  24.437  0.00  0.00    +0.108 C 
ATOM     20  C   UNL     1      20.757   8.835  23.909  0.00  0.00    +0.212 C 
ATOM     23  C   UNL     1      19.995   9.585  22.846  0.00  0.00    +0.109 C 
BRANCH   9  15
ATOM     15  C   UNL     1      22.415   3.728  22.540  0.00  0.00    +0.124 C 
BRANCH  15  21
ATOM      4  O   UNL     1      24.065   3.420  20.772  0.00  0.00    -0.251 OA
ATOM     21  C   UNL     1      22.925   3.293  21.194  0.00  0.00    +0.305 C 
BRANCH  21   3
ATOM      3  O   UNL     1      21.917   2.723  20.485  0.00  0.00    -0.481 OA
ATOM     29  H   UNL     1      21.583   3.318  19.781  0.00  0.00    +0.295 HD
ENDBRANCH  21   3
ENDBRANCH  15  21
ENDBRANCH   9  15
ENDBRANCH  11   8
BRANCH  11  14
ATOM     14  C   UNL     1      19.796   5.616  20.276  0.00  0.00    +0.085 C 
BRANCH  14   6
ATOM      6  N   UNL     1      18.548   6.360  20.105  0.00  0.00    -0.299 NA
ATOM      7  N   UNL     1      15.744   6.840  20.357  0.00  0.00    -0.327 N 
ATOM     16  C   UNL     1      17.965   6.695  21.411  0.00  0.00    +0.103 C 
ATOM     17  C   UNL     1      17.588   5.579  19.316  0.00  0.00    +0.103 C 
ATOM     18  C   UNL     1      16.689   7.523  21.246  0.00  0.00    +0.120 C 
ATOM     19  C   UNL     1      16.299   6.370  19.082  0.00  0.00    +0.120 C 
BRANCH   7  22
ATOM      1  F   UNL     1      10.377   8.155  20.529  0.00  0.00    -0.205 F 
ATOM     22  C   UNL     1      14.386   7.173  20.400  0.00  0.00    +0.030 A 
ATOM     24  C   UNL     1      13.790   7.513  21.614  0.00  0.00    +0.026 A 
ATOM     25  C   UNL     1      13.628   7.165  19.229  0.00  0.00    +0.026 A 
ATOM     26  C   UNL     1      12.436   7.845  21.658  0.00  0.00    +0.040 A 
ATOM     27  C   UNL     1      12.273   7.498  19.273  0.00  0.00    +0.040 A 
ATOM     28  C   UNL     1      11.678   7.838  20.487  0.00  0.00    +0.124 A 
ENDBRANCH   7  22
ENDBRANCH  14   6
ENDBRANCH  11  14
TORSDOF 7
ENDMDL
MODEL 7
REMARK VINA RESULT:      -6.1     17.222     21.260
REMARK  Name = 25313352
REMARK  8 active torsions:
REMARK  status: ('A' for Active; 'I' for Inactive)
REMARK    1  A    between atoms: O_3  and  C_21
REMARK    2  A    between atoms: N_6  and  C_14
REMARK    3  A    between atoms: N_7  and  C_22
REMARK    4  A    between atoms: C_8  and  C_11
REMARK    5  A    between atoms: C_9  and  C_15
REMARK    6  A    between atoms: C_11  and  C_14
REMARK    7  A    between atoms: C_15  and  C_21
REMARK    8  A    between atoms: C_20  and  C_23
REMARK                            x       y       z     vdW  Elec       q    Type
REMARK                         _______ _______ _______ _____ _____    ______ ____
ROOT
ATOM     11  C   UNL     1      13.073   3.221  -0.742  0.00  0.00    +0.020 C 
ENDROOT
BRANCH  11   8
ATOM      2  O   UNL     1      16.335   4.946  -3.752  0.00  0.00    -0.276 OA
ATOM      5  N   UNL     1      14.117   4.984  -3.061  0.00  0.00    -0.301 N 
ATOM      8  C   UNL     1      12.248   4.121  -1.669  0.00  0.00    +0.011 C 
ATOM      9  C   UNL     1      11.698   3.397  -2.924  0.00  0.00    +0.006 C 
ATOM     10  C   UNL     1      13.073   5.349  -2.095  0.00  0.00    +0.111 C 
ATOM     12  C   UNL     1      12.817   3.077  -3.929  0.00  0.00    +0.023 C 
ATOM     13  C   UNL     1      13.627   4.326  -4.272  0.00  0.00    +0.108 C 
ATOM     20  C   UNL     1      15.479   5.240  -2.913  0.00  0.00    +0.212 C 
ATOM     23  C   UNL     1      15.905   5.919  -1.635  0.00  0.00    +0.109 C 
BRANCH   9  15
ATOM     15  C   UNL     1      10.901   2.136  -2.588  0.00  0.00    +0.124 C 
BRANCH  15  21
ATOM      4  O   UNL     1       9.358   2.743  -4.376  0.00  0.00    -0.251 OA
ATOM     21  C   UNL     1       9.691   1.993  -3.470  0.00  0.00    +0.305 C 
BRANCH  21   3
ATOM      3  O   UNL     1       8.994   0.883  -3.114  0.00  0.00    -0.481 OA
ATOM     29  H   UNL     1       8.204   0.751  -3.680  0.00  0.00    +0.295 HD
ENDBRANCH  21   3
ENDBRANCH  15  21
ENDBRANCH   9  15
ENDBRANCH  11   8
BRANCH  11  14
ATOM     14  C   UNL     1      13.698   4.032   0.385  0.00  0.00    +0.085 C 
BRANCH  14   6
ATOM      6  N   UNL     1      12.647   4.627   1.211  0.00  0.00    -0.299 NA
ATOM      7  N   UNL     1      11.379   5.422   3.644  0.00  0.00    -0.327 N 
ATOM     16  C   UNL     1      13.182   5.747   1.997  0.00  0.00    +0.103 C 
ATOM     17  C   UNL     1      12.065   3.621   2.107  0.00  0.00    +0.103 C 
ATOM     18  C   UNL     1      12.080   6.414   2.822  0.00  0.00    +0.120 C 
ATOM     19  C   UNL     1      10.926   4.218   2.936  0.00  0.00    +0.120 C 
BRANCH   7  22
ATOM      1  F   UNL     1       8.517   7.063   8.079  0.00  0.00    -0.205 F 
ATOM     22  C   UNL     1      10.655   5.837   4.766  0.00  0.00    +0.030 A 
ATOM     24  C   UNL     1      11.327   6.276   5.906  0.00  0.00    +0.026 A 
ATOM     25  C   UNL     1       9.260   5.813   4.745  0.00  0.00    +0.026 A 
ATOM     26  C   UNL     1      10.605   6.690   7.025  0.00  0.00    +0.040 A 
ATOM     27  C   UNL     1       8.538   6.228   5.864  0.00  0.00    +0.040 A 
ATOM     28  C   UNL     1       9.210   6.666   7.004  0.00  0.00    +0.124 A 
ENDBRANCH   7  22
ENDBRANCH  14   6
ENDBRANCH  11  14
TORSDOF 7
ENDMDL
MODEL 8
REMARK VINA RESULT:      -6.1      5.132      9.905
REMARK  Name = 25313352
REMARK  8 active torsions:
REMARK  status: ('A' for Active; 'I' for Inactive)
REMARK    1  A    between atoms: O_3  and  C_21
REMARK    2  A    between atoms: N_6  and  C_14
REMARK    3  A    between atoms: N_7  and  C_22
REMARK    4  A    between atoms: C_8  and  C_11
REMARK    5  A    between atoms: C_9  and  C_15
REMARK    6  A    between atoms: C_11  and  C_14
REMARK    7  A    between atoms: C_15  and  C_21
REMARK    8  A    between atoms: C_20  and  C_23
REMARK                            x       y       z     vdW  Elec       q    Type
REMARK                         _______ _______ _______ _____ _____    ______ ____
ROOT
ATOM     11  C   UNL     1      21.457   5.658  21.807  0.00  0.00    +0.020 C 
ENDROOT
BRANCH  11   8
ATOM      2  O   UNL     1      21.443   5.617  26.569  0.00  0.00    -0.276 OA
ATOM      5  N   UNL     1      22.713   5.474  24.629  0.00  0.00    -0.301 N 
ATOM      8  C   UNL     1      22.916   5.344  22.156  0.00  0.00    +0.011 C 
ATOM      9  C   UNL     1      23.218   3.830  22.297  0.00  0.00    +0.006 C 
ATOM     10  C   UNL     1      23.330   6.081  23.442  0.00  0.00    +0.111 C 
ATOM     12  C   UNL     1      22.595   3.247  23.578  0.00  0.00    +0.023 C 
ATOM     13  C   UNL     1      23.004   4.051  24.808  0.00  0.00    +0.108 C 
ATOM     20  C   UNL     1      21.928   6.145  25.564  0.00  0.00    +0.212 C 
ATOM     23  C   UNL     1      21.672   7.609  25.306  0.00  0.00    +0.109 C 
BRANCH   9  15
ATOM     15  C   UNL     1      22.794   3.016  21.074  0.00  0.00    +0.124 C 
BRANCH  15  21
ATOM      4  O   UNL     1      24.247   1.069  21.284  0.00  0.00    -0.251 OA
ATOM     21  C   UNL     1      23.864   2.045  20.656  0.00  0.00    +0.305 C 
BRANCH  21   3
ATOM      3  O   UNL     1      24.366   2.410  19.448  0.00  0.00    -0.481 OA
ATOM     29  H   UNL     1      25.238   2.850  19.532  0.00  0.00    +0.295 HD
ENDBRANCH  21   3
ENDBRANCH  15  21
ENDBRANCH   9  15
ENDBRANCH  11   8
BRANCH  11  14
ATOM     14  C   UNL     1      21.245   7.159  21.663  0.00  0.00    +0.085 C 
BRANCH  14   6
ATOM      6  N   UNL     1      19.916   7.422  21.110  0.00  0.00    -0.299 NA
ATOM      7  N   UNL     1      17.064   7.300  21.005  0.00  0.00    -0.327 N 
ATOM     16  C   UNL     1      19.104   8.188  22.064  0.00  0.00    +0.103 C 
ATOM     17  C   UNL     1      19.239   6.163  20.775  0.00  0.00    +0.103 C 
ATOM     18  C   UNL     1      17.731   8.519  21.475  0.00  0.00    +0.120 C 
ATOM     19  C   UNL     1      17.871   6.428  20.143  0.00  0.00    +0.120 C 
BRANCH   7  22
ATOM      1  F   UNL     1      11.577   7.255  20.343  0.00  0.00    -0.205 F 
ATOM     22  C   UNL     1      15.676   7.288  20.838  0.00  0.00    +0.030 A 
ATOM     24  C   UNL     1      14.843   7.649  21.896  0.00  0.00    +0.026 A 
ATOM     25  C   UNL     1      15.124   6.917  19.611  0.00  0.00    +0.026 A 
ATOM     26  C   UNL     1      13.458   7.638  21.729  0.00  0.00    +0.040 A 
ATOM     27  C   UNL     1      13.739   6.906  19.444  0.00  0.00    +0.040 A 
ATOM     28  C   UNL     1      12.906   7.267  20.503  0.00  0.00    +0.124 A 
ENDBRANCH   7  22
ENDBRANCH  14   6
ENDBRANCH  11  14
TORSDOF 7
ENDMDL
MODEL 9
REMARK VINA RESULT:      -5.9     30.730     32.092
REMARK  Name = 25313352
REMARK  8 active torsions:
REMARK  status: ('A' for Active; 'I' for Inactive)
REMARK    1  A    between atoms: O_3  and  C_21
REMARK    2  A    between atoms: N_6  and  C_14
REMARK    3  A    between atoms: N_7  and  C_22
REMARK    4  A    between atoms: C_8  and  C_11
REMARK    5  A    between atoms: C_9  and  C_15
REMARK    6  A    between atoms: C_11  and  C_14
REMARK    7  A    between atoms: C_15  and  C_21
REMARK    8  A    between atoms: C_20  and  C_23
REMARK                            x       y       z     vdW  Elec       q    Type
REMARK                         _______ _______ _______ _____ _____    ______ ____
ROOT
ATOM     11  C   UNL     1     -12.373  -5.655  10.895  0.00  0.00    +0.020 C 
ENDROOT
BRANCH  11   8
ATOM      2  O   UNL     1     -16.371  -3.083  10.611  0.00  0.00    -0.276 OA
ATOM      5  N   UNL     1     -14.240  -3.268  11.519  0.00  0.00    -0.301 N 
ATOM      8  C   UNL     1     -12.129  -4.521  11.898  0.00  0.00    +0.011 C 
ATOM      9  C   UNL     1     -12.616  -4.835  13.335  0.00  0.00    +0.006 C 
ATOM     10  C   UNL     1     -12.778  -3.217  11.399  0.00  0.00    +0.111 C 
ATOM     12  C   UNL     1     -14.152  -4.829  13.426  0.00  0.00    +0.023 C 
ATOM     13  C   UNL     1     -14.734  -3.531  12.871  0.00  0.00    +0.108 C 
ATOM     20  C   UNL     1     -15.144  -3.061  10.478  0.00  0.00    +0.212 C 
ATOM     23  C   UNL     1     -14.556  -2.798   9.115  0.00  0.00    +0.109 C 
BRANCH   9  15
ATOM     15  C   UNL     1     -12.050  -6.142  13.889  0.00  0.00    +0.124 C 
BRANCH  15  21
ATOM      4  O   UNL     1     -12.402  -6.134  16.302  0.00  0.00    -0.251 OA
ATOM     21  C   UNL     1     -11.662  -6.010  15.337  0.00  0.00    +0.305 C 
BRANCH  21   3
ATOM      3  O   UNL     1     -10.338  -5.724  15.432  0.00  0.00    -0.481 OA
ATOM     29  H   UNL     1      -9.793  -6.536  15.499  0.00  0.00    +0.295 HD
ENDBRANCH  21   3
ENDBRANCH  15  21
ENDBRANCH   9  15
ENDBRANCH  11   8
BRANCH  11  14
ATOM     14  C   UNL     1     -11.744  -5.333   9.547  0.00  0.00    +0.085 C 
BRANCH  14   6
ATOM      6  N   UNL     1     -10.479  -6.054   9.405  0.00  0.00    -0.299 NA
ATOM      7  N   UNL     1      -8.573  -7.747   8.116  0.00  0.00    -0.327 N 
ATOM     16  C   UNL     1      -9.749  -5.585   8.221  0.00  0.00    +0.103 C 
ATOM     17  C   UNL     1     -10.718  -7.499   9.304  0.00  0.00    +0.103 C 
ATOM     18  C   UNL     1      -8.397  -6.292   8.092  0.00  0.00    +0.120 C 
ATOM     19  C   UNL     1      -9.399  -8.269   9.212  0.00  0.00    +0.120 C 
BRANCH   7  22
ATOM      1  F   UNL     1      -4.627 -11.022   6.052  0.00  0.00    -0.205 F 
ATOM     22  C   UNL     1      -7.575  -8.576   7.594  0.00  0.00    +0.030 A 
ATOM     24  C   UNL     1      -6.521  -8.994   8.405  0.00  0.00    +0.026 A 
ATOM     25  C   UNL     1      -7.633  -8.984   6.261  0.00  0.00    +0.026 A 
ATOM     26  C   UNL     1      -5.525  -9.821   7.885  0.00  0.00    +0.040 A 
ATOM     27  C   UNL     1      -6.637  -9.811   5.740  0.00  0.00    +0.040 A 
ATOM     28  C   UNL     1      -5.584 -10.229   6.552  0.00  0.00    +0.124 A 
ENDBRANCH   7  22
ENDBRANCH  14   6
ENDBRANCH  11  14
TORSDOF 7
ENDMDL
MODEL 10
REMARK VINA RESULT:      -5.9     27.103     30.029
REMARK  Name = 25313352
REMARK  8 active torsions:
REMARK  status: ('A' for Active; 'I' for Inactive)
REMARK    1  A    between atoms: O_3  and  C_21
REMARK    2  A    between atoms: N_6  and  C_14
REMARK    3  A    between atoms: N_7  and  C_22
REMARK    4  A    between atoms: C_8  and  C_11
REMARK    5  A    between atoms: C_9  and  C_15
REMARK    6  A    between atoms: C_11  and  C_14
REMARK    7  A    between atoms: C_15  and  C_21
REMARK    8  A    between atoms: C_20  and  C_23
REMARK                            x       y       z     vdW  Elec       q    Type
REMARK                         _______ _______ _______ _____ _____    ______ ____
ROOT
ATOM     11  C   UNL     1      -5.316 -10.487  14.690  0.00  0.00    +0.020 C 
ENDROOT
BRANCH  11   8
ATOM      2  O   UNL     1      -1.431  -9.993  11.981  0.00  0.00    -0.276 OA
ATOM      5  N   UNL     1      -2.600 -11.336  13.474  0.00  0.00    -0.301 N 
ATOM      8  C   UNL     1      -4.488 -11.729  15.041  0.00  0.00    +0.011 C 
ATOM      9  C   UNL     1      -3.504 -11.517  16.220  0.00  0.00    +0.006 C 
ATOM     10  C   UNL     1      -3.720 -12.227  13.803  0.00  0.00    +0.111 C 
ATOM     12  C   UNL     1      -2.323 -10.619  15.816  0.00  0.00    +0.023 C 
ATOM     13  C   UNL     1      -1.636 -11.140  14.557  0.00  0.00    +0.108 C 
ATOM     20  C   UNL     1      -2.395 -10.718  12.242  0.00  0.00    +0.212 C 
ATOM     23  C   UNL     1      -3.435 -10.968  11.179  0.00  0.00    +0.109 C 
BRANCH   9  15
ATOM     15  C   UNL     1      -4.184 -10.979  17.479  0.00  0.00    +0.124 C 
BRANCH  15  21
ATOM      4  O   UNL     1      -5.290 -12.781  18.693  0.00  0.00    -0.251 OA
ATOM     21  C   UNL     1      -4.328 -12.044  18.531  0.00  0.00    +0.305 C 
BRANCH  21   3
ATOM      3  O   UNL     1      -3.212 -12.080  19.303  0.00  0.00    -0.481 OA
ATOM     29  H   UNL     1      -3.319 -11.556  20.124  0.00  0.00    +0.295 HD
ENDBRANCH  21   3
ENDBRANCH  15  21
ENDBRANCH   9  15
ENDBRANCH  11   8
BRANCH  11  14
ATOM     14  C   UNL     1      -6.781 -10.852  14.487  0.00  0.00    +0.085 C 
BRANCH  14   6
ATOM      6  N   UNL     1      -7.193 -10.514  13.124  0.00  0.00    -0.299 NA
ATOM      7  N   UNL     1      -6.841 -10.109  10.319  0.00  0.00    -0.327 N 
ATOM     16  C   UNL     1      -6.993 -11.659  12.227  0.00  0.00    +0.103 C 
ATOM     17  C   UNL     1      -6.438  -9.356  12.631  0.00  0.00    +0.103 C 
ATOM     18  C   UNL     1      -7.473 -11.337  10.810  0.00  0.00    +0.120 C 
ATOM     19  C   UNL     1      -6.900  -8.958  11.228  0.00  0.00    +0.120 C 
BRANCH   7  22
ATOM      1  F   UNL     1      -6.618  -9.123   4.884  0.00  0.00    -0.205 F 
ATOM     22  C   UNL     1      -6.785  -9.859   8.944  0.00  0.00    +0.030 A 
ATOM     24  C   UNL     1      -5.728 -10.364   8.187  0.00  0.00    +0.026 A 
ATOM     25  C   UNL     1      -7.786  -9.106   8.330  0.00  0.00    +0.026 A 
ATOM     26  C   UNL     1      -5.672 -10.116   6.815  0.00  0.00    +0.040 A 
ATOM     27  C   UNL     1      -7.729  -8.858   6.958  0.00  0.00    +0.040 A 
ATOM     28  C   UNL     1      -6.673  -9.363   6.201  0.00  0.00    +0.124 A 
ENDBRANCH   7  22
ENDBRANCH  14   6
ENDBRANCH  11  14
TORSDOF 7
ENDMDL
