MODEL 1
REMARK VINA RESULT:      -7.9      0.000      0.000
REMARK  Name = 7663763
REMARK  3 active torsions:
REMARK  status: ('A' for Active; 'I' for Inactive)
REMARK    1  A    between atoms: N_6  and  C_20
REMARK    2  A    between atoms: C_17  and  C_19
REMARK    3  A    between atoms: C_21  and  C_24
REMARK                            x       y       z     vdW  Elec       q    Type
REMARK                         _______ _______ _______ _____ _____    ______ ____
ROOT
ATOM      2  O   UNL     1      15.690   6.124  18.863  0.00  0.00    -0.267 OA
ATOM      3  O   UNL     1      14.998  10.867  16.709  0.00  0.00    -0.252 OA
ATOM      4  N   UNL     1      13.304  10.485  18.237  0.00  0.00    -0.284 N 
ATOM      5  N   UNL     1      14.028   7.634  19.487  0.00  0.00    -0.311 N 
ATOM      6  N   UNL     1      15.133  11.867  18.797  0.00  0.00    -0.269 N 
ATOM      7  C   UNL     1      12.121   8.305  17.915  0.00  0.00    +0.027 C 
ATOM      8  C   UNL     1      12.257   9.295  20.159  0.00  0.00    +0.054 C 
ATOM      9  C   UNL     1      11.335   8.552  19.197  0.00  0.00    +0.018 C 
ATOM     10  C   UNL     1      12.565   9.640  17.294  0.00  0.00    +0.114 C 
ATOM     11  C   UNL     1      13.311   7.390  18.227  0.00  0.00    +0.130 C 
ATOM     12  C   UNL     1      12.660  10.655  19.553  0.00  0.00    +0.119 C 
ATOM     13  C   UNL     1      13.501   8.481  20.464  0.00  0.00    +0.027 A 
ATOM     14  C   UNL     1      14.112   8.597  21.653  0.00  0.00    +0.022 A 
ATOM     15  C   UNL     1      15.208   6.893  19.697  0.00  0.00    +0.259 A 
ATOM     16  C   UNL     1      14.529  11.060  17.833  0.00  0.00    +0.306 C 
ATOM     17  C   UNL     1      15.886   7.066  21.030  0.00  0.00    +0.040 A 
ATOM     18  C   UNL     1      15.321   7.878  21.934  0.00  0.00    +0.015 A 
ATOM     33  H   UNL     1      14.540  12.329  19.477  0.00  0.00    +0.156 HD
ENDROOT
BRANCH   6  20
ATOM     20  C   UNL     1      16.512  12.169  18.917  0.00  0.00    +0.035 A 
ATOM     22  C   UNL     1      17.100  13.078  18.042  0.00  0.00    +0.023 A 
ATOM     23  C   UNL     1      17.271  11.556  19.910  0.00  0.00    +0.023 A 
ATOM     25  C   UNL     1      18.458  13.377  18.161  0.00  0.00    +0.002 A 
ATOM     26  C   UNL     1      18.628  11.855  20.030  0.00  0.00    +0.002 A 
ATOM     27  C   UNL     1      19.221  12.765  19.155  0.00  0.00    +0.000 A 
ENDBRANCH   6  20
BRANCH  17  19
ATOM     19  C   UNL     1      17.108   6.355  21.314  0.00  0.00    +0.014 C 
ATOM     21  C   UNL     1      18.320   6.901  21.157  0.00  0.00    +0.008 C 
BRANCH  21  24
ATOM      1 CL   UNL     1      23.484   4.118  22.236  0.00  0.00    -0.084 Cl
ATOM     24  C   UNL     1      19.594   6.213  21.424  0.00  0.00    -0.025 A 
ATOM     28  C   UNL     1      20.286   6.495  22.592  0.00  0.00    +0.009 A 
ATOM     29  C   UNL     1      20.078   5.298  20.502  0.00  0.00    +0.009 A 
ATOM     30  C   UNL     1      21.494   5.845  22.843  0.00  0.00    +0.020 A 
ATOM     31  C   UNL     1      21.286   4.648  20.755  0.00  0.00    +0.020 A 
ATOM     32  C   UNL     1      21.994   4.921  21.925  0.00  0.00    +0.041 A 
ENDBRANCH  21  24
ENDBRANCH  17  19
TORSDOF 3
ENDMDL
MODEL 2
REMARK VINA RESULT:      -7.8      1.937      2.653
REMARK  Name = 7663763
REMARK  3 active torsions:
REMARK  status: ('A' for Active; 'I' for Inactive)
REMARK    1  A    between atoms: N_6  and  C_20
REMARK    2  A    between atoms: C_17  and  C_19
REMARK    3  A    between atoms: C_21  and  C_24
REMARK                            x       y       z     vdW  Elec       q    Type
REMARK                         _______ _______ _______ _____ _____    ______ ____
ROOT
ATOM      2  O   UNL     1      15.410   5.916  20.085  0.00  0.00    -0.267 OA
ATOM      3  O   UNL     1      12.156   8.924  17.259  0.00  0.00    -0.252 OA
ATOM      4  N   UNL     1      11.977   9.517  19.489  0.00  0.00    -0.284 N 
ATOM      5  N   UNL     1      14.130   7.661  20.951  0.00  0.00    -0.311 N 
ATOM      6  N   UNL     1      13.240  10.838  17.995  0.00  0.00    -0.269 N 
ATOM      7  C   UNL     1      11.571   7.584  21.022  0.00  0.00    +0.027 C 
ATOM      8  C   UNL     1      12.755   9.569  21.855  0.00  0.00    +0.054 C 
ATOM      9  C   UNL     1      11.714   8.514  22.220  0.00  0.00    +0.018 C 
ATOM     10  C   UNL     1      11.112   8.371  19.783  0.00  0.00    +0.114 C 
ATOM     11  C   UNL     1      12.905   6.865  20.787  0.00  0.00    +0.130 C 
ATOM     12  C   UNL     1      12.267  10.388  20.642  0.00  0.00    +0.119 C 
ATOM     13  C   UNL     1      14.093   8.928  21.536  0.00  0.00    +0.027 A 
ATOM     14  C   UNL     1      15.236   9.587  21.783  0.00  0.00    +0.022 A 
ATOM     15  C   UNL     1      15.341   7.040  20.586  0.00  0.00    +0.259 A 
ATOM     16  C   UNL     1      12.448   9.703  18.170  0.00  0.00    +0.306 C 
ATOM     17  C   UNL     1      16.604   7.816  20.850  0.00  0.00    +0.040 A 
ATOM     18  C   UNL     1      16.505   9.019  21.433  0.00  0.00    +0.015 A 
ATOM     33  H   UNL     1      13.088  11.629  18.610  0.00  0.00    +0.156 HD
ENDROOT
BRANCH   6  20
ATOM     20  C   UNL     1      14.228  11.046  17.001  0.00  0.00    +0.035 A 
ATOM     22  C   UNL     1      14.184  10.315  15.818  0.00  0.00    +0.023 A 
ATOM     23  C   UNL     1      15.236  11.982  17.214  0.00  0.00    +0.023 A 
ATOM     25  C   UNL     1      15.156  10.522  14.839  0.00  0.00    +0.002 A 
ATOM     26  C   UNL     1      16.208  12.189  16.235  0.00  0.00    +0.002 A 
ATOM     27  C   UNL     1      16.168  11.458  15.048  0.00  0.00    +0.000 A 
ENDBRANCH   6  20
BRANCH  17  19
ATOM     19  C   UNL     1      17.882   7.255  20.490  0.00  0.00    +0.014 C 
ATOM     21  C   UNL     1      18.836   6.982  21.389  0.00  0.00    +0.008 C 
BRANCH  21  24
ATOM      1 CL   UNL     1      24.193   4.703  20.089  0.00  0.00    -0.084 Cl
ATOM     24  C   UNL     1      20.159   6.419  21.069  0.00  0.00    -0.025 A 
ATOM     28  C   UNL     1      21.250   7.267  20.964  0.00  0.00    +0.009 A 
ATOM     29  C   UNL     1      20.287   5.053  20.877  0.00  0.00    +0.009 A 
ATOM     30  C   UNL     1      22.502   6.734  20.659  0.00  0.00    +0.020 A 
ATOM     31  C   UNL     1      21.540   4.520  20.573  0.00  0.00    +0.020 A 
ATOM     32  C   UNL     1      22.647   5.360  20.464  0.00  0.00    +0.041 A 
ENDBRANCH  21  24
ENDBRANCH  17  19
TORSDOF 3
ENDMDL
MODEL 3
REMARK VINA RESULT:      -7.7     13.721     16.102
REMARK  Name = 7663763
REMARK  3 active torsions:
REMARK  status: ('A' for Active; 'I' for Inactive)
REMARK    1  A    between atoms: N_6  and  C_20
REMARK    2  A    between atoms: C_17  and  C_19
REMARK    3  A    between atoms: C_21  and  C_24
REMARK                            x       y       z     vdW  Elec       q    Type
REMARK                         _______ _______ _______ _____ _____    ______ ____
ROOT
ATOM      2  O   UNL     1      13.899   6.206   7.683  0.00  0.00    -0.267 OA
ATOM      3  O   UNL     1      10.543   3.805   4.429  0.00  0.00    -0.252 OA
ATOM      4  N   UNL     1       9.704   5.896   4.960  0.00  0.00    -0.284 N 
ATOM      5  N   UNL     1      11.970   7.182   6.811  0.00  0.00    -0.311 N 
ATOM      6  N   UNL     1      10.766   5.522   2.886  0.00  0.00    -0.269 N 
ATOM      7  C   UNL     1       9.622   6.360   7.416  0.00  0.00    +0.027 C 
ATOM      8  C   UNL     1       9.893   8.221   5.835  0.00  0.00    +0.054 C 
ATOM      9  C   UNL     1       9.194   7.793   7.122  0.00  0.00    +0.018 C 
ATOM     10  C   UNL     1       9.212   5.432   6.261  0.00  0.00    +0.114 C 
ATOM     11  C   UNL     1      11.133   6.333   7.671  0.00  0.00    +0.130 C 
ATOM     12  C   UNL     1       9.442   7.317   4.669  0.00  0.00    +0.119 C 
ATOM     13  C   UNL     1      11.402   8.152   5.983  0.00  0.00    +0.027 A 
ATOM     14  C   UNL     1      12.189   8.994   5.297  0.00  0.00    +0.022 A 
ATOM     15  C   UNL     1      13.366   7.039   6.947  0.00  0.00    +0.259 A 
ATOM     16  C   UNL     1      10.364   4.983   4.108  0.00  0.00    +0.306 C 
ATOM     17  C   UNL     1      14.223   7.980   6.143  0.00  0.00    +0.040 A 
ATOM     18  C   UNL     1      13.618   8.902   5.381  0.00  0.00    +0.015 A 
ATOM     33  H   UNL     1      10.238   6.300   2.507  0.00  0.00    +0.156 HD
ENDROOT
BRANCH   6  20
ATOM     20  C   UNL     1      11.824   5.071   2.059  0.00  0.00    +0.035 A 
ATOM     22  C   UNL     1      13.069   5.693   2.127  0.00  0.00    +0.023 A 
ATOM     23  C   UNL     1      11.615   4.009   1.185  0.00  0.00    +0.023 A 
ATOM     25  C   UNL     1      14.111   5.248   1.314  0.00  0.00    +0.002 A 
ATOM     26  C   UNL     1      12.658   3.564   0.372  0.00  0.00    +0.002 A 
ATOM     27  C   UNL     1      13.905   4.184   0.436  0.00  0.00    +0.000 A 
ENDBRANCH   6  20
BRANCH  17  19
ATOM     19  C   UNL     1      15.659   7.885   6.215  0.00  0.00    +0.014 C 
ATOM     21  C   UNL     1      16.473   8.509   5.355  0.00  0.00    +0.008 C 
BRANCH  21  24
ATOM      1 CL   UNL     1      22.430   8.210   5.464  0.00  0.00    -0.084 Cl
ATOM     24  C   UNL     1      17.944   8.434   5.382  0.00  0.00    -0.025 A 
ATOM     28  C   UNL     1      18.617   8.722   6.560  0.00  0.00    +0.009 A 
ATOM     29  C   UNL     1      18.627   8.078   4.230  0.00  0.00    +0.009 A 
ATOM     30  C   UNL     1      20.009   8.653   6.585  0.00  0.00    +0.020 A 
ATOM     31  C   UNL     1      20.020   8.009   4.256  0.00  0.00    +0.020 A 
ATOM     32  C   UNL     1      20.711   8.296   5.433  0.00  0.00    +0.041 A 
ENDBRANCH  21  24
ENDBRANCH  17  19
TORSDOF 3
ENDMDL
MODEL 4
REMARK VINA RESULT:      -7.5     15.451     18.305
REMARK  Name = 7663763
REMARK  3 active torsions:
REMARK  status: ('A' for Active; 'I' for Inactive)
REMARK    1  A    between atoms: N_6  and  C_20
REMARK    2  A    between atoms: C_17  and  C_19
REMARK    3  A    between atoms: C_21  and  C_24
REMARK                            x       y       z     vdW  Elec       q    Type
REMARK                         _______ _______ _______ _____ _____    ______ ____
ROOT
ATOM      2  O   UNL     1       9.258   7.761   2.419  0.00  0.00    -0.267 OA
ATOM      3  O   UNL     1      12.285   9.891   6.151  0.00  0.00    -0.252 OA
ATOM      4  N   UNL     1      11.016   8.199   7.091  0.00  0.00    -0.284 N 
ATOM      5  N   UNL     1       9.391   6.994   4.616  0.00  0.00    -0.311 N 
ATOM      6  N   UNL     1      13.285   7.837   6.552  0.00  0.00    -0.269 N 
ATOM      7  C   UNL     1       8.569   8.380   6.607  0.00  0.00    +0.027 C 
ATOM      8  C   UNL     1       9.573   6.171   6.991  0.00  0.00    +0.054 C 
ATOM      9  C   UNL     1       8.346   7.030   7.277  0.00  0.00    +0.018 C 
ATOM     10  C   UNL     1       9.829   9.056   7.172  0.00  0.00    +0.114 C 
ATOM     11  C   UNL     1       8.655   8.175   5.090  0.00  0.00    +0.130 C 
ATOM     12  C   UNL     1      10.828   6.829   7.601  0.00  0.00    +0.119 C 
ATOM     13  C   UNL     1       9.771   5.980   5.498  0.00  0.00    +0.027 A 
ATOM     14  C   UNL     1      10.336   4.858   5.027  0.00  0.00    +0.022 A 
ATOM     15  C   UNL     1       9.598   6.893   3.226  0.00  0.00    +0.259 A 
ATOM     16  C   UNL     1      12.212   8.728   6.557  0.00  0.00    +0.306 C 
ATOM     17  C   UNL     1      10.260   5.635   2.731  0.00  0.00    +0.040 A 
ATOM     18  C   UNL     1      10.583   4.689   3.624  0.00  0.00    +0.015 A 
ATOM     33  H   UNL     1      13.307   7.108   7.256  0.00  0.00    +0.156 HD
ENDROOT
BRANCH   6  20
ATOM     20  C   UNL     1      14.408   7.856   5.689  0.00  0.00    +0.035 A 
ATOM     22  C   UNL     1      14.301   7.337   4.401  0.00  0.00    +0.023 A 
ATOM     23  C   UNL     1      15.613   8.394   6.133  0.00  0.00    +0.023 A 
ATOM     25  C   UNL     1      15.406   7.357   3.551  0.00  0.00    +0.002 A 
ATOM     26  C   UNL     1      16.718   8.414   5.283  0.00  0.00    +0.002 A 
ATOM     27  C   UNL     1      16.615   7.895   3.992  0.00  0.00    +0.000 A 
ENDBRANCH   6  20
BRANCH  17  19
ATOM     19  C   UNL     1      10.520   5.464   1.324  0.00  0.00    +0.014 C 
ATOM     21  C   UNL     1      11.010   4.331   0.808  0.00  0.00    +0.008 C 
BRANCH  21  24
ATOM      1 CL   UNL     1      12.187   3.444  -4.973  0.00  0.00    -0.084 Cl
ATOM     24  C   UNL     1      11.302   4.112  -0.620  0.00  0.00    -0.025 A 
ATOM     28  C   UNL     1      10.505   4.722  -1.576  0.00  0.00    +0.009 A 
ATOM     29  C   UNL     1      12.366   3.301  -0.979  0.00  0.00    +0.009 A 
ATOM     30  C   UNL     1      10.780   4.514  -2.927  0.00  0.00    +0.020 A 
ATOM     31  C   UNL     1      12.641   3.093  -2.331  0.00  0.00    +0.020 A 
ATOM     32  C   UNL     1      11.848   3.699  -3.305  0.00  0.00    +0.041 A 
ENDBRANCH  21  24
ENDBRANCH  17  19
TORSDOF 3
ENDMDL
MODEL 5
REMARK VINA RESULT:      -7.1     23.401     25.932
REMARK  Name = 7663763
REMARK  3 active torsions:
REMARK  status: ('A' for Active; 'I' for Inactive)
REMARK    1  A    between atoms: N_6  and  C_20
REMARK    2  A    between atoms: C_17  and  C_19
REMARK    3  A    between atoms: C_21  and  C_24
REMARK                            x       y       z     vdW  Elec       q    Type
REMARK                         _______ _______ _______ _____ _____    ______ ____
ROOT
ATOM      2  O   UNL     1       9.010 -10.609  32.171  0.00  0.00    -0.267 OA
ATOM      3  O   UNL     1       7.081  -9.623  36.959  0.00  0.00    -0.252 OA
ATOM      4  N   UNL     1       7.438  -7.614  35.868  0.00  0.00    -0.284 N 
ATOM      5  N   UNL     1       8.466  -8.488  32.970  0.00  0.00    -0.311 N 
ATOM      6  N   UNL     1       5.265  -8.518  36.031  0.00  0.00    -0.269 N 
ATOM      7  C   UNL     1       9.733  -7.381  34.901  0.00  0.00    +0.027 C 
ATOM      8  C   UNL     1       7.846  -6.210  33.851  0.00  0.00    +0.054 C 
ATOM      9  C   UNL     1       9.314  -6.072  34.243  0.00  0.00    +0.018 C 
ATOM     10  C   UNL     1       8.877  -7.652  36.149  0.00  0.00    +0.114 C 
ATOM     11  C   UNL     1       9.627  -8.513  33.872  0.00  0.00    +0.130 C 
ATOM     12  C   UNL     1       6.985  -6.433  35.112  0.00  0.00    +0.119 C 
ATOM     13  C   UNL     1       7.645  -7.362  32.883  0.00  0.00    +0.027 A 
ATOM     14  C   UNL     1       6.663  -7.316  31.970  0.00  0.00    +0.022 A 
ATOM     15  C   UNL     1       8.292  -9.608  32.132  0.00  0.00    +0.259 A 
ATOM     16  C   UNL     1       6.620  -8.668  36.329  0.00  0.00    +0.306 C 
ATOM     17  C   UNL     1       7.164  -9.537  31.137  0.00  0.00    +0.040 A 
ATOM     18  C   UNL     1       6.423  -8.422  31.088  0.00  0.00    +0.015 A 
ATOM     33  H   UNL     1       4.897  -7.579  35.928  0.00  0.00    +0.156 HD
ENDROOT
BRANCH   6  20
ATOM     20  C   UNL     1       4.299  -9.546  35.900  0.00  0.00    +0.035 A 
ATOM     22  C   UNL     1       4.483 -10.552  34.955  0.00  0.00    +0.023 A 
ATOM     23  C   UNL     1       3.173  -9.546  36.718  0.00  0.00    +0.023 A 
ATOM     25  C   UNL     1       3.534 -11.565  34.827  0.00  0.00    +0.002 A 
ATOM     26  C   UNL     1       2.223 -10.560  36.589  0.00  0.00    +0.002 A 
ATOM     27  C   UNL     1       2.403 -11.569  35.644  0.00  0.00    +0.000 A 
ENDBRANCH   6  20
BRANCH  17  19
ATOM     19  C   UNL     1       6.912 -10.650  30.256  0.00  0.00    +0.014 C 
ATOM     21  C   UNL     1       6.415 -11.817  30.683  0.00  0.00    +0.008 C 
BRANCH  21  24
ATOM      1 CL   UNL     1       5.341 -16.542  27.204  0.00  0.00    -0.084 Cl
ATOM     24  C   UNL     1       6.150 -12.985  29.825  0.00  0.00    -0.025 A 
ATOM     28  C   UNL     1       7.135 -13.424  28.955  0.00  0.00    +0.009 A 
ATOM     29  C   UNL     1       4.921 -13.620  29.903  0.00  0.00    +0.009 A 
ATOM     30  C   UNL     1       6.883 -14.528  28.140  0.00  0.00    +0.020 A 
ATOM     31  C   UNL     1       4.670 -14.725  29.089  0.00  0.00    +0.020 A 
ATOM     32  C   UNL     1       5.651 -15.178  28.208  0.00  0.00    +0.041 A 
ENDBRANCH  21  24
ENDBRANCH  17  19
TORSDOF 3
ENDMDL
MODEL 6
REMARK VINA RESULT:      -7.0     28.327     31.559
REMARK  Name = 7663763
REMARK  3 active torsions:
REMARK  status: ('A' for Active; 'I' for Inactive)
REMARK    1  A    between atoms: N_6  and  C_20
REMARK    2  A    between atoms: C_17  and  C_19
REMARK    3  A    between atoms: C_21  and  C_24
REMARK                            x       y       z     vdW  Elec       q    Type
REMARK                         _______ _______ _______ _____ _____    ______ ____
ROOT
ATOM      2  O   UNL     1      -6.578 -10.024  14.105  0.00  0.00    -0.267 OA
ATOM      3  O   UNL     1      -4.490 -14.614  12.623  0.00  0.00    -0.252 OA
ATOM      4  N   UNL     1      -2.778 -13.116  13.050  0.00  0.00    -0.284 N 
ATOM      5  N   UNL     1      -4.294 -10.486  14.053  0.00  0.00    -0.311 N 
ATOM      6  N   UNL     1      -3.343 -14.773  14.632  0.00  0.00    -0.269 N 
ATOM      7  C   UNL     1      -3.030 -10.926  11.870  0.00  0.00    +0.027 C 
ATOM      8  C   UNL     1      -1.832 -11.021  14.012  0.00  0.00    +0.054 C 
ATOM      9  C   UNL     1      -1.820 -10.390  12.623  0.00  0.00    +0.018 C 
ATOM     10  C   UNL     1      -2.953 -12.457  11.752  0.00  0.00    +0.114 C 
ATOM     11  C   UNL     1      -4.306 -10.465  12.584  0.00  0.00    +0.130 C 
ATOM     12  C   UNL     1      -1.706 -12.555  13.891  0.00  0.00    +0.119 C 
ATOM     13  C   UNL     1      -3.104 -10.670  14.762  0.00  0.00    +0.027 A 
ATOM     14  C   UNL     1      -3.097 -10.568  16.100  0.00  0.00    +0.022 A 
ATOM     15  C   UNL     1      -5.514 -10.210  14.701  0.00  0.00    +0.259 A 
ATOM     16  C   UNL     1      -3.613 -14.204  13.388  0.00  0.00    +0.306 C 
ATOM     17  C   UNL     1      -5.479 -10.129  16.204  0.00  0.00    +0.040 A 
ATOM     18  C   UNL     1      -4.303 -10.295  16.825  0.00  0.00    +0.015 A 
ATOM     33  H   UNL     1      -2.399 -14.709  14.995  0.00  0.00    +0.156 HD
ENDROOT
BRANCH   6  20
ATOM     20  C   UNL     1      -4.242 -15.496  15.455  0.00  0.00    +0.035 A 
ATOM     22  C   UNL     1      -5.518 -14.993  15.694  0.00  0.00    +0.023 A 
ATOM     23  C   UNL     1      -3.844 -16.705  16.019  0.00  0.00    +0.023 A 
ATOM     25  C   UNL     1      -6.403 -15.706  16.503  0.00  0.00    +0.002 A 
ATOM     26  C   UNL     1      -4.730 -17.417  16.828  0.00  0.00    +0.002 A 
ATOM     27  C   UNL     1      -6.009 -16.917  17.070  0.00  0.00    +0.000 A 
ENDBRANCH   6  20
BRANCH  17  19
ATOM     19  C   UNL     1      -6.691  -9.866  16.939  0.00  0.00    +0.014 C 
ATOM     21  C   UNL     1      -7.457 -10.837  17.449  0.00  0.00    +0.008 C 
BRANCH  21  24
ATOM      1 CL   UNL     1     -12.519  -9.957  20.480  0.00  0.00    -0.084 Cl
ATOM     24  C   UNL     1      -8.706 -10.619  18.198  0.00  0.00    -0.025 A 
ATOM     28  C   UNL     1      -8.916 -11.307  19.383  0.00  0.00    +0.009 A 
ATOM     29  C   UNL     1      -9.648  -9.731  17.703  0.00  0.00    +0.009 A 
ATOM     30  C   UNL     1     -10.100 -11.102  20.091  0.00  0.00    +0.020 A 
ATOM     31  C   UNL     1     -10.832  -9.526  18.412  0.00  0.00    +0.020 A 
ATOM     32  C   UNL     1     -11.058 -10.211  19.606  0.00  0.00    +0.041 A 
ENDBRANCH  21  24
ENDBRANCH  17  19
TORSDOF 3
ENDMDL
MODEL 7
REMARK VINA RESULT:      -7.0     27.311     30.538
REMARK  Name = 7663763
REMARK  3 active torsions:
REMARK  status: ('A' for Active; 'I' for Inactive)
REMARK    1  A    between atoms: N_6  and  C_20
REMARK    2  A    between atoms: C_17  and  C_19
REMARK    3  A    between atoms: C_21  and  C_24
REMARK                            x       y       z     vdW  Elec       q    Type
REMARK                         _______ _______ _______ _____ _____    ______ ____
ROOT
ATOM      2  O   UNL     1     -12.266   9.967  20.750  0.00  0.00    -0.267 OA
ATOM      3  O   UNL     1     -14.584  11.822  16.413  0.00  0.00    -0.252 OA
ATOM      4  N   UNL     1     -12.384  11.299  15.921  0.00  0.00    -0.284 N 
ATOM      5  N   UNL     1     -11.256  10.080  18.652  0.00  0.00    -0.311 N 
ATOM      6  N   UNL     1     -14.130   9.844  15.290  0.00  0.00    -0.269 N 
ATOM      7  C   UNL     1     -10.726  12.305  17.501  0.00  0.00    +0.027 C 
ATOM      8  C   UNL     1     -10.198  10.190  16.368  0.00  0.00    +0.054 C 
ATOM      9  C   UNL     1      -9.611  11.526  16.814  0.00  0.00    +0.018 C 
ATOM     10  C   UNL     1     -11.893  12.541  16.528  0.00  0.00    +0.114 C 
ATOM     11  C   UNL     1     -11.166  11.543  18.756  0.00  0.00    +0.130 C 
ATOM     12  C   UNL     1     -11.337  10.430  15.354  0.00  0.00    +0.119 C 
ATOM     13  C   UNL     1     -10.725   9.401  17.553  0.00  0.00    +0.027 A 
ATOM     14  C   UNL     1     -10.713   8.060  17.534  0.00  0.00    +0.022 A 
ATOM     15  C   UNL     1     -11.806   9.399  19.757  0.00  0.00    +0.259 A 
ATOM     16  C   UNL     1     -13.771  11.037  15.916  0.00  0.00    +0.306 C 
ATOM     17  C   UNL     1     -11.803   7.895  19.693  0.00  0.00    +0.040 A 
ATOM     18  C   UNL     1     -11.261   7.302  18.621  0.00  0.00    +0.015 A 
ATOM     33  H   UNL     1     -13.531   9.487  14.555  0.00  0.00    +0.156 HD
ENDROOT
BRANCH   6  20
ATOM     20  C   UNL     1     -15.292   9.068  15.529  0.00  0.00    +0.035 A 
ATOM     22  C   UNL     1     -16.417   9.242  14.727  0.00  0.00    +0.023 A 
ATOM     23  C   UNL     1     -15.302   8.137  16.563  0.00  0.00    +0.023 A 
ATOM     25  C   UNL     1     -17.560   8.478  14.961  0.00  0.00    +0.002 A 
ATOM     26  C   UNL     1     -16.445   7.373  16.797  0.00  0.00    +0.002 A 
ATOM     27  C   UNL     1     -17.574   7.544  15.996  0.00  0.00    +0.000 A 
ENDBRANCH   6  20
BRANCH  17  19
ATOM     19  C   UNL     1     -12.363   7.128  20.778  0.00  0.00    +0.014 C 
ATOM     21  C   UNL     1     -13.679   6.940  20.932  0.00  0.00    +0.008 C 
BRANCH  21  24
ATOM      1 CL   UNL     1     -16.187   3.835  25.365  0.00  0.00    -0.084 Cl
ATOM     24  C   UNL     1     -14.298   6.174  22.027  0.00  0.00    -0.025 A 
ATOM     28  C   UNL     1     -13.602   5.119  22.594  0.00  0.00    +0.009 A 
ATOM     29  C   UNL     1     -15.564   6.523  22.469  0.00  0.00    +0.009 A 
ATOM     30  C   UNL     1     -14.189   4.392  23.630  0.00  0.00    +0.020 A 
ATOM     31  C   UNL     1     -16.151   5.797  23.505  0.00  0.00    +0.020 A 
ATOM     32  C   UNL     1     -15.463   4.731  24.086  0.00  0.00    +0.041 A 
ENDBRANCH  21  24
ENDBRANCH  17  19
TORSDOF 3
ENDMDL
MODEL 8
REMARK VINA RESULT:      -6.8     28.944     31.771
REMARK  Name = 7663763
REMARK  3 active torsions:
REMARK  status: ('A' for Active; 'I' for Inactive)
REMARK    1  A    between atoms: N_6  and  C_20
REMARK    2  A    between atoms: C_17  and  C_19
REMARK    3  A    between atoms: C_21  and  C_24
REMARK                            x       y       z     vdW  Elec       q    Type
REMARK                         _______ _______ _______ _____ _____    ______ ____
ROOT
ATOM      2  O   UNL     1      -8.260  -8.399  17.046  0.00  0.00    -0.267 OA
ATOM      3  O   UNL     1      -3.383 -10.292  16.540  0.00  0.00    -0.252 OA
ATOM      4  N   UNL     1      -4.773 -11.990  17.276  0.00  0.00    -0.284 N 
ATOM      5  N   UNL     1      -7.664 -10.629  17.366  0.00  0.00    -0.311 N 
ATOM      6  N   UNL     1      -4.124 -11.870  15.011  0.00  0.00    -0.269 N 
ATOM      7  C   UNL     1      -6.139 -11.382  19.281  0.00  0.00    +0.027 C 
ATOM      8  C   UNL     1      -6.996 -13.038  17.681  0.00  0.00    +0.054 C 
ATOM      9  C   UNL     1      -6.881 -12.708  19.166  0.00  0.00    +0.018 C 
ATOM     10  C   UNL     1      -4.739 -11.497  18.657  0.00  0.00    +0.114 C 
ATOM     11  C   UNL     1      -6.978 -10.283  18.619  0.00  0.00    +0.130 C 
ATOM     12  C   UNL     1      -5.589 -13.200  17.070  0.00  0.00    +0.119 C 
ATOM     13  C   UNL     1      -7.756 -11.955  16.937  0.00  0.00    +0.027 A 
ATOM     14  C   UNL     1      -8.487 -12.261  15.854  0.00  0.00    +0.022 A 
ATOM     15  C   UNL     1      -8.306  -9.576  16.684  0.00  0.00    +0.259 A 
ATOM     16  C   UNL     1      -4.045 -11.301  16.282  0.00  0.00    +0.306 C 
ATOM     17  C   UNL     1      -9.095  -9.948  15.457  0.00  0.00    +0.040 A 
ATOM     18  C   UNL     1      -9.162 -11.240  15.107  0.00  0.00    +0.015 A 
ATOM     33  H   UNL     1      -4.285 -12.869  14.941  0.00  0.00    +0.156 HD
ENDROOT
BRANCH   6  20
ATOM     20  C   UNL     1      -3.953 -11.213  13.767  0.00  0.00    +0.035 A 
ATOM     22  C   UNL     1      -2.706 -11.219  13.147  0.00  0.00    +0.023 A 
ATOM     23  C   UNL     1      -5.032 -10.568  13.171  0.00  0.00    +0.023 A 
ATOM     25  C   UNL     1      -2.538 -10.574  11.922  0.00  0.00    +0.002 A 
ATOM     26  C   UNL     1      -4.864  -9.922  11.946  0.00  0.00    +0.002 A 
ATOM     27  C   UNL     1      -3.617  -9.925  11.322  0.00  0.00    +0.000 A 
ENDBRANCH   6  20
BRANCH  17  19
ATOM     19  C   UNL     1      -9.766  -8.924  14.696  0.00  0.00    +0.014 C 
ATOM     21  C   UNL     1     -10.984  -8.466  15.010  0.00  0.00    +0.008 C 
BRANCH  21  24
ATOM      1 CL   UNL     1     -13.943  -4.272  11.971  0.00  0.00    -0.084 Cl
ATOM     24  C   UNL     1     -11.714  -7.430  14.259  0.00  0.00    -0.025 A 
ATOM     28  C   UNL     1     -11.769  -6.140  14.761  0.00  0.00    +0.009 A 
ATOM     29  C   UNL     1     -12.332  -7.766  13.065  0.00  0.00    +0.009 A 
ATOM     30  C   UNL     1     -12.462  -5.160  14.051  0.00  0.00    +0.020 A 
ATOM     31  C   UNL     1     -13.024  -6.785  12.354  0.00  0.00    +0.020 A 
ATOM     32  C   UNL     1     -13.089  -5.482  12.848  0.00  0.00    +0.041 A 
ENDBRANCH  21  24
ENDBRANCH  17  19
TORSDOF 3
ENDMDL
MODEL 9
REMARK VINA RESULT:      -6.8     29.455     31.460
REMARK  Name = 7663763
REMARK  3 active torsions:
REMARK  status: ('A' for Active; 'I' for Inactive)
REMARK    1  A    between atoms: N_6  and  C_20
REMARK    2  A    between atoms: C_17  and  C_19
REMARK    3  A    between atoms: C_21  and  C_24
REMARK                            x       y       z     vdW  Elec       q    Type
REMARK                         _______ _______ _______ _____ _____    ______ ____
ROOT
ATOM      2  O   UNL     1      -6.588 -13.093  14.314  0.00  0.00    -0.267 OA
ATOM      3  O   UNL     1      -9.843 -11.323  18.042  0.00  0.00    -0.252 OA
ATOM      4  N   UNL     1      -7.660 -11.011  18.744  0.00  0.00    -0.284 N 
ATOM      5  N   UNL     1      -5.907 -12.028  16.272  0.00  0.00    -0.311 N 
ATOM      6  N   UNL     1      -8.912  -9.204  17.888  0.00  0.00    -0.269 N 
ATOM      7  C   UNL     1      -6.243 -13.066  18.589  0.00  0.00    +0.027 C 
ATOM      8  C   UNL     1      -5.200 -10.851  18.385  0.00  0.00    +0.054 C 
ATOM      9  C   UNL     1      -5.022 -12.244  18.983  0.00  0.00    +0.018 C 
ATOM     10  C   UNL     1      -7.525 -12.418  19.137  0.00  0.00    +0.114 C 
ATOM     11  C   UNL     1      -6.276 -13.211  17.063  0.00  0.00    +0.130 C 
ATOM     12  C   UNL     1      -6.461 -10.185  18.974  0.00  0.00    +0.119 C 
ATOM     13  C   UNL     1      -5.314 -10.916  16.873  0.00  0.00    +0.027 A 
ATOM     14  C   UNL     1      -4.878  -9.897  16.117  0.00  0.00    +0.022 A 
ATOM     15  C   UNL     1      -6.085 -12.119  14.877  0.00  0.00    +0.259 A 
ATOM     16  C   UNL     1      -8.884 -10.563  18.201  0.00  0.00    +0.306 C 
ATOM     17  C   UNL     1      -5.612 -10.948  14.058  0.00  0.00    +0.040 A 
ATOM     18  C   UNL     1      -5.032  -9.918  14.691  0.00  0.00    +0.015 A 
ATOM     33  H   UNL     1      -8.317  -8.577  18.416  0.00  0.00    +0.156 HD
ENDROOT
BRANCH   6  20
ATOM     20  C   UNL     1      -9.734  -8.565  16.926  0.00  0.00    +0.035 A 
ATOM     22  C   UNL     1     -10.555  -7.508  17.311  0.00  0.00    +0.023 A 
ATOM     23  C   UNL     1      -9.714  -8.996  15.603  0.00  0.00    +0.023 A 
ATOM     25  C   UNL     1     -11.362  -6.878  16.364  0.00  0.00    +0.002 A 
ATOM     26  C   UNL     1     -10.521  -8.365  14.656  0.00  0.00    +0.002 A 
ATOM     27  C   UNL     1     -11.345  -7.307  15.037  0.00  0.00    +0.000 A 
ENDBRANCH   6  20
BRANCH  17  19
ATOM     19  C   UNL     1      -5.775 -10.958  12.626  0.00  0.00    +0.014 C 
ATOM     21  C   UNL     1      -5.623  -9.865  11.869  0.00  0.00    +0.008 C 
BRANCH  21  24
ATOM      1 CL   UNL     1      -6.292  -9.695   5.944  0.00  0.00    -0.084 Cl
ATOM     24  C   UNL     1      -5.789  -9.824  10.406  0.00  0.00    -0.025 A 
ATOM     28  C   UNL     1      -4.668  -9.702   9.600  0.00  0.00    +0.009 A 
ATOM     29  C   UNL     1      -7.061  -9.908   9.864  0.00  0.00    +0.009 A 
ATOM     30  C   UNL     1      -4.824  -9.661   8.214  0.00  0.00    +0.020 A 
ATOM     31  C   UNL     1      -7.217  -9.867   8.478  0.00  0.00    +0.020 A 
ATOM     32  C   UNL     1      -6.099  -9.744   7.653  0.00  0.00    +0.041 A 
ENDBRANCH  21  24
ENDBRANCH  17  19
TORSDOF 3
ENDMDL
MODEL 10
REMARK VINA RESULT:      -6.6      5.500     10.272
REMARK  Name = 7663763
REMARK  3 active torsions:
REMARK  status: ('A' for Active; 'I' for Inactive)
REMARK    1  A    between atoms: N_6  and  C_20
REMARK    2  A    between atoms: C_17  and  C_19
REMARK    3  A    between atoms: C_21  and  C_24
REMARK                            x       y       z     vdW  Elec       q    Type
REMARK                         _______ _______ _______ _____ _____    ______ ____
ROOT
ATOM      2  O   UNL     1      20.691   3.111  20.839  0.00  0.00    -0.267 OA
ATOM      3  O   UNL     1      23.297   3.354  25.396  0.00  0.00    -0.252 OA
ATOM      4  N   UNL     1      24.688   4.089  23.699  0.00  0.00    -0.284 N 
ATOM      5  N   UNL     1      22.841   3.975  21.092  0.00  0.00    -0.311 N 
ATOM      6  N   UNL     1      23.618   5.635  25.124  0.00  0.00    -0.269 N 
ATOM      7  C   UNL     1      24.837   2.516  21.760  0.00  0.00    +0.027 C 
ATOM      8  C   UNL     1      25.154   4.926  21.398  0.00  0.00    +0.054 C 
ATOM      9  C   UNL     1      25.666   3.545  21.000  0.00  0.00    +0.018 C 
ATOM     10  C   UNL     1      24.992   2.718  23.276  0.00  0.00    +0.114 C 
ATOM     11  C   UNL     1      23.376   2.623  21.309  0.00  0.00    +0.130 C 
ATOM     12  C   UNL     1      25.356   5.142  22.913  0.00  0.00    +0.119 C 
ATOM     13  C   UNL     1      23.686   5.086  21.049  0.00  0.00    +0.027 A 
ATOM     14  C   UNL     1      23.193   6.293  20.733  0.00  0.00    +0.022 A 
ATOM     15  C   UNL     1      21.461   4.074  20.827  0.00  0.00    +0.259 A 
ATOM     16  C   UNL     1      23.815   4.295  24.790  0.00  0.00    +0.306 C 
ATOM     17  C   UNL     1      20.932   5.446  20.503  0.00  0.00    +0.040 A 
ATOM     18  C   UNL     1      21.796   6.470  20.458  0.00  0.00    +0.015 A 
ATOM     33  H   UNL     1      24.357   6.297  24.916  0.00  0.00    +0.156 HD
ENDROOT
BRANCH   6  20
ATOM     20  C   UNL     1      22.496   6.195  25.784  0.00  0.00    +0.035 A 
ATOM     22  C   UNL     1      22.450   6.215  27.176  0.00  0.00    +0.023 A 
ATOM     23  C   UNL     1      21.447   6.723  25.038  0.00  0.00    +0.023 A 
ATOM     25  C   UNL     1      21.347   6.768  27.825  0.00  0.00    +0.002 A 
ATOM     26  C   UNL     1      20.343   7.276  25.687  0.00  0.00    +0.002 A 
ATOM     27  C   UNL     1      20.293   7.298  27.081  0.00  0.00    +0.000 A 
ENDBRANCH   6  20
BRANCH  17  19
ATOM     19  C   UNL     1      19.528   5.632  20.237  0.00  0.00    +0.014 C 
ATOM     21  C   UNL     1      18.791   6.571  20.843  0.00  0.00    +0.008 C 
BRANCH  21  24
ATOM      1 CL   UNL     1      12.969   7.471  19.905  0.00  0.00    -0.084 Cl
ATOM     24  C   UNL     1      17.353   6.792  20.612  0.00  0.00    -0.025 A 
ATOM     28  C   UNL     1      16.783   6.366  19.422  0.00  0.00    +0.009 A 
ATOM     29  C   UNL     1      16.598   7.423  21.588  0.00  0.00    +0.009 A 
ATOM     30  C   UNL     1      15.422   6.578  19.203  0.00  0.00    +0.020 A 
ATOM     31  C   UNL     1      15.236   7.634  21.368  0.00  0.00    +0.020 A 
ATOM     32  C   UNL     1      14.649   7.212  20.176  0.00  0.00    +0.041 A 
ENDBRANCH  21  24
ENDBRANCH  17  19
TORSDOF 3
ENDMDL
