MODEL 1
REMARK VINA RESULT:      -8.5      0.000      0.000
REMARK  Name = 45783330
REMARK  6 active torsions:
REMARK  status: ('A' for Active; 'I' for Inactive)
REMARK    1  A    between atoms: N_3  and  C_14
REMARK    2  A    between atoms: C_9  and  C_19
REMARK    3  A    between atoms: C_13  and  C_22
REMARK    4  A    between atoms: C_14  and  C_20
REMARK    5  A    between atoms: C_23  and  C_25
REMARK    6  A    between atoms: C_32  and  C_33
REMARK                            x       y       z     vdW  Elec       q    Type
REMARK                         _______ _______ _______ _____ _____    ______ ____
ROOT
ATOM      1  O   UNL     1      14.227   6.584  20.454  0.00  0.00    -0.336 OA
ATOM      5  N   UNL     1      15.785   7.743  19.339  0.00  0.00    -0.190 NA
ATOM      6  N   UNL     1      15.377   6.555  21.252  0.00  0.00    -0.056 NA
ATOM     19  C   UNL     1      14.552   7.302  19.348  0.00  0.00    +0.245 A 
ATOM     23  C   UNL     1      16.252   7.260  20.526  0.00  0.00    +0.202 A 
ENDROOT
BRANCH  23  25
ATOM      4  N   UNL     1      20.665   5.640  21.624  0.00  0.00    -0.315 N 
ATOM      7  N   UNL     1      20.226   7.961  21.799  0.00  0.00    -0.240 NA
ATOM     13  C   UNL     1      22.531   3.437  21.926  0.00  0.00    +0.078 C 
ATOM     15  C   UNL     1      22.167   4.354  23.092  0.00  0.00    +0.031 C 
ATOM     16  C   UNL     1      21.433   3.424  20.865  0.00  0.00    +0.031 C 
ATOM     17  C   UNL     1      21.723   5.744  22.636  0.00  0.00    +0.107 C 
ATOM     18  C   UNL     1      20.973   4.822  20.447  0.00  0.00    +0.107 C 
ATOM     21  C   UNL     1      19.781   6.718  21.503  0.00  0.00    +0.122 A 
ATOM     24  C   UNL     1      18.491   6.436  21.083  0.00  0.00    +0.055 A 
ATOM     25  C   UNL     1      17.600   7.497  20.959  0.00  0.00    +0.027 A 
ATOM     28  C   UNL     1      18.021   8.789  21.254  0.00  0.00    +0.031 A 
ATOM     31  C   UNL     1      19.332   8.966  21.667  0.00  0.00    +0.113 A 
BRANCH  13  22
ATOM      2  O   UNL     1      24.676   4.493  21.970  0.00  0.00    -0.276 OA
ATOM      8  N   UNL     1      24.044   3.395  20.049  0.00  0.00    -0.329 N 
ATOM     22  C   UNL     1      23.856   3.829  21.340  0.00  0.00    +0.214 C 
ATOM     34  H   UNL     1      24.904   3.600  19.554  0.00  0.00    +0.145 HD
ATOM     35  H   UNL     1      23.329   2.900  19.524  0.00  0.00    +0.145 HD
ENDBRANCH  13  22
ENDBRANCH  23  25
BRANCH  19   9
ATOM      3  N   UNL     1      12.547   8.596  18.641  0.00  0.00    -0.287 NA
ATOM      9  C   UNL     1      13.460   7.483  18.314  0.00  0.00    +0.146 C 
ATOM     10  C   UNL     1      14.015   7.826  16.919  0.00  0.00    +0.030 C 
ATOM     11  C   UNL     1      13.311   9.115  16.518  0.00  0.00    +0.017 C 
ATOM     12  C   UNL     1      12.053   9.112  17.363  0.00  0.00    +0.085 C 
BRANCH   3  14
ATOM     14  C   UNL     1      11.463   8.207  19.532  0.00  0.00    +0.120 C 
BRANCH  14  20
ATOM     20  C   UNL     1      11.400   9.084  20.754  0.00  0.00    -0.033 A 
ATOM     26  C   UNL     1      10.702   8.655  21.884  0.00  0.00    +0.005 A 
ATOM     27  C   UNL     1      12.036  10.325  20.756  0.00  0.00    +0.005 A 
ATOM     29  C   UNL     1      10.641   9.469  23.016  0.00  0.00    +0.003 A 
ATOM     30  C   UNL     1      11.975  11.138  21.888  0.00  0.00    +0.003 A 
ATOM     32  C   UNL     1      11.278  10.710  23.017  0.00  0.00    -0.050 A 
ATOM     33  C   UNL     1      11.211  11.579  24.228  0.00  0.00    +0.044 C 
ENDBRANCH  14  20
ENDBRANCH   3  14
ENDBRANCH  19   9
TORSDOF 5
ENDMDL
MODEL 2
REMARK VINA RESULT:      -8.5     29.401     33.353
REMARK  Name = 45783330
REMARK  6 active torsions:
REMARK  status: ('A' for Active; 'I' for Inactive)
REMARK    1  A    between atoms: N_3  and  C_14
REMARK    2  A    between atoms: C_9  and  C_19
REMARK    3  A    between atoms: C_13  and  C_22
REMARK    4  A    between atoms: C_14  and  C_20
REMARK    5  A    between atoms: C_23  and  C_25
REMARK    6  A    between atoms: C_32  and  C_33
REMARK                            x       y       z     vdW  Elec       q    Type
REMARK                         _______ _______ _______ _____ _____    ______ ____
ROOT
ATOM      1  O   UNL     1     -17.013   2.541  22.444  0.00  0.00    -0.336 OA
ATOM      5  N   UNL     1     -17.197   3.595  24.412  0.00  0.00    -0.190 NA
ATOM      6  N   UNL     1     -17.185   1.539  23.407  0.00  0.00    -0.056 NA
ATOM     19  C   UNL     1     -17.031   3.720  23.119  0.00  0.00    +0.245 A 
ATOM     23  C   UNL     1     -17.287   2.239  24.540  0.00  0.00    +0.202 A 
ENDROOT
BRANCH  23  25
ATOM      4  N   UNL     1     -15.877   1.457  29.091  0.00  0.00    -0.315 N 
ATOM      7  N   UNL     1     -17.848   0.401  28.311  0.00  0.00    -0.240 NA
ATOM     13  C   UNL     1     -13.977   1.890  31.243  0.00  0.00    +0.078 C 
ATOM     15  C   UNL     1     -14.279   0.495  30.699  0.00  0.00    +0.031 C 
ATOM     16  C   UNL     1     -14.280   2.969  30.206  0.00  0.00    +0.031 C 
ATOM     17  C   UNL     1     -15.671   0.389  30.077  0.00  0.00    +0.107 C 
ATOM     18  C   UNL     1     -15.662   2.827  29.566  0.00  0.00    +0.107 C 
ATOM     21  C   UNL     1     -16.798   1.219  28.065  0.00  0.00    +0.122 A 
ATOM     24  C   UNL     1     -16.570   1.843  26.849  0.00  0.00    +0.055 A 
ATOM     25  C   UNL     1     -17.476   1.615  25.819  0.00  0.00    +0.027 A 
ATOM     28  C   UNL     1     -18.567   0.781  26.034  0.00  0.00    +0.031 A 
ATOM     31  C   UNL     1     -18.707   0.203  27.287  0.00  0.00    +0.113 A 
BRANCH  13  22
ATOM      2  O   UNL     1     -15.215   3.224  32.795  0.00  0.00    -0.276 OA
ATOM      8  N   UNL     1     -14.791   1.030  33.343  0.00  0.00    -0.329 N 
ATOM     22  C   UNL     1     -14.727   2.130  32.522  0.00  0.00    +0.214 C 
ATOM     34  H   UNL     1     -15.275   1.076  34.233  0.00  0.00    +0.145 HD
ATOM     35  H   UNL     1     -14.328   0.152  33.128  0.00  0.00    +0.145 HD
ENDBRANCH  13  22
ENDBRANCH  23  25
BRANCH  19   9
ATOM      3  N   UNL     1     -15.518   5.083  21.688  0.00  0.00    -0.287 NA
ATOM      9  C   UNL     1     -16.862   4.976  22.290  0.00  0.00    +0.146 C 
ATOM     10  C   UNL     1     -17.832   5.034  21.095  0.00  0.00    +0.030 C 
ATOM     11  C   UNL     1     -16.947   5.236  19.874  0.00  0.00    +0.017 C 
ATOM     12  C   UNL     1     -15.681   5.840  20.447  0.00  0.00    +0.085 C 
BRANCH   3  14
ATOM     14  C   UNL     1     -14.537   5.690  22.578  0.00  0.00    +0.120 C 
BRANCH  14  20
ATOM     20  C   UNL     1     -13.590   6.593  21.835  0.00  0.00    -0.033 A 
ATOM     26  C   UNL     1     -13.843   7.963  21.765  0.00  0.00    +0.005 A 
ATOM     27  C   UNL     1     -12.460   6.059  21.214  0.00  0.00    +0.005 A 
ATOM     29  C   UNL     1     -12.966   8.800  21.073  0.00  0.00    +0.003 A 
ATOM     30  C   UNL     1     -11.584   6.896  20.522  0.00  0.00    +0.003 A 
ATOM     32  C   UNL     1     -11.836   8.266  20.453  0.00  0.00    -0.050 A 
ATOM     33  C   UNL     1     -10.900   9.161  19.714  0.00  0.00    +0.044 C 
ENDBRANCH  14  20
ENDBRANCH   3  14
ENDBRANCH  19   9
TORSDOF 5
ENDMDL
MODEL 3
REMARK VINA RESULT:      -8.2      1.493      3.501
REMARK  Name = 45783330
REMARK  6 active torsions:
REMARK  status: ('A' for Active; 'I' for Inactive)
REMARK    1  A    between atoms: N_3  and  C_14
REMARK    2  A    between atoms: C_9  and  C_19
REMARK    3  A    between atoms: C_13  and  C_22
REMARK    4  A    between atoms: C_14  and  C_20
REMARK    5  A    between atoms: C_23  and  C_25
REMARK    6  A    between atoms: C_32  and  C_33
REMARK                            x       y       z     vdW  Elec       q    Type
REMARK                         _______ _______ _______ _____ _____    ______ ____
ROOT
ATOM      1  O   UNL     1      14.616   6.827  20.258  0.00  0.00    -0.336 OA
ATOM      5  N   UNL     1      15.612   8.331  21.585  0.00  0.00    -0.190 NA
ATOM      6  N   UNL     1      15.992   6.584  20.157  0.00  0.00    -0.056 NA
ATOM     19  C   UNL     1      14.479   7.870  21.117  0.00  0.00    +0.245 A 
ATOM     23  C   UNL     1      16.510   7.511  20.968  0.00  0.00    +0.202 A 
ENDROOT
BRANCH  23  25
ATOM      4  N   UNL     1      20.875   5.548  21.605  0.00  0.00    -0.315 N 
ATOM      7  N   UNL     1      20.677   7.907  21.596  0.00  0.00    -0.240 NA
ATOM     13  C   UNL     1      22.559   3.198  21.871  0.00  0.00    +0.078 C 
ATOM     15  C   UNL     1      22.456   4.250  22.975  0.00  0.00    +0.031 C 
ATOM     16  C   UNL     1      21.319   3.204  20.980  0.00  0.00    +0.031 C 
ATOM     17  C   UNL     1      22.076   5.632  22.443  0.00  0.00    +0.107 C 
ATOM     18  C   UNL     1      20.930   4.599  20.488  0.00  0.00    +0.107 C 
ATOM     21  C   UNL     1      20.082   6.696  21.496  0.00  0.00    +0.122 A 
ATOM     24  C   UNL     1      18.724   6.513  21.291  0.00  0.00    +0.055 A 
ATOM     25  C   UNL     1      17.924   7.645  21.183  0.00  0.00    +0.027 A 
ATOM     28  C   UNL     1      18.498   8.907  21.280  0.00  0.00    +0.031 A 
ATOM     31  C   UNL     1      19.867   8.984  21.485  0.00  0.00    +0.113 A 
BRANCH  13  22
ATOM      2  O   UNL     1      24.625   4.278  21.337  0.00  0.00    -0.276 OA
ATOM      8  N   UNL     1      23.943   2.522  20.017  0.00  0.00    -0.329 N 
ATOM     22  C   UNL     1      23.813   3.397  21.069  0.00  0.00    +0.214 C 
ATOM     34  H   UNL     1      24.753   2.562  19.408  0.00  0.00    +0.145 HD
ATOM     35  H   UNL     1      23.231   1.840  19.774  0.00  0.00    +0.145 HD
ENDBRANCH  13  22
ENDBRANCH  23  25
BRANCH  19   9
ATOM      3  N   UNL     1      12.352   8.758  20.177  0.00  0.00    -0.287 NA
ATOM      9  C   UNL     1      13.064   8.332  21.399  0.00  0.00    +0.146 C 
ATOM     10  C   UNL     1      12.184   7.219  21.998  0.00  0.00    +0.030 C 
ATOM     11  C   UNL     1      10.973   7.133  21.081  0.00  0.00    +0.017 C 
ATOM     12  C   UNL     1      10.932   8.494  20.414  0.00  0.00    +0.085 C 
BRANCH   3  14
ATOM     14  C   UNL     1      12.600  10.149  19.823  0.00  0.00    +0.120 C 
BRANCH  14  20
ATOM     20  C   UNL     1      13.304  10.273  18.499  0.00  0.00    -0.033 A 
ATOM     26  C   UNL     1      13.395   9.169  17.651  0.00  0.00    +0.005 A 
ATOM     27  C   UNL     1      13.868  11.492  18.120  0.00  0.00    +0.005 A 
ATOM     29  C   UNL     1      14.050   9.283  16.424  0.00  0.00    +0.003 A 
ATOM     30  C   UNL     1      14.523  11.606  16.893  0.00  0.00    +0.003 A 
ATOM     32  C   UNL     1      14.614  10.502  16.046  0.00  0.00    -0.050 A 
ATOM     33  C   UNL     1      15.314  10.623  14.735  0.00  0.00    +0.044 C 
ENDBRANCH  14  20
ENDBRANCH   3  14
ENDBRANCH  19   9
TORSDOF 5
ENDMDL
MODEL 4
REMARK VINA RESULT:      -7.7      1.748      2.480
REMARK  Name = 45783330
REMARK  6 active torsions:
REMARK  status: ('A' for Active; 'I' for Inactive)
REMARK    1  A    between atoms: N_3  and  C_14
REMARK    2  A    between atoms: C_9  and  C_19
REMARK    3  A    between atoms: C_13  and  C_22
REMARK    4  A    between atoms: C_14  and  C_20
REMARK    5  A    between atoms: C_23  and  C_25
REMARK    6  A    between atoms: C_32  and  C_33
REMARK                            x       y       z     vdW  Elec       q    Type
REMARK                         _______ _______ _______ _____ _____    ______ ____
ROOT
ATOM      1  O   UNL     1      14.510   7.685  19.988  0.00  0.00    -0.336 OA
ATOM      5  N   UNL     1      15.516   8.099  21.946  0.00  0.00    -0.190 NA
ATOM      6  N   UNL     1      15.886   7.657  19.731  0.00  0.00    -0.056 NA
ATOM     19  C   UNL     1      14.379   7.952  21.313  0.00  0.00    +0.245 A 
ATOM     23  C   UNL     1      16.412   7.910  20.934  0.00  0.00    +0.202 A 
ENDROOT
BRANCH  23  25
ATOM      4  N   UNL     1      20.686   5.755  21.560  0.00  0.00    -0.315 N 
ATOM      7  N   UNL     1      20.587   8.121  21.589  0.00  0.00    -0.240 NA
ATOM     13  C   UNL     1      22.269   3.333  21.797  0.00  0.00    +0.078 C 
ATOM     15  C   UNL     1      22.204   4.370  22.917  0.00  0.00    +0.031 C 
ATOM     16  C   UNL     1      21.036   3.406  20.900  0.00  0.00    +0.031 C 
ATOM     17  C   UNL     1      21.885   5.775  22.407  0.00  0.00    +0.107 C 
ATOM     18  C   UNL     1      20.708   4.824  20.429  0.00  0.00    +0.107 C 
ATOM     21  C   UNL     1      19.943   6.937  21.466  0.00  0.00    +0.122 A 
ATOM     24  C   UNL     1      18.580   6.815  21.252  0.00  0.00    +0.055 A 
ATOM     25  C   UNL     1      17.828   7.981  21.158  0.00  0.00    +0.027 A 
ATOM     28  C   UNL     1      18.454   9.216  21.279  0.00  0.00    +0.031 A 
ATOM     31  C   UNL     1      19.824   9.232  21.493  0.00  0.00    +0.113 A 
BRANCH  13  22
ATOM      2  O   UNL     1      24.327   4.406  21.219  0.00  0.00    -0.276 OA
ATOM      8  N   UNL     1      23.700   2.542  20.026  0.00  0.00    -0.329 N 
ATOM     22  C   UNL     1      23.535   3.492  21.005  0.00  0.00    +0.214 C 
ATOM     34  H   UNL     1      24.520   2.549  19.430  0.00  0.00    +0.145 HD
ATOM     35  H   UNL     1      23.004   1.831  19.823  0.00  0.00    +0.145 HD
ENDBRANCH  13  22
ENDBRANCH  23  25
BRANCH  19   9
ATOM      3  N   UNL     1      12.376   9.380  21.692  0.00  0.00    -0.287 NA
ATOM      9  C   UNL     1      12.965   8.035  21.849  0.00  0.00    +0.146 C 
ATOM     10  C   UNL     1      11.994   7.093  21.113  0.00  0.00    +0.030 C 
ATOM     11  C   UNL     1      10.862   7.989  20.629  0.00  0.00    +0.017 C 
ATOM     12  C   UNL     1      10.932   9.185  21.557  0.00  0.00    +0.085 C 
BRANCH   3  14
ATOM     14  C   UNL     1      12.708  10.284  22.785  0.00  0.00    +0.120 C 
BRANCH  14  20
ATOM     20  C   UNL     1      11.836  11.510  22.784  0.00  0.00    -0.033 A 
ATOM     26  C   UNL     1      11.125  11.861  23.932  0.00  0.00    +0.005 A 
ATOM     27  C   UNL     1      11.736  12.294  21.635  0.00  0.00    +0.005 A 
ATOM     29  C   UNL     1      10.313  12.996  23.930  0.00  0.00    +0.003 A 
ATOM     30  C   UNL     1      10.925  13.429  21.633  0.00  0.00    +0.003 A 
ATOM     32  C   UNL     1      10.214  13.780  22.780  0.00  0.00    -0.050 A 
ATOM     33  C   UNL     1       9.346  14.993  22.779  0.00  0.00    +0.044 C 
ENDBRANCH  14  20
ENDBRANCH   3  14
ENDBRANCH  19   9
TORSDOF 5
ENDMDL
MODEL 5
REMARK VINA RESULT:      -7.7      2.732     10.489
REMARK  Name = 45783330
REMARK  6 active torsions:
REMARK  status: ('A' for Active; 'I' for Inactive)
REMARK    1  A    between atoms: N_3  and  C_14
REMARK    2  A    between atoms: C_9  and  C_19
REMARK    3  A    between atoms: C_13  and  C_22
REMARK    4  A    between atoms: C_14  and  C_20
REMARK    5  A    between atoms: C_23  and  C_25
REMARK    6  A    between atoms: C_32  and  C_33
REMARK                            x       y       z     vdW  Elec       q    Type
REMARK                         _______ _______ _______ _____ _____    ______ ____
ROOT
ATOM      1  O   UNL     1      19.952   9.446  22.952  0.00  0.00    -0.336 OA
ATOM      5  N   UNL     1      19.935   7.264  22.448  0.00  0.00    -0.190 NA
ATOM      6  N   UNL     1      18.928   9.272  22.012  0.00  0.00    -0.056 NA
ATOM     19  C   UNL     1      20.493   8.217  23.153  0.00  0.00    +0.245 A 
ATOM     23  C   UNL     1      18.981   7.959  21.765  0.00  0.00    +0.202 A 
ENDROOT
BRANCH  23  25
ATOM      4  N   UNL     1      14.750   7.726  19.452  0.00  0.00    -0.315 N 
ATOM      7  N   UNL     1      16.373   6.054  19.031  0.00  0.00    -0.240 NA
ATOM     13  C   UNL     1      12.097   8.794  18.951  0.00  0.00    +0.078 C 
ATOM     15  C   UNL     1      12.312   7.379  19.484  0.00  0.00    +0.031 C 
ATOM     16  C   UNL     1      13.281   9.699  19.284  0.00  0.00    +0.031 C 
ATOM     17  C   UNL     1      13.671   6.798  19.093  0.00  0.00    +0.107 C 
ATOM     18  C   UNL     1      14.636   9.088  18.922  0.00  0.00    +0.107 C 
ATOM     21  C   UNL     1      16.017   7.182  19.688  0.00  0.00    +0.122 A 
ATOM     24  C   UNL     1      16.833   7.843  20.592  0.00  0.00    +0.055 A 
ATOM     25  C   UNL     1      18.095   7.312  20.839  0.00  0.00    +0.027 A 
ATOM     28  C   UNL     1      18.496   6.154  20.182  0.00  0.00    +0.031 A 
ATOM     31  C   UNL     1      17.606   5.568  19.296  0.00  0.00    +0.113 A 
BRANCH  13  22
ATOM      2  O   UNL     1      11.197   7.853  16.946  0.00  0.00    -0.276 OA
ATOM      8  N   UNL     1      12.358   9.833  16.792  0.00  0.00    -0.329 N 
ATOM     22  C   UNL     1      11.825   8.766  17.475  0.00  0.00    +0.214 C 
ATOM     34  H   UNL     1      12.234   9.920  15.789  0.00  0.00    +0.145 HD
ATOM     35  H   UNL     1      12.927  10.546  17.238  0.00  0.00    +0.145 HD
ENDBRANCH  13  22
ENDBRANCH  23  25
BRANCH  19   9
ATOM      3  N   UNL     1      22.588   7.052  23.822  0.00  0.00    -0.287 NA
ATOM      9  C   UNL     1      21.637   8.135  24.142  0.00  0.00    +0.146 C 
ATOM     10  C   UNL     1      22.493   9.415  24.167  0.00  0.00    +0.030 C 
ATOM     11  C   UNL     1      23.918   8.944  23.912  0.00  0.00    +0.017 C 
ATOM     12  C   UNL     1      23.892   7.487  24.325  0.00  0.00    +0.085 C 
BRANCH   3  14
ATOM     14  C   UNL     1      22.193   5.760  24.367  0.00  0.00    +0.120 C 
BRANCH  14  20
ATOM     20  C   UNL     1      22.671   4.620  23.510  0.00  0.00    -0.033 A 
ATOM     26  C   UNL     1      23.712   3.804  23.953  0.00  0.00    +0.005 A 
ATOM     27  C   UNL     1      22.076   4.380  22.271  0.00  0.00    +0.005 A 
ATOM     29  C   UNL     1      24.158   2.748  23.157  0.00  0.00    +0.003 A 
ATOM     30  C   UNL     1      22.522   3.324  21.475  0.00  0.00    +0.003 A 
ATOM     32  C   UNL     1      23.562   2.509  21.919  0.00  0.00    -0.050 A 
ATOM     33  C   UNL     1      24.040   1.380  21.069  0.00  0.00    +0.044 C 
ENDBRANCH  14  20
ENDBRANCH   3  14
ENDBRANCH  19   9
TORSDOF 5
ENDMDL
MODEL 6
REMARK VINA RESULT:      -7.6      2.413     11.175
REMARK  Name = 45783330
REMARK  6 active torsions:
REMARK  status: ('A' for Active; 'I' for Inactive)
REMARK    1  A    between atoms: N_3  and  C_14
REMARK    2  A    between atoms: C_9  and  C_19
REMARK    3  A    between atoms: C_13  and  C_22
REMARK    4  A    between atoms: C_14  and  C_20
REMARK    5  A    between atoms: C_23  and  C_25
REMARK    6  A    between atoms: C_32  and  C_33
REMARK                            x       y       z     vdW  Elec       q    Type
REMARK                         _______ _______ _______ _____ _____    ______ ____
ROOT
ATOM      1  O   UNL     1      20.733   6.966  22.678  0.00  0.00    -0.336 OA
ATOM      5  N   UNL     1      20.235   5.436  21.120  0.00  0.00    -0.190 NA
ATOM      6  N   UNL     1      19.475   7.319  22.175  0.00  0.00    -0.056 NA
ATOM     19  C   UNL     1      21.109   5.848  22.005  0.00  0.00    +0.245 A 
ATOM     23  C   UNL     1      19.250   6.370  21.261  0.00  0.00    +0.202 A 
ENDROOT
BRANCH  23  25
ATOM      4  N   UNL     1      14.539   7.266  20.710  0.00  0.00    -0.315 N 
ATOM      7  N   UNL     1      15.721   6.246  18.930  0.00  0.00    -0.240 NA
ATOM     13  C   UNL     1      12.030   8.267  21.773  0.00  0.00    +0.078 C 
ATOM     15  C   UNL     1      12.193   6.821  21.311  0.00  0.00    +0.031 C 
ATOM     16  C   UNL     1      13.373   8.881  22.163  0.00  0.00    +0.031 C 
ATOM     17  C   UNL     1      13.285   6.655  20.254  0.00  0.00    +0.107 C 
ATOM     18  C   UNL     1      14.464   8.674  21.112  0.00  0.00    +0.107 C 
ATOM     21  C   UNL     1      15.732   6.762  20.180  0.00  0.00    +0.122 A 
ATOM     24  C   UNL     1      16.859   6.825  20.983  0.00  0.00    +0.055 A 
ATOM     25  C   UNL     1      18.052   6.327  20.471  0.00  0.00    +0.027 A 
ATOM     28  C   UNL     1      18.080   5.788  19.189  0.00  0.00    +0.031 A 
ATOM     31  C   UNL     1      16.898   5.771  18.466  0.00  0.00    +0.113 A 
BRANCH  13  22
ATOM      2  O   UNL     1      10.636   8.567  19.853  0.00  0.00    -0.276 OA
ATOM      8  N   UNL     1      11.583  10.432  20.811  0.00  0.00    -0.329 N 
ATOM     22  C   UNL     1      11.338   9.083  20.720  0.00  0.00    +0.214 C 
ATOM     34  H   UNL     1      11.165  11.080  20.153  0.00  0.00    +0.145 HD
ATOM     35  H   UNL     1      12.216  10.833  21.497  0.00  0.00    +0.145 HD
ENDBRANCH  13  22
ENDBRANCH  23  25
BRANCH  19   9
ATOM      3  N   UNL     1      23.063   4.497  21.262  0.00  0.00    -0.287 NA
ATOM      9  C   UNL     1      22.454   5.258  22.372  0.00  0.00    +0.146 C 
ATOM     10  C   UNL     1      23.497   6.334  22.728  0.00  0.00    +0.030 C 
ATOM     11  C   UNL     1      24.680   6.060  21.810  0.00  0.00    +0.017 C 
ATOM     12  C   UNL     1      24.512   4.601  21.437  0.00  0.00    +0.085 C 
BRANCH   3  14
ATOM     14  C   UNL     1      22.614   3.112  21.202  0.00  0.00    +0.120 C 
BRANCH  14  20
ATOM     20  C   UNL     1      23.560   2.185  21.916  0.00  0.00    -0.033 A 
ATOM     26  C   UNL     1      24.486   1.437  21.188  0.00  0.00    +0.005 A 
ATOM     27  C   UNL     1      23.510   2.071  23.305  0.00  0.00    +0.005 A 
ATOM     29  C   UNL     1      25.361   0.575  21.849  0.00  0.00    +0.003 A 
ATOM     30  C   UNL     1      24.385   1.209  23.967  0.00  0.00    +0.003 A 
ATOM     32  C   UNL     1      25.310   0.462  23.239  0.00  0.00    -0.050 A 
ATOM     33  C   UNL     1      26.246  -0.460  23.945  0.00  0.00    +0.044 C 
ENDBRANCH  14  20
ENDBRANCH   3  14
ENDBRANCH  19   9
TORSDOF 5
ENDMDL
MODEL 7
REMARK VINA RESULT:      -7.6     28.023     30.331
REMARK  Name = 45783330
REMARK  6 active torsions:
REMARK  status: ('A' for Active; 'I' for Inactive)
REMARK    1  A    between atoms: N_3  and  C_14
REMARK    2  A    between atoms: C_9  and  C_19
REMARK    3  A    between atoms: C_13  and  C_22
REMARK    4  A    between atoms: C_14  and  C_20
REMARK    5  A    between atoms: C_23  and  C_25
REMARK    6  A    between atoms: C_32  and  C_33
REMARK                            x       y       z     vdW  Elec       q    Type
REMARK                         _______ _______ _______ _____ _____    ______ ____
ROOT
ATOM      1  O   UNL     1      -6.484  -8.205   9.101  0.00  0.00    -0.336 OA
ATOM      5  N   UNL     1      -5.672 -10.287   9.253  0.00  0.00    -0.190 NA
ATOM      6  N   UNL     1      -5.656  -8.218  10.230  0.00  0.00    -0.056 NA
ATOM     19  C   UNL     1      -6.438  -9.461   8.585  0.00  0.00    +0.245 A 
ATOM     23  C   UNL     1      -5.215  -9.479  10.253  0.00  0.00    +0.202 A 
ENDROOT
BRANCH  23  25
ATOM      4  N   UNL     1      -4.353 -10.903  14.785  0.00  0.00    -0.315 N 
ATOM      7  N   UNL     1      -2.569 -10.915  13.228  0.00  0.00    -0.240 NA
ATOM     13  C   UNL     1      -5.288 -11.368  17.494  0.00  0.00    +0.078 C 
ATOM     15  C   UNL     1      -4.154 -10.392  17.185  0.00  0.00    +0.031 C 
ATOM     16  C   UNL     1      -6.196 -11.565  16.283  0.00  0.00    +0.031 C 
ATOM     17  C   UNL     1      -3.409 -10.737  15.896  0.00  0.00    +0.107 C 
ATOM     18  C   UNL     1      -5.433 -11.872  14.993  0.00  0.00    +0.107 C 
ATOM     21  C   UNL     1      -3.874 -10.671  13.491  0.00  0.00    +0.122 A 
ATOM     24  C   UNL     1      -4.779 -10.202  12.553  0.00  0.00    +0.055 A 
ATOM     25  C   UNL     1      -4.317  -9.965  11.263  0.00  0.00    +0.027 A 
ATOM     28  C   UNL     1      -2.983 -10.203  10.954  0.00  0.00    +0.031 A 
ATOM     31  C   UNL     1      -2.157 -10.674  11.963  0.00  0.00    +0.113 A 
BRANCH  13  22
ATOM      2  O   UNL     1      -5.156 -13.754  17.576  0.00  0.00    -0.276 OA
ATOM      8  N   UNL     1      -3.757 -12.540  18.941  0.00  0.00    -0.329 N 
ATOM     22  C   UNL     1      -4.738 -12.675  17.988  0.00  0.00    +0.214 C 
ATOM     34  H   UNL     1      -3.311 -13.356  19.345  0.00  0.00    +0.145 HD
ATOM     35  H   UNL     1      -3.469 -11.640  19.314  0.00  0.00    +0.145 HD
ENDBRANCH  13  22
ENDBRANCH  23  25
BRANCH  19   9
ATOM      3  N   UNL     1      -8.156  -8.581   7.014  0.00  0.00    -0.287 NA
ATOM      9  C   UNL     1      -7.261  -9.710   7.339  0.00  0.00    +0.146 C 
ATOM     10  C   UNL     1      -6.393  -9.897   6.081  0.00  0.00    +0.030 C 
ATOM     11  C   UNL     1      -6.913  -8.871   5.083  0.00  0.00    +0.017 C 
ATOM     12  C   UNL     1      -8.324  -8.593   5.560  0.00  0.00    +0.085 C 
BRANCH   3  14
ATOM     14  C   UNL     1      -9.432  -8.640   7.715  0.00  0.00    +0.120 C 
BRANCH  14  20
ATOM     20  C   UNL     1      -9.880  -7.280   8.178  0.00  0.00    -0.033 A 
ATOM     26  C   UNL     1      -8.981  -6.213   8.181  0.00  0.00    +0.005 A 
ATOM     27  C   UNL     1     -11.193  -7.086   8.607  0.00  0.00    +0.005 A 
ATOM     29  C   UNL     1      -9.395  -4.953   8.613  0.00  0.00    +0.003 A 
ATOM     30  C   UNL     1     -11.607  -5.826   9.039  0.00  0.00    +0.003 A 
ATOM     32  C   UNL     1     -10.709  -4.760   9.042  0.00  0.00    -0.050 A 
ATOM     33  C   UNL     1     -11.151  -3.412   9.504  0.00  0.00    +0.044 C 
ENDBRANCH  14  20
ENDBRANCH   3  14
ENDBRANCH  19   9
TORSDOF 5
ENDMDL
MODEL 8
REMARK VINA RESULT:      -7.6     16.579     21.062
REMARK  Name = 45783330
REMARK  6 active torsions:
REMARK  status: ('A' for Active; 'I' for Inactive)
REMARK    1  A    between atoms: N_3  and  C_14
REMARK    2  A    between atoms: C_9  and  C_19
REMARK    3  A    between atoms: C_13  and  C_22
REMARK    4  A    between atoms: C_14  and  C_20
REMARK    5  A    between atoms: C_23  and  C_25
REMARK    6  A    between atoms: C_32  and  C_33
REMARK                            x       y       z     vdW  Elec       q    Type
REMARK                         _______ _______ _______ _____ _____    ______ ____
ROOT
ATOM      1  O   UNL     1      11.093   6.950   3.818  0.00  0.00    -0.336 OA
ATOM      5  N   UNL     1      10.968   4.728   3.559  0.00  0.00    -0.190 NA
ATOM      6  N   UNL     1      11.642   6.674   2.560  0.00  0.00    -0.056 NA
ATOM     19  C   UNL     1      10.721   5.751   4.339  0.00  0.00    +0.245 A 
ATOM     23  C   UNL     1      11.533   5.344   2.480  0.00  0.00    +0.202 A 
ENDROOT
BRANCH  23  25
ATOM      4  N   UNL     1      10.776   3.581  -1.950  0.00  0.00    -0.315 N 
ATOM      7  N   UNL     1      12.852   3.156  -0.893  0.00  0.00    -0.240 NA
ATOM     13  C   UNL     1       9.041   3.223  -4.250  0.00  0.00    +0.078 C 
ATOM     15  C   UNL     1       9.598   2.038  -3.465  0.00  0.00    +0.031 C 
ATOM     16  C   UNL     1       8.992   4.485  -3.392  0.00  0.00    +0.031 C 
ATOM     17  C   UNL     1      10.913   2.362  -2.755  0.00  0.00    +0.107 C 
ATOM     18  C   UNL     1      10.302   4.775  -2.658  0.00  0.00    +0.107 C 
ATOM     21  C   UNL     1      11.625   3.725  -0.847  0.00  0.00    +0.122 A 
ATOM     24  C   UNL     1      11.147   4.450   0.232  0.00  0.00    +0.055 A 
ATOM     25  C   UNL     1      11.979   4.601   1.336  0.00  0.00    +0.027 A 
ATOM     28  C   UNL     1      13.247   4.029   1.326  0.00  0.00    +0.031 A 
ATOM     31  C   UNL     1      13.632   3.323   0.197  0.00  0.00    +0.113 A 
BRANCH  13  22
ATOM      2  O   UNL     1      10.398   4.510  -5.742  0.00  0.00    -0.276 OA
ATOM      8  N   UNL     1       9.848   2.361  -6.352  0.00  0.00    -0.329 N 
ATOM     22  C   UNL     1       9.835   3.444  -5.506  0.00  0.00    +0.214 C 
ATOM     34  H   UNL     1      10.355   2.395  -7.229  0.00  0.00    +0.145 HD
ATOM     35  H   UNL     1       9.325   1.510  -6.168  0.00  0.00    +0.145 HD
ENDBRANCH  13  22
ENDBRANCH  23  25
BRANCH  19   9
ATOM      3  N   UNL     1      10.605   6.879   6.554  0.00  0.00    -0.287 NA
ATOM      9  C   UNL     1      10.090   5.778   5.715  0.00  0.00    +0.146 C 
ATOM     10  C   UNL     1       8.567   6.003   5.665  0.00  0.00    +0.030 C 
ATOM     11  C   UNL     1       8.314   7.212   6.553  0.00  0.00    +0.017 C 
ATOM     12  C   UNL     1       9.521   7.241   7.469  0.00  0.00    +0.085 C 
BRANCH   3  14
ATOM     14  C   UNL     1      11.830   6.535   7.263  0.00  0.00    +0.120 C 
BRANCH  14  20
ATOM     20  C   UNL     1      12.954   7.478   6.929  0.00  0.00    -0.033 A 
ATOM     26  C   UNL     1      12.737   8.856   6.948  0.00  0.00    +0.005 A 
ATOM     27  C   UNL     1      14.212   6.975   6.599  0.00  0.00    +0.005 A 
ATOM     29  C   UNL     1      13.778   9.731   6.636  0.00  0.00    +0.003 A 
ATOM     30  C   UNL     1      15.254   7.850   6.287  0.00  0.00    +0.003 A 
ATOM     32  C   UNL     1      15.036   9.227   6.306  0.00  0.00    -0.050 A 
ATOM     33  C   UNL     1      16.148  10.163   5.972  0.00  0.00    +0.044 C 
ENDBRANCH  14  20
ENDBRANCH   3  14
ENDBRANCH  19   9
TORSDOF 5
ENDMDL
MODEL 9
REMARK VINA RESULT:      -7.5     26.727     29.912
REMARK  Name = 45783330
REMARK  6 active torsions:
REMARK  status: ('A' for Active; 'I' for Inactive)
REMARK    1  A    between atoms: N_3  and  C_14
REMARK    2  A    between atoms: C_9  and  C_19
REMARK    3  A    between atoms: C_13  and  C_22
REMARK    4  A    between atoms: C_14  and  C_20
REMARK    5  A    between atoms: C_23  and  C_25
REMARK    6  A    between atoms: C_32  and  C_33
REMARK                            x       y       z     vdW  Elec       q    Type
REMARK                         _______ _______ _______ _____ _____    ______ ____
ROOT
ATOM      1  O   UNL     1      -4.785 -11.459  19.002  0.00  0.00    -0.336 OA
ATOM      5  N   UNL     1      -5.540 -10.595  17.078  0.00  0.00    -0.190 NA
ATOM      6  N   UNL     1      -3.691 -11.440  18.128  0.00  0.00    -0.056 NA
ATOM     19  C   UNL     1      -5.833 -10.945  18.306  0.00  0.00    +0.245 A 
ATOM     23  C   UNL     1      -4.216 -10.919  17.015  0.00  0.00    +0.202 A 
ENDROOT
BRANCH  23  25
ATOM      4  N   UNL     1      -3.903 -10.595  12.209  0.00  0.00    -0.315 N 
ATOM      7  N   UNL     1      -1.942 -10.294  13.501  0.00  0.00    -0.240 NA
ATOM     13  C   UNL     1      -5.158 -10.724   9.594  0.00  0.00    +0.078 C 
ATOM     15  C   UNL     1      -4.003 -11.645   9.984  0.00  0.00    +0.031 C 
ATOM     16  C   UNL     1      -5.910 -10.224  10.825  0.00  0.00    +0.031 C 
ATOM     17  C   UNL     1      -3.103 -11.043  11.063  0.00  0.00    +0.107 C 
ATOM     18  C   UNL     1      -4.992  -9.659  11.911  0.00  0.00    +0.107 C 
ATOM     21  C   UNL     1      -3.271 -10.543  13.456  0.00  0.00    +0.122 A 
ATOM     24  C   UNL     1      -4.059 -10.754  14.576  0.00  0.00    +0.055 A 
ATOM     25  C   UNL     1      -3.445 -10.708  15.823  0.00  0.00    +0.027 A 
ATOM     28  C   UNL     1      -2.080 -10.455  15.910  0.00  0.00    +0.031 A 
ATOM     31  C   UNL     1      -1.380 -10.256  14.730  0.00  0.00    +0.113 A 
BRANCH  13  22
ATOM      2  O   UNL     1      -3.686  -8.913   9.075  0.00  0.00    -0.276 OA
ATOM      8  N   UNL     1      -5.409  -9.365   7.619  0.00  0.00    -0.329 N 
ATOM     22  C   UNL     1      -4.662  -9.584   8.752  0.00  0.00    +0.214 C 
ATOM     34  H   UNL     1      -5.165  -8.622   6.974  0.00  0.00    +0.145 HD
ATOM     35  H   UNL     1      -6.250  -9.891   7.401  0.00  0.00    +0.145 HD
ENDBRANCH  13  22
ENDBRANCH  23  25
BRANCH  19   9
ATOM      3  N   UNL     1      -8.274 -10.486  18.152  0.00  0.00    -0.287 NA
ATOM      9  C   UNL     1      -7.154 -10.854  19.041  0.00  0.00    +0.146 C 
ATOM     10  C   UNL     1      -7.576 -12.195  19.670  0.00  0.00    +0.030 C 
ATOM     11  C   UNL     1      -8.971 -12.468  19.123  0.00  0.00    +0.017 C 
ATOM     12  C   UNL     1      -9.474 -11.095  18.727  0.00  0.00    +0.085 C 
BRANCH   3  14
ATOM     14  C   UNL     1      -8.418  -9.047  17.976  0.00  0.00    +0.120 C 
BRANCH  14  20
ATOM     20  C   UNL     1      -9.361  -8.712  16.852  0.00  0.00    -0.033 A 
ATOM     26  C   UNL     1     -10.368  -7.765  17.045  0.00  0.00    +0.005 A 
ATOM     27  C   UNL     1      -9.230  -9.349  15.617  0.00  0.00    +0.005 A 
ATOM     29  C   UNL     1     -11.244  -7.456  16.004  0.00  0.00    +0.003 A 
ATOM     30  C   UNL     1     -10.106  -9.040  14.577  0.00  0.00    +0.003 A 
ATOM     32  C   UNL     1     -11.112  -8.093  14.770  0.00  0.00    -0.050 A 
ATOM     33  C   UNL     1     -12.050  -7.763  13.658  0.00  0.00    +0.044 C 
ENDBRANCH  14  20
ENDBRANCH   3  14
ENDBRANCH  19   9
TORSDOF 5
ENDMDL
MODEL 10
REMARK VINA RESULT:      -7.4     27.560     30.327
REMARK  Name = 45783330
REMARK  6 active torsions:
REMARK  status: ('A' for Active; 'I' for Inactive)
REMARK    1  A    between atoms: N_3  and  C_14
REMARK    2  A    between atoms: C_9  and  C_19
REMARK    3  A    between atoms: C_13  and  C_22
REMARK    4  A    between atoms: C_14  and  C_20
REMARK    5  A    between atoms: C_23  and  C_25
REMARK    6  A    between atoms: C_32  and  C_33
REMARK                            x       y       z     vdW  Elec       q    Type
REMARK                         _______ _______ _______ _____ _____    ______ ____
ROOT
ATOM      1  O   UNL     1      -3.404 -11.180  17.194  0.00  0.00    -0.336 OA
ATOM      5  N   UNL     1      -4.871 -10.354  15.717  0.00  0.00    -0.190 NA
ATOM      6  N   UNL     1      -2.749 -11.176  15.956  0.00  0.00    -0.056 NA
ATOM     19  C   UNL     1      -4.646 -10.681  16.965  0.00  0.00    +0.245 A 
ATOM     23  C   UNL     1      -3.679 -10.676  15.137  0.00  0.00    +0.202 A 
ENDROOT
BRANCH  23  25
ATOM      4  N   UNL     1      -5.337  -9.934  10.664  0.00  0.00    -0.315 N 
ATOM      7  N   UNL     1      -3.000 -10.113  10.998  0.00  0.00    -0.240 NA
ATOM     13  C   UNL     1      -7.565  -9.580   8.835  0.00  0.00    +0.078 C 
ATOM     15  C   UNL     1      -6.564 -10.724   8.680  0.00  0.00    +0.031 C 
ATOM     16  C   UNL     1      -7.618  -9.081  10.277  0.00  0.00    +0.031 C 
ATOM     17  C   UNL     1      -5.196 -10.400   9.279  0.00  0.00    +0.107 C 
ATOM     18  C   UNL     1      -6.239  -8.797  10.875  0.00  0.00    +0.107 C 
ATOM     21  C   UNL     1      -4.247 -10.119  11.522  0.00  0.00    +0.122 A 
ATOM     24  C   UNL     1      -4.522 -10.299  12.867  0.00  0.00    +0.055 A 
ATOM     25  C   UNL     1      -3.449 -10.486  13.732  0.00  0.00    +0.027 A 
ATOM     28  C   UNL     1      -2.152 -10.486  13.231  0.00  0.00    +0.031 A 
ATOM     31  C   UNL     1      -1.982 -10.297  11.868  0.00  0.00    +0.113 A 
BRANCH  13  22
ATOM      2  O   UNL     1      -7.475  -7.291   8.150  0.00  0.00    -0.276 OA
ATOM      8  N   UNL     1      -6.703  -8.894   6.691  0.00  0.00    -0.329 N 
ATOM     22  C   UNL     1      -7.246  -8.467   7.880  0.00  0.00    +0.214 C 
ATOM     34  H   UNL     1      -6.446  -8.229   5.971  0.00  0.00    +0.145 HD
ATOM     35  H   UNL     1      -6.578  -9.876   6.462  0.00  0.00    +0.145 HD
ENDBRANCH  13  22
ENDBRANCH  23  25
BRANCH  19   9
ATOM      3  N   UNL     1      -6.991 -10.530  17.784  0.00  0.00    -0.287 NA
ATOM      9  C   UNL     1      -5.565 -10.579  18.164  0.00  0.00    +0.146 C 
ATOM     10  C   UNL     1      -5.451 -11.793  19.104  0.00  0.00    +0.030 C 
ATOM     11  C   UNL     1      -6.872 -12.324  19.242  0.00  0.00    +0.017 C 
ATOM     12  C   UNL     1      -7.735 -11.128  18.894  0.00  0.00    +0.085 C 
BRANCH   3  14
ATOM     14  C   UNL     1      -7.457  -9.185  17.473  0.00  0.00    +0.120 C 
BRANCH  14  20
ATOM     20  C   UNL     1      -8.440  -9.181  16.333  0.00  0.00    -0.033 A 
ATOM     26  C   UNL     1      -8.224  -9.999  15.224  0.00  0.00    +0.005 A 
ATOM     27  C   UNL     1      -9.565  -8.358  16.385  0.00  0.00    +0.005 A 
ATOM     29  C   UNL     1      -9.133  -9.994  14.166  0.00  0.00    +0.003 A 
ATOM     30  C   UNL     1     -10.474  -8.353  15.327  0.00  0.00    +0.003 A 
ATOM     32  C   UNL     1     -10.258  -9.171  14.218  0.00  0.00    -0.050 A 
ATOM     33  C   UNL     1     -11.230  -9.166  13.086  0.00  0.00    +0.044 C 
ENDBRANCH  14  20
ENDBRANCH   3  14
ENDBRANCH  19   9
TORSDOF 5
ENDMDL
