MODEL 1
REMARK VINA RESULT:      -6.1      0.000      0.000
REMARK  Name = 38027396
REMARK  16 active torsions:
REMARK  status: ('A' for Active; 'I' for Inactive)
REMARK    1  A    between atoms: S_1  and  N_5
REMARK    2  A    between atoms: S_1  and  C_22
REMARK    3  A    between atoms: N_5  and  C_16
REMARK    4  A    between atoms: N_6  and  C_23
REMARK    5  A    between atoms: N_7  and  C_24
REMARK    6  A    between atoms: N_7  and  C_30
REMARK    7  A    between atoms: N_7  and  C_31
REMARK    8  A    between atoms: C_9  and  C_13
REMARK    9  A    between atoms: C_10  and  C_16
REMARK   10  A    between atoms: C_12  and  C_17
REMARK   11  A    between atoms: C_13  and  C_18
REMARK   12  A    between atoms: C_13  and  C_19
REMARK   13  A    between atoms: C_14  and  C_20
REMARK   14  A    between atoms: C_17  and  C_21
REMARK   15  A    between atoms: C_23  and  C_24
REMARK   16  A    between atoms: C_29  and  C_32
REMARK                            x       y       z     vdW  Elec       q    Type
REMARK                         _______ _______ _______ _____ _____    ______ ____
ROOT
ATOM      9  C   UNL     1      13.209  11.605  22.643  0.00  0.00    +0.000 C 
ATOM     10  C   UNL     1      12.302  11.558  21.389  0.00  0.00    +0.030 C 
ATOM     11  C   UNL     1      14.603  12.136  22.278  0.00  0.00    +0.012 C 
ATOM     12  C   UNL     1      15.295  11.269  21.208  0.00  0.00    +0.023 C 
ATOM     14  C   UNL     1      14.366  10.954  20.053  0.00  0.00    -0.073 C 
ATOM     15  C   UNL     1      13.032  11.103  20.148  0.00  0.00    -0.023 C 
ATOM     20  C   UNL     1      15.008  10.508  18.769  0.00  0.00    +0.039 C 
ENDROOT
BRANCH   9  13
ATOM     13  C   UNL     1      12.600  12.467  23.754  0.00  0.00    -0.013 C 
ATOM     18  C   UNL     1      11.992  11.585  24.840  0.00  0.00    +0.007 C 
ATOM     19  C   UNL     1      13.654  13.399  24.342  0.00  0.00    +0.007 C 
ENDBRANCH   9  13
BRANCH  10  16
ATOM     16  C   UNL     1      11.081  10.661  21.622  0.00  0.00    +0.113 C 
BRANCH  16   5
ATOM      5  N   UNL     1      11.540   9.313  21.997  0.00  0.00    -0.189 NA
ATOM     33  H   UNL     1      12.381   9.257  22.584  0.00  0.00    +0.148 HD
BRANCH   5   1
ATOM      1  S   UNL     1      11.175   7.978  21.005  0.00  0.00    +0.058 S 
ATOM      3  O   UNL     1      10.464   8.437  19.826  0.00  0.00    -0.153 OA
ATOM      4  O   UNL     1      10.622   6.915  21.822  0.00  0.00    -0.153 OA
BRANCH   1  22
ATOM     22  C   UNL     1      12.786   7.455  20.499  0.00  0.00    +0.105 A 
ATOM     25  C   UNL     1      13.769   7.199  21.456  0.00  0.00    +0.030 A 
ATOM     26  C   UNL     1      13.076   7.298  19.144  0.00  0.00    +0.030 A 
ATOM     27  C   UNL     1      15.040   6.787  21.058  0.00  0.00    +0.021 A 
ATOM     28  C   UNL     1      14.347   6.885  18.745  0.00  0.00    +0.021 A 
ATOM     29  C   UNL     1      15.329   6.630  19.702  0.00  0.00    +0.052 A 
BRANCH  29  32
ATOM      8  N   UNL     1      17.689   5.863  18.963  0.00  0.00    -0.191 NA
ATOM     32  C   UNL     1      16.632   6.207  19.293  0.00  0.00    +0.099 C 
ENDBRANCH  29  32
ENDBRANCH   1  22
ENDBRANCH   5   1
ENDBRANCH  16   5
ENDBRANCH  10  16
BRANCH  12  17
ATOM     17  C   UNL     1      15.864   9.986  21.820  0.00  0.00    +0.103 C 
BRANCH  17  21
ATOM      2  O   UNL     1      18.007  10.647  20.911  0.00  0.00    -0.276 OA
ATOM      6  N   UNL     1      17.846   8.692  22.158  0.00  0.00    -0.314 N 
ATOM     21  C   UNL     1      17.347   9.842  21.563  0.00  0.00    +0.214 C 
ATOM     34  H   UNL     1      17.222   8.087  22.683  0.00  0.00    +0.149 HD
BRANCH   6  23
ATOM     23  C   UNL     1      19.234   8.301  22.075  0.00  0.00    +0.119 C 
BRANCH  23  24
ATOM     24  C   UNL     1      19.377   6.788  21.983  0.00  0.00    +0.102 C 
BRANCH  24   7
ATOM      7  N   UNL     1      20.198   6.289  23.077  0.00  0.00    -0.307 NA
ATOM     30  C   UNL     1      20.724   7.399  23.875  0.00  0.00    +0.104 C 
ATOM     31  C   UNL     1      21.298   5.469  22.565  0.00  0.00    +0.104 C 
ENDBRANCH  24   7
ENDBRANCH  23  24
ENDBRANCH   6  23
ENDBRANCH  17  21
ENDBRANCH  12  17
TORSDOF 11
ENDMDL
MODEL 2
REMARK VINA RESULT:      -5.9      2.474      5.368
REMARK  Name = 38027396
REMARK  16 active torsions:
REMARK  status: ('A' for Active; 'I' for Inactive)
REMARK    1  A    between atoms: S_1  and  N_5
REMARK    2  A    between atoms: S_1  and  C_22
REMARK    3  A    between atoms: N_5  and  C_16
REMARK    4  A    between atoms: N_6  and  C_23
REMARK    5  A    between atoms: N_7  and  C_24
REMARK    6  A    between atoms: N_7  and  C_30
REMARK    7  A    between atoms: N_7  and  C_31
REMARK    8  A    between atoms: C_9  and  C_13
REMARK    9  A    between atoms: C_10  and  C_16
REMARK   10  A    between atoms: C_12  and  C_17
REMARK   11  A    between atoms: C_13  and  C_18
REMARK   12  A    between atoms: C_13  and  C_19
REMARK   13  A    between atoms: C_14  and  C_20
REMARK   14  A    between atoms: C_17  and  C_21
REMARK   15  A    between atoms: C_23  and  C_24
REMARK   16  A    between atoms: C_29  and  C_32
REMARK                            x       y       z     vdW  Elec       q    Type
REMARK                         _______ _______ _______ _____ _____    ______ ____
ROOT
ATOM      9  C   UNL     1      16.813   8.568  21.338  0.00  0.00    +0.000 C 
ATOM     10  C   UNL     1      16.133   7.841  20.151  0.00  0.00    +0.030 C 
ATOM     11  C   UNL     1      18.336   8.604  21.145  0.00  0.00    +0.012 C 
ATOM     12  C   UNL     1      18.941   7.192  21.027  0.00  0.00    +0.023 C 
ATOM     14  C   UNL     1      18.157   6.321  20.065  0.00  0.00    -0.073 C 
ATOM     15  C   UNL     1      16.909   6.635  19.674  0.00  0.00    -0.023 C 
ATOM     20  C   UNL     1      18.857   5.106  19.526  0.00  0.00    +0.039 C 
ENDROOT
BRANCH   9  13
ATOM     13  C   UNL     1      16.279   9.993  21.512  0.00  0.00    -0.013 C 
ATOM     18  C   UNL     1      15.884  10.582  20.160  0.00  0.00    +0.007 C 
ATOM     19  C   UNL     1      15.095  10.004  22.473  0.00  0.00    +0.007 C 
ENDBRANCH   9  13
BRANCH  10  16
ATOM     16  C   UNL     1      14.702   7.422  20.504  0.00  0.00    +0.113 C 
BRANCH  16   5
ATOM      5  N   UNL     1      13.820   7.714  19.363  0.00  0.00    -0.189 NA
ATOM     33  H   UNL     1      14.157   8.405  18.683  0.00  0.00    +0.148 HD
BRANCH   5   1
ATOM      1  S   UNL     1      12.136   7.496  19.504  0.00  0.00    +0.058 S 
ATOM      3  O   UNL     1      11.867   6.159  20.000  0.00  0.00    -0.153 OA
ATOM      4  O   UNL     1      11.493   7.968  18.294  0.00  0.00    -0.153 OA
BRANCH   1  22
ATOM     22  C   UNL     1      11.732   8.644  20.787  0.00  0.00    +0.105 A 
ATOM     25  C   UNL     1      11.206   8.184  21.994  0.00  0.00    +0.030 A 
ATOM     26  C   UNL     1      11.940  10.009  20.592  0.00  0.00    +0.030 A 
ATOM     27  C   UNL     1      10.887   9.089  23.007  0.00  0.00    +0.021 A 
ATOM     28  C   UNL     1      11.622  10.914  21.604  0.00  0.00    +0.021 A 
ATOM     29  C   UNL     1      11.095  10.455  22.811  0.00  0.00    +0.052 A 
BRANCH  29  32
ATOM      8  N   UNL     1      10.504  12.134  24.691  0.00  0.00    -0.191 NA
ATOM     32  C   UNL     1      10.768  11.382  23.848  0.00  0.00    +0.099 C 
ENDBRANCH  29  32
ENDBRANCH   1  22
ENDBRANCH   5   1
ENDBRANCH  16   5
ENDBRANCH  10  16
BRANCH  12  17
ATOM     17  C   UNL     1      19.057   6.524  22.401  0.00  0.00    +0.103 C 
BRANCH  17  21
ATOM      2  O   UNL     1      20.875   6.092  23.938  0.00  0.00    -0.276 OA
ATOM      6  N   UNL     1      21.309   6.218  21.658  0.00  0.00    -0.314 N 
ATOM     21  C   UNL     1      20.495   6.254  22.782  0.00  0.00    +0.214 C 
ATOM     34  H   UNL     1      20.903   6.361  20.739  0.00  0.00    +0.149 HD
BRANCH   6  23
ATOM     23  C   UNL     1      22.733   5.980  21.724  0.00  0.00    +0.119 C 
BRANCH  23  24
ATOM     24  C   UNL     1      23.228   5.249  20.484  0.00  0.00    +0.102 C 
BRANCH  24   7
ATOM      7  N   UNL     1      23.928   4.029  20.860  0.00  0.00    -0.307 NA
ATOM     30  C   UNL     1      24.809   3.584  19.777  0.00  0.00    +0.104 C 
ATOM     31  C   UNL     1      22.975   2.971  21.203  0.00  0.00    +0.104 C 
ENDBRANCH  24   7
ENDBRANCH  23  24
ENDBRANCH   6  23
ENDBRANCH  17  21
ENDBRANCH  12  17
TORSDOF 11
ENDMDL
MODEL 3
REMARK VINA RESULT:      -5.9      2.557      4.318
REMARK  Name = 38027396
REMARK  16 active torsions:
REMARK  status: ('A' for Active; 'I' for Inactive)
REMARK    1  A    between atoms: S_1  and  N_5
REMARK    2  A    between atoms: S_1  and  C_22
REMARK    3  A    between atoms: N_5  and  C_16
REMARK    4  A    between atoms: N_6  and  C_23
REMARK    5  A    between atoms: N_7  and  C_24
REMARK    6  A    between atoms: N_7  and  C_30
REMARK    7  A    between atoms: N_7  and  C_31
REMARK    8  A    between atoms: C_9  and  C_13
REMARK    9  A    between atoms: C_10  and  C_16
REMARK   10  A    between atoms: C_12  and  C_17
REMARK   11  A    between atoms: C_13  and  C_18
REMARK   12  A    between atoms: C_13  and  C_19
REMARK   13  A    between atoms: C_14  and  C_20
REMARK   14  A    between atoms: C_17  and  C_21
REMARK   15  A    between atoms: C_23  and  C_24
REMARK   16  A    between atoms: C_29  and  C_32
REMARK                            x       y       z     vdW  Elec       q    Type
REMARK                         _______ _______ _______ _____ _____    ______ ____
ROOT
ATOM      9  C   UNL     1      16.272   8.932  21.598  0.00  0.00    +0.000 C 
ATOM     10  C   UNL     1      15.199   8.311  20.670  0.00  0.00    +0.030 C 
ATOM     11  C   UNL     1      17.642   8.942  20.905  0.00  0.00    +0.012 C 
ATOM     12  C   UNL     1      18.103   7.527  20.506  0.00  0.00    +0.023 C 
ATOM     14  C   UNL     1      17.000   6.749  19.816  0.00  0.00    -0.073 C 
ATOM     15  C   UNL     1      15.710   7.123  19.889  0.00  0.00    -0.023 C 
ATOM     20  C   UNL     1      17.419   5.558  19.002  0.00  0.00    +0.039 C 
ENDROOT
BRANCH   9  13
ATOM     13  C   UNL     1      15.897  10.355  22.026  0.00  0.00    -0.013 C 
ATOM     18  C   UNL     1      17.102  11.059  22.645  0.00  0.00    +0.007 C 
ATOM     19  C   UNL     1      15.362  11.145  20.837  0.00  0.00    +0.007 C 
ENDBRANCH   9  13
BRANCH  10  16
ATOM     16  C   UNL     1      13.950   7.905  21.460  0.00  0.00    +0.113 C 
BRANCH  16   5
ATOM      5  N   UNL     1      12.783   8.615  20.913  0.00  0.00    -0.189 NA
ATOM     33  H   UNL     1      12.261   9.217  21.561  0.00  0.00    +0.148 HD
BRANCH   5   1
ATOM      1  S   UNL     1      11.944   7.979  19.574  0.00  0.00    +0.058 S 
ATOM      3  O   UNL     1      10.595   8.511  19.558  0.00  0.00    -0.153 OA
ATOM      4  O   UNL     1      12.166   6.547  19.510  0.00  0.00    -0.153 OA
BRANCH   1  22
ATOM     22  C   UNL     1      12.828   8.699  18.222  0.00  0.00    +0.105 A 
ATOM     25  C   UNL     1      13.001  10.082  18.159  0.00  0.00    +0.030 A 
ATOM     26  C   UNL     1      13.354   7.885  17.219  0.00  0.00    +0.030 A 
ATOM     27  C   UNL     1      13.699  10.650  17.094  0.00  0.00    +0.021 A 
ATOM     28  C   UNL     1      14.052   8.452  16.154  0.00  0.00    +0.021 A 
ATOM     29  C   UNL     1      14.224   9.835  16.090  0.00  0.00    +0.052 A 
BRANCH  29  32
ATOM      8  N   UNL     1      15.518  10.891  14.112  0.00  0.00    -0.191 NA
ATOM     32  C   UNL     1      14.939  10.417  14.998  0.00  0.00    +0.099 C 
ENDBRANCH  29  32
ENDBRANCH   1  22
ENDBRANCH   5   1
ENDBRANCH  16   5
ENDBRANCH  10  16
BRANCH  12  17
ATOM     17  C   UNL     1      18.640   6.759  21.718  0.00  0.00    +0.103 C 
BRANCH  17  21
ATOM      2  O   UNL     1      20.949   7.232  22.262  0.00  0.00    -0.276 OA
ATOM      6  N   UNL     1      20.451   5.504  20.790  0.00  0.00    -0.314 N 
ATOM     21  C   UNL     1      20.135   6.552  21.643  0.00  0.00    +0.214 C 
ATOM     34  H   UNL     1      19.707   4.996  20.323  0.00  0.00    +0.149 HD
BRANCH   6  23
ATOM     23  C   UNL     1      21.808   5.084  20.526  0.00  0.00    +0.119 C 
BRANCH  23  24
ATOM     24  C   UNL     1      22.189   3.882  21.378  0.00  0.00    +0.102 C 
BRANCH  24   7
ATOM      7  N   UNL     1      23.274   4.227  22.285  0.00  0.00    -0.307 NA
ATOM     30  C   UNL     1      22.764   4.445  23.641  0.00  0.00    +0.104 C 
ATOM     31  C   UNL     1      23.983   5.419  21.813  0.00  0.00    +0.104 C 
ENDBRANCH  24   7
ENDBRANCH  23  24
ENDBRANCH   6  23
ENDBRANCH  17  21
ENDBRANCH  12  17
TORSDOF 11
ENDMDL
MODEL 4
REMARK VINA RESULT:      -5.7     27.444     29.977
REMARK  Name = 38027396
REMARK  16 active torsions:
REMARK  status: ('A' for Active; 'I' for Inactive)
REMARK    1  A    between atoms: S_1  and  N_5
REMARK    2  A    between atoms: S_1  and  C_22
REMARK    3  A    between atoms: N_5  and  C_16
REMARK    4  A    between atoms: N_6  and  C_23
REMARK    5  A    between atoms: N_7  and  C_24
REMARK    6  A    between atoms: N_7  and  C_30
REMARK    7  A    between atoms: N_7  and  C_31
REMARK    8  A    between atoms: C_9  and  C_13
REMARK    9  A    between atoms: C_10  and  C_16
REMARK   10  A    between atoms: C_12  and  C_17
REMARK   11  A    between atoms: C_13  and  C_18
REMARK   12  A    between atoms: C_13  and  C_19
REMARK   13  A    between atoms: C_14  and  C_20
REMARK   14  A    between atoms: C_17  and  C_21
REMARK   15  A    between atoms: C_23  and  C_24
REMARK   16  A    between atoms: C_29  and  C_32
REMARK                            x       y       z     vdW  Elec       q    Type
REMARK                         _______ _______ _______ _____ _____    ______ ____
ROOT
ATOM      9  C   UNL     1      -4.485 -11.568  12.512  0.00  0.00    +0.000 C 
ATOM     10  C   UNL     1      -3.340 -11.047  11.607  0.00  0.00    +0.030 C 
ATOM     11  C   UNL     1      -5.834 -11.462  11.786  0.00  0.00    +0.012 C 
ATOM     12  C   UNL     1      -6.160 -10.014  11.373  0.00  0.00    +0.023 C 
ATOM     14  C   UNL     1      -4.977  -9.338  10.707  0.00  0.00    -0.073 C 
ATOM     15  C   UNL     1      -3.727  -9.822  10.812  0.00  0.00    -0.023 C 
ATOM     20  C   UNL     1      -5.272  -8.118   9.880  0.00  0.00    +0.039 C 
ENDROOT
BRANCH   9  13
ATOM     13  C   UNL     1      -4.246 -13.016  12.952  0.00  0.00    -0.013 C 
ATOM     18  C   UNL     1      -5.051 -13.330  14.210  0.00  0.00    +0.007 C 
ATOM     19  C   UNL     1      -4.604 -13.981  11.827  0.00  0.00    +0.007 C 
ENDBRANCH   9  13
BRANCH  10  16
ATOM     16  C   UNL     1      -2.080 -10.748  12.426  0.00  0.00    +0.113 C 
BRANCH  16   5
ATOM      5  N   UNL     1      -2.474 -10.171  13.722  0.00  0.00    -0.189 NA
ATOM     33  H   UNL     1      -2.774  -9.188  13.719  0.00  0.00    +0.148 HD
BRANCH   5   1
ATOM      1  S   UNL     1      -1.835 -10.800  15.170  0.00  0.00    +0.058 S 
ATOM      3  O   UNL     1      -0.866  -9.866  15.711  0.00  0.00    -0.153 OA
ATOM      4  O   UNL     1      -1.475 -12.190  14.965  0.00  0.00    -0.153 OA
BRANCH   1  22
ATOM     22  C   UNL     1      -3.254 -10.785  16.225  0.00  0.00    +0.105 A 
ATOM     25  C   UNL     1      -3.205 -11.413  17.469  0.00  0.00    +0.030 A 
ATOM     26  C   UNL     1      -4.422 -10.143  15.814  0.00  0.00    +0.030 A 
ATOM     27  C   UNL     1      -4.323 -11.401  18.302  0.00  0.00    +0.021 A 
ATOM     28  C   UNL     1      -5.540 -10.130  16.647  0.00  0.00    +0.021 A 
ATOM     29  C   UNL     1      -5.492 -10.759  17.890  0.00  0.00    +0.052 A 
BRANCH  29  32
ATOM      8  N   UNL     1      -7.568 -10.736  19.437  0.00  0.00    -0.191 NA
ATOM     32  C   UNL     1      -6.638 -10.746  18.743  0.00  0.00    +0.099 C 
ENDBRANCH  29  32
ENDBRANCH   1  22
ENDBRANCH   5   1
ENDBRANCH  16   5
ENDBRANCH  10  16
BRANCH  12  17
ATOM     17  C   UNL     1      -6.656  -9.196  12.570  0.00  0.00    +0.103 C 
BRANCH  17  21
ATOM      2  O   UNL     1      -8.903 -10.003  12.178  0.00  0.00    -0.276 OA
ATOM      6  N   UNL     1      -8.282  -9.342  14.318  0.00  0.00    -0.314 N 
ATOM     21  C   UNL     1      -8.068  -9.566  12.964  0.00  0.00    +0.214 C 
ATOM     34  H   UNL     1      -7.527  -8.980  14.891  0.00  0.00    +0.149 HD
BRANCH   6  23
ATOM     23  C   UNL     1      -9.543  -9.606  14.971  0.00  0.00    +0.119 C 
BRANCH  23  24
ATOM     24  C   UNL     1     -10.457  -8.390  14.918  0.00  0.00    +0.102 C 
BRANCH  24   7
ATOM      7  N   UNL     1      -9.986  -7.362  15.836  0.00  0.00    -0.307 NA
ATOM     30  C   UNL     1     -10.010  -7.853  17.216  0.00  0.00    +0.104 C 
ATOM     31  C   UNL     1     -10.798  -6.150  15.716  0.00  0.00    +0.104 C 
ENDBRANCH  24   7
ENDBRANCH  23  24
ENDBRANCH   6  23
ENDBRANCH  17  21
ENDBRANCH  12  17
TORSDOF 11
ENDMDL
MODEL 5
REMARK VINA RESULT:      -5.5     27.667     30.225
REMARK  Name = 38027396
REMARK  16 active torsions:
REMARK  status: ('A' for Active; 'I' for Inactive)
REMARK    1  A    between atoms: S_1  and  N_5
REMARK    2  A    between atoms: S_1  and  C_22
REMARK    3  A    between atoms: N_5  and  C_16
REMARK    4  A    between atoms: N_6  and  C_23
REMARK    5  A    between atoms: N_7  and  C_24
REMARK    6  A    between atoms: N_7  and  C_30
REMARK    7  A    between atoms: N_7  and  C_31
REMARK    8  A    between atoms: C_9  and  C_13
REMARK    9  A    between atoms: C_10  and  C_16
REMARK   10  A    between atoms: C_12  and  C_17
REMARK   11  A    between atoms: C_13  and  C_18
REMARK   12  A    between atoms: C_13  and  C_19
REMARK   13  A    between atoms: C_14  and  C_20
REMARK   14  A    between atoms: C_17  and  C_21
REMARK   15  A    between atoms: C_23  and  C_24
REMARK   16  A    between atoms: C_29  and  C_32
REMARK                            x       y       z     vdW  Elec       q    Type
REMARK                         _______ _______ _______ _____ _____    ______ ____
ROOT
ATOM      9  C   UNL     1      -5.416 -11.094  17.154  0.00  0.00    +0.000 C 
ATOM     10  C   UNL     1      -4.329 -11.982  16.500  0.00  0.00    +0.030 C 
ATOM     11  C   UNL     1      -6.790 -11.776  17.068  0.00  0.00    +0.012 C 
ATOM     12  C   UNL     1      -7.206 -12.063  15.612  0.00  0.00    +0.023 C 
ATOM     14  C   UNL     1      -6.082 -12.702  14.821  0.00  0.00    -0.073 C 
ATOM     15  C   UNL     1      -4.805 -12.668  15.240  0.00  0.00    -0.023 C 
ATOM     20  C   UNL     1      -6.466 -13.422  13.558  0.00  0.00    +0.039 C 
ENDROOT
BRANCH   9  13
ATOM     13  C   UNL     1      -5.086 -10.777  18.616  0.00  0.00    -0.013 C 
ATOM     18  C   UNL     1      -6.347 -10.359  19.367  0.00  0.00    +0.007 C 
ATOM     19  C   UNL     1      -4.431 -11.980  19.287  0.00  0.00    +0.007 C 
ENDBRANCH   9  13
BRANCH  10  16
ATOM     16  C   UNL     1      -3.063 -11.173  16.194  0.00  0.00    +0.113 C 
BRANCH  16   5
ATOM      5  N   UNL     1      -3.267 -10.413  14.950  0.00  0.00    -0.189 NA
ATOM     33  H   UNL     1      -4.228 -10.119  14.740  0.00  0.00    +0.148 HD
BRANCH   5   1
ATOM      1  S   UNL     1      -2.193 -10.608  13.643  0.00  0.00    +0.058 S 
ATOM      3  O   UNL     1      -1.802 -12.001  13.548  0.00  0.00    -0.153 OA
ATOM      4  O   UNL     1      -1.183  -9.568  13.698  0.00  0.00    -0.153 OA
BRANCH   1  22
ATOM     22  C   UNL     1      -3.237 -10.241  12.264  0.00  0.00    +0.105 A 
ATOM     25  C   UNL     1      -4.622 -10.347  12.390  0.00  0.00    +0.030 A 
ATOM     26  C   UNL     1      -2.677  -9.845  11.050  0.00  0.00    +0.030 A 
ATOM     27  C   UNL     1      -5.447 -10.058  11.303  0.00  0.00    +0.021 A 
ATOM     28  C   UNL     1      -3.500  -9.554   9.963  0.00  0.00    +0.021 A 
ATOM     29  C   UNL     1      -4.885  -9.662  10.088  0.00  0.00    +0.052 A 
BRANCH  29  32
ATOM      8  N   UNL     1      -6.413  -9.123   8.069  0.00  0.00    -0.191 NA
ATOM     32  C   UNL     1      -5.729  -9.365   8.974  0.00  0.00    +0.099 C 
ENDBRANCH  29  32
ENDBRANCH   1  22
ENDBRANCH   5   1
ENDBRANCH  16   5
ENDBRANCH  10  16
BRANCH  12  17
ATOM     17  C   UNL     1      -7.711 -10.793  14.921  0.00  0.00    +0.103 C 
BRANCH  17  21
ATOM      2  O   UNL     1      -9.945 -10.751  15.850  0.00  0.00    -0.276 OA
ATOM      6  N   UNL     1      -8.580  -8.881  16.063  0.00  0.00    -0.314 N 
ATOM     21  C   UNL     1      -8.879 -10.173  15.653  0.00  0.00    +0.214 C 
ATOM     34  H   UNL     1      -7.668  -8.488  15.857  0.00  0.00    +0.149 HD
BRANCH   6  23
ATOM     23  C   UNL     1      -9.513  -8.048  16.786  0.00  0.00    +0.119 C 
BRANCH  23  24
ATOM     24  C   UNL     1     -10.175  -7.033  15.865  0.00  0.00    +0.102 C 
BRANCH  24   7
ATOM      7  N   UNL     1     -11.577  -7.371  15.661  0.00  0.00    -0.307 NA
ATOM     30  C   UNL     1     -11.759  -8.067  14.385  0.00  0.00    +0.104 C 
ATOM     31  C   UNL     1     -12.411  -6.169  15.706  0.00  0.00    +0.104 C 
ENDBRANCH  24   7
ENDBRANCH  23  24
ENDBRANCH   6  23
ENDBRANCH  17  21
ENDBRANCH  12  17
TORSDOF 11
ENDMDL
MODEL 6
REMARK VINA RESULT:      -5.5     27.448     30.167
REMARK  Name = 38027396
REMARK  16 active torsions:
REMARK  status: ('A' for Active; 'I' for Inactive)
REMARK    1  A    between atoms: S_1  and  N_5
REMARK    2  A    between atoms: S_1  and  C_22
REMARK    3  A    between atoms: N_5  and  C_16
REMARK    4  A    between atoms: N_6  and  C_23
REMARK    5  A    between atoms: N_7  and  C_24
REMARK    6  A    between atoms: N_7  and  C_30
REMARK    7  A    between atoms: N_7  and  C_31
REMARK    8  A    between atoms: C_9  and  C_13
REMARK    9  A    between atoms: C_10  and  C_16
REMARK   10  A    between atoms: C_12  and  C_17
REMARK   11  A    between atoms: C_13  and  C_18
REMARK   12  A    between atoms: C_13  and  C_19
REMARK   13  A    between atoms: C_14  and  C_20
REMARK   14  A    between atoms: C_17  and  C_21
REMARK   15  A    between atoms: C_23  and  C_24
REMARK   16  A    between atoms: C_29  and  C_32
REMARK                            x       y       z     vdW  Elec       q    Type
REMARK                         _______ _______ _______ _____ _____    ______ ____
ROOT
ATOM      9  C   UNL     1      -6.001 -10.540  17.638  0.00  0.00    +0.000 C 
ATOM     10  C   UNL     1      -5.546 -11.019  16.237  0.00  0.00    +0.030 C 
ATOM     11  C   UNL     1      -7.509 -10.763  17.819  0.00  0.00    +0.012 C 
ATOM     12  C   UNL     1      -8.339 -10.018  16.756  0.00  0.00    +0.023 C 
ATOM     14  C   UNL     1      -7.786 -10.228  15.360  0.00  0.00    -0.073 C 
ATOM     15  C   UNL     1      -6.540 -10.689  15.149  0.00  0.00    -0.023 C 
ATOM     20  C   UNL     1      -8.713  -9.939  14.214  0.00  0.00    +0.039 C 
ENDROOT
BRANCH   9  13
ATOM     13  C   UNL     1      -5.234 -11.251  18.758  0.00  0.00    -0.013 C 
ATOM     18  C   UNL     1      -5.953 -11.072  20.092  0.00  0.00    +0.007 C 
ATOM     19  C   UNL     1      -5.064 -12.731  18.430  0.00  0.00    +0.007 C 
ENDBRANCH   9  13
BRANCH  10  16
ATOM     16  C   UNL     1      -4.176 -10.438  15.871  0.00  0.00    +0.113 C 
BRANCH  16   5
ATOM      5  N   UNL     1      -3.323 -11.515  15.342  0.00  0.00    -0.189 NA
ATOM     33  H   UNL     1      -3.317 -12.400  15.865  0.00  0.00    +0.148 HD
BRANCH   5   1
ATOM      1  S   UNL     1      -1.952 -11.140  14.405  0.00  0.00    +0.058 S 
ATOM      3  O   UNL     1      -1.148 -12.335  14.233  0.00  0.00    -0.153 OA
ATOM      4  O   UNL     1      -1.349  -9.921  14.910  0.00  0.00    -0.153 OA
BRANCH   1  22
ATOM     22  C   UNL     1      -2.682 -10.746  12.843  0.00  0.00    +0.105 A 
ATOM     25  C   UNL     1      -3.936 -11.259  12.510  0.00  0.00    +0.030 A 
ATOM     26  C   UNL     1      -2.006  -9.922  11.944  0.00  0.00    +0.030 A 
ATOM     27  C   UNL     1      -4.513 -10.949  11.279  0.00  0.00    +0.021 A 
ATOM     28  C   UNL     1      -2.582  -9.610  10.714  0.00  0.00    +0.021 A 
ATOM     29  C   UNL     1      -3.836 -10.124  10.380  0.00  0.00    +0.052 A 
BRANCH  29  32
ATOM      8  N   UNL     1      -4.904  -9.547   8.094  0.00  0.00    -0.191 NA
ATOM     32  C   UNL     1      -4.426  -9.806   9.119  0.00  0.00    +0.099 C 
ENDBRANCH  29  32
ENDBRANCH   1  22
ENDBRANCH   5   1
ENDBRANCH  16   5
ENDBRANCH  10  16
BRANCH  12  17
ATOM     17  C   UNL     1      -8.446  -8.526  17.085  0.00  0.00    +0.103 C 
BRANCH  17  21
ATOM      2  O   UNL     1     -10.781  -8.602  17.717  0.00  0.00    -0.276 OA
ATOM      6  N   UNL     1     -10.030  -6.911  16.310  0.00  0.00    -0.314 N 
ATOM     21  C   UNL     1      -9.880  -8.047  17.094  0.00  0.00    +0.214 C 
ATOM     34  H   UNL     1      -9.224  -6.520  15.834  0.00  0.00    +0.149 HD
BRANCH   6  23
ATOM     23  C   UNL     1     -11.296  -6.236  16.135  0.00  0.00    +0.119 C 
BRANCH  23  24
ATOM     24  C   UNL     1     -11.802  -6.375  14.706  0.00  0.00    +0.102 C 
BRANCH  24   7
ATOM      7  N   UNL     1     -12.896  -5.446  14.464  0.00  0.00    -0.307 NA
ATOM     30  C   UNL     1     -14.162  -6.168  14.308  0.00  0.00    +0.104 C 
ATOM     31  C   UNL     1     -12.630  -4.631  13.276  0.00  0.00    +0.104 C 
ENDBRANCH  24   7
ENDBRANCH  23  24
ENDBRANCH   6  23
ENDBRANCH  17  21
ENDBRANCH  12  17
TORSDOF 11
ENDMDL
MODEL 7
REMARK VINA RESULT:      -5.5     28.394     30.431
REMARK  Name = 38027396
REMARK  16 active torsions:
REMARK  status: ('A' for Active; 'I' for Inactive)
REMARK    1  A    between atoms: S_1  and  N_5
REMARK    2  A    between atoms: S_1  and  C_22
REMARK    3  A    between atoms: N_5  and  C_16
REMARK    4  A    between atoms: N_6  and  C_23
REMARK    5  A    between atoms: N_7  and  C_24
REMARK    6  A    between atoms: N_7  and  C_30
REMARK    7  A    between atoms: N_7  and  C_31
REMARK    8  A    between atoms: C_9  and  C_13
REMARK    9  A    between atoms: C_10  and  C_16
REMARK   10  A    between atoms: C_12  and  C_17
REMARK   11  A    between atoms: C_13  and  C_18
REMARK   12  A    between atoms: C_13  and  C_19
REMARK   13  A    between atoms: C_14  and  C_20
REMARK   14  A    between atoms: C_17  and  C_21
REMARK   15  A    between atoms: C_23  and  C_24
REMARK   16  A    between atoms: C_29  and  C_32
REMARK                            x       y       z     vdW  Elec       q    Type
REMARK                         _______ _______ _______ _____ _____    ______ ____
ROOT
ATOM      9  C   UNL     1      -5.971 -11.241  14.792  0.00  0.00    +0.000 C 
ATOM     10  C   UNL     1      -4.617 -11.714  15.376  0.00  0.00    +0.030 C 
ATOM     11  C   UNL     1      -6.438  -9.955  15.491  0.00  0.00    +0.012 C 
ATOM     12  C   UNL     1      -6.603 -10.146  17.011  0.00  0.00    +0.023 C 
ATOM     14  C   UNL     1      -5.410 -10.854  17.622  0.00  0.00    -0.073 C 
ATOM     15  C   UNL     1      -4.526 -11.538  16.874  0.00  0.00    -0.023 C 
ATOM     20  C   UNL     1      -5.231 -10.720  19.108  0.00  0.00    +0.039 C 
ENDROOT
BRANCH   9  13
ATOM     13  C   UNL     1      -5.887 -11.007  13.280  0.00  0.00    -0.013 C 
ATOM     18  C   UNL     1      -6.878 -11.908  12.547  0.00  0.00    +0.007 C 
ATOM     19  C   UNL     1      -6.146  -9.541  12.953  0.00  0.00    +0.007 C 
ENDBRANCH   9  13
BRANCH  10  16
ATOM     16  C   UNL     1      -4.340 -13.177  15.015  0.00  0.00    +0.113 C 
BRANCH  16   5
ATOM      5  N   UNL     1      -2.885 -13.384  14.932  0.00  0.00    -0.189 NA
ATOM     33  H   UNL     1      -2.301 -12.830  15.571  0.00  0.00    +0.148 HD
BRANCH   5   1
ATOM      1  S   UNL     1      -2.178 -13.923  13.479  0.00  0.00    +0.058 S 
ATOM      3  O   UNL     1      -2.831 -15.147  13.055  0.00  0.00    -0.153 OA
ATOM      4  O   UNL     1      -0.734 -13.871  13.605  0.00  0.00    -0.153 OA
BRANCH   1  22
ATOM     22  C   UNL     1      -2.645 -12.640  12.355  0.00  0.00    +0.105 A 
ATOM     25  C   UNL     1      -2.210 -11.332  12.571  0.00  0.00    +0.030 A 
ATOM     26  C   UNL     1      -3.447 -12.935  11.253  0.00  0.00    +0.030 A 
ATOM     27  C   UNL     1      -2.577 -10.319  11.685  0.00  0.00    +0.021 A 
ATOM     28  C   UNL     1      -3.814 -11.923  10.367  0.00  0.00    +0.021 A 
ATOM     29  C   UNL     1      -3.380 -10.615  10.582  0.00  0.00    +0.052 A 
BRANCH  29  32
ATOM      8  N   UNL     1      -4.063  -8.738   8.936  0.00  0.00    -0.191 NA
ATOM     32  C   UNL     1      -3.757  -9.578   9.674  0.00  0.00    +0.099 C 
ENDBRANCH  29  32
ENDBRANCH   1  22
ENDBRANCH   5   1
ENDBRANCH  16   5
ENDBRANCH  10  16
BRANCH  12  17
ATOM     17  C   UNL     1      -7.905 -10.883  17.337  0.00  0.00    +0.103 C 
BRANCH  17  21
ATOM      2  O   UNL     1      -9.962 -10.565  16.103  0.00  0.00    -0.276 OA
ATOM      6  N   UNL     1      -9.158  -8.849  17.448  0.00  0.00    -0.314 N 
ATOM     21  C   UNL     1      -9.124 -10.114  16.878  0.00  0.00    +0.214 C 
ATOM     34  H   UNL     1      -8.419  -8.565  18.084  0.00  0.00    +0.149 HD
BRANCH   6  23
ATOM     23  C   UNL     1     -10.211  -7.895  17.186  0.00  0.00    +0.119 C 
BRANCH  23  24
ATOM     24  C   UNL     1      -9.984  -7.172  15.867  0.00  0.00    +0.102 C 
BRANCH  24   7
ATOM      7  N   UNL     1     -11.250  -6.970  15.176  0.00  0.00    -0.307 NA
ATOM     30  C   UNL     1     -12.345  -6.824  16.137  0.00  0.00    +0.104 C 
ATOM     31  C   UNL     1     -11.524  -8.082  14.263  0.00  0.00    +0.104 C 
ENDBRANCH  24   7
ENDBRANCH  23  24
ENDBRANCH   6  23
ENDBRANCH  17  21
ENDBRANCH  12  17
TORSDOF 11
ENDMDL
MODEL 8
REMARK VINA RESULT:      -5.4     28.223     30.300
REMARK  Name = 38027396
REMARK  16 active torsions:
REMARK  status: ('A' for Active; 'I' for Inactive)
REMARK    1  A    between atoms: S_1  and  N_5
REMARK    2  A    between atoms: S_1  and  C_22
REMARK    3  A    between atoms: N_5  and  C_16
REMARK    4  A    between atoms: N_6  and  C_23
REMARK    5  A    between atoms: N_7  and  C_24
REMARK    6  A    between atoms: N_7  and  C_30
REMARK    7  A    between atoms: N_7  and  C_31
REMARK    8  A    between atoms: C_9  and  C_13
REMARK    9  A    between atoms: C_10  and  C_16
REMARK   10  A    between atoms: C_12  and  C_17
REMARK   11  A    between atoms: C_13  and  C_18
REMARK   12  A    between atoms: C_13  and  C_19
REMARK   13  A    between atoms: C_14  and  C_20
REMARK   14  A    between atoms: C_17  and  C_21
REMARK   15  A    between atoms: C_23  and  C_24
REMARK   16  A    between atoms: C_29  and  C_32
REMARK                            x       y       z     vdW  Elec       q    Type
REMARK                         _______ _______ _______ _____ _____    ______ ____
ROOT
ATOM      9  C   UNL     1      -9.391  -9.378  16.250  0.00  0.00    +0.000 C 
ATOM     10  C   UNL     1      -9.809 -10.749  16.835  0.00  0.00    +0.030 C 
ATOM     11  C   UNL     1      -9.274  -9.460  14.720  0.00  0.00    +0.012 C 
ATOM     12  C   UNL     1      -8.244 -10.516  14.272  0.00  0.00    +0.023 C 
ATOM     14  C   UNL     1      -8.426 -11.828  15.009  0.00  0.00    -0.073 C 
ATOM     15  C   UNL     1      -9.140 -11.915  16.145  0.00  0.00    -0.023 C 
ATOM     20  C   UNL     1      -7.806 -13.046  14.385  0.00  0.00    +0.039 C 
ENDROOT
BRANCH   9  13
ATOM     13  C   UNL     1     -10.379  -8.271  16.635  0.00  0.00    -0.013 C 
ATOM     18  C   UNL     1     -10.096  -7.004  15.833  0.00  0.00    +0.007 C 
ATOM     19  C   UNL     1     -11.814  -8.740  16.418  0.00  0.00    +0.007 C 
ENDBRANCH   9  13
BRANCH  10  16
ATOM     16  C   UNL     1      -9.529 -10.817  18.341  0.00  0.00    +0.113 C 
BRANCH  16   5
ATOM      5  N   UNL     1      -8.169 -10.316  18.600  0.00  0.00    -0.189 NA
ATOM     33  H   UNL     1      -7.827  -9.568  17.985  0.00  0.00    +0.148 HD
BRANCH   5   1
ATOM      1  S   UNL     1      -7.014 -11.321  19.345  0.00  0.00    +0.058 S 
ATOM      3  O   UNL     1      -7.605 -12.620  19.603  0.00  0.00    -0.153 OA
ATOM      4  O   UNL     1      -6.366 -10.588  20.416  0.00  0.00    -0.153 OA
BRANCH   1  22
ATOM     22  C   UNL     1      -5.820 -11.513  18.055  0.00  0.00    +0.105 A 
ATOM     25  C   UNL     1      -5.693 -12.737  17.398  0.00  0.00    +0.030 A 
ATOM     26  C   UNL     1      -5.005 -10.441  17.693  0.00  0.00    +0.030 A 
ATOM     27  C   UNL     1      -4.753 -12.889  16.380  0.00  0.00    +0.021 A 
ATOM     28  C   UNL     1      -4.064 -10.592  16.675  0.00  0.00    +0.021 A 
ATOM     29  C   UNL     1      -3.937 -11.816  16.018  0.00  0.00    +0.052 A 
BRANCH  29  32
ATOM      8  N   UNL     1      -2.191 -12.097  14.127  0.00  0.00    -0.191 NA
ATOM     32  C   UNL     1      -2.973 -11.971  14.975  0.00  0.00    +0.099 C 
ENDBRANCH  29  32
ENDBRANCH   1  22
ENDBRANCH   5   1
ENDBRANCH  16   5
ENDBRANCH  10  16
BRANCH  12  17
ATOM     17  C   UNL     1      -6.813  -9.992  14.427  0.00  0.00    +0.103 C 
BRANCH  17  21
ATOM      2  O   UNL     1      -6.735  -8.884  12.278  0.00  0.00    -0.276 OA
ATOM      6  N   UNL     1      -4.956 -10.225  12.940  0.00  0.00    -0.314 N 
ATOM     21  C   UNL     1      -6.196  -9.622  13.098  0.00  0.00    +0.214 C 
ATOM     34  H   UNL     1      -4.589 -10.819  13.677  0.00  0.00    +0.149 HD
BRANCH   6  23
ATOM     23  C   UNL     1      -4.138 -10.049  11.762  0.00  0.00    +0.119 C 
BRANCH  23  24
ATOM     24  C   UNL     1      -4.579 -10.978  10.640  0.00  0.00    +0.102 C 
BRANCH  24   7
ATOM      7  N   UNL     1      -4.039 -10.524   9.365  0.00  0.00    -0.307 NA
ATOM     30  C   UNL     1      -4.203  -9.075   9.222  0.00  0.00    +0.104 C 
ATOM     31  C   UNL     1      -4.690 -11.218   8.252  0.00  0.00    +0.104 C 
ENDBRANCH  24   7
ENDBRANCH  23  24
ENDBRANCH   6  23
ENDBRANCH  17  21
ENDBRANCH  12  17
TORSDOF 11
ENDMDL
MODEL 9
REMARK VINA RESULT:      -5.3      3.096      5.402
REMARK  Name = 38027396
REMARK  16 active torsions:
REMARK  status: ('A' for Active; 'I' for Inactive)
REMARK    1  A    between atoms: S_1  and  N_5
REMARK    2  A    between atoms: S_1  and  C_22
REMARK    3  A    between atoms: N_5  and  C_16
REMARK    4  A    between atoms: N_6  and  C_23
REMARK    5  A    between atoms: N_7  and  C_24
REMARK    6  A    between atoms: N_7  and  C_30
REMARK    7  A    between atoms: N_7  and  C_31
REMARK    8  A    between atoms: C_9  and  C_13
REMARK    9  A    between atoms: C_10  and  C_16
REMARK   10  A    between atoms: C_12  and  C_17
REMARK   11  A    between atoms: C_13  and  C_18
REMARK   12  A    between atoms: C_13  and  C_19
REMARK   13  A    between atoms: C_14  and  C_20
REMARK   14  A    between atoms: C_17  and  C_21
REMARK   15  A    between atoms: C_23  and  C_24
REMARK   16  A    between atoms: C_29  and  C_32
REMARK                            x       y       z     vdW  Elec       q    Type
REMARK                         _______ _______ _______ _____ _____    ______ ____
ROOT
ATOM      9  C   UNL     1      18.450   9.111  21.893  0.00  0.00    +0.000 C 
ATOM     10  C   UNL     1      17.220   8.846  20.990  0.00  0.00    +0.030 C 
ATOM     11  C   UNL     1      19.724   8.547  21.245  0.00  0.00    +0.012 C 
ATOM     12  C   UNL     1      19.624   7.030  20.991  0.00  0.00    +0.023 C 
ATOM     14  C   UNL     1      18.308   6.654  20.338  0.00  0.00    -0.073 C 
ATOM     15  C   UNL     1      17.250   7.484  20.336  0.00  0.00    -0.023 C 
ATOM     20  C   UNL     1      18.252   5.321  19.648  0.00  0.00    +0.039 C 
ENDROOT
BRANCH   9  13
ATOM     13  C   UNL     1      18.633  10.605  22.179  0.00  0.00    -0.013 C 
ATOM     18  C   UNL     1      19.888  10.837  23.017  0.00  0.00    +0.007 C 
ATOM     19  C   UNL     1      18.701  11.393  20.875  0.00  0.00    +0.007 C 
ENDBRANCH   9  13
BRANCH  10  16
ATOM     16  C   UNL     1      15.913   9.008  21.774  0.00  0.00    +0.113 C 
BRANCH  16   5
ATOM      5  N   UNL     1      15.105   7.787  21.619  0.00  0.00    -0.189 NA
ATOM     33  H   UNL     1      15.607   6.930  21.357  0.00  0.00    +0.148 HD
BRANCH   5   1
ATOM      1  S   UNL     1      13.456   7.898  21.207  0.00  0.00    +0.058 S 
ATOM      3  O   UNL     1      12.808   8.858  22.081  0.00  0.00    -0.153 OA
ATOM      4  O   UNL     1      12.913   6.562  21.059  0.00  0.00    -0.153 OA
BRANCH   1  22
ATOM     22  C   UNL     1      13.538   8.605  19.588  0.00  0.00    +0.105 A 
ATOM     25  C   UNL     1      13.978   7.834  18.512  0.00  0.00    +0.030 A 
ATOM     26  C   UNL     1      13.162   9.932  19.386  0.00  0.00    +0.030 A 
ATOM     27  C   UNL     1      14.043   8.390  17.235  0.00  0.00    +0.021 A 
ATOM     28  C   UNL     1      13.225  10.489  18.109  0.00  0.00    +0.021 A 
ATOM     29  C   UNL     1      13.666   9.718  17.033  0.00  0.00    +0.052 A 
BRANCH  29  32
ATOM      8  N   UNL     1      13.784  10.753  14.663  0.00  0.00    -0.191 NA
ATOM     32  C   UNL     1      13.732  10.289  15.725  0.00  0.00    +0.099 C 
ENDBRANCH  29  32
ENDBRANCH   1  22
ENDBRANCH   5   1
ENDBRANCH  16   5
ENDBRANCH  10  16
BRANCH  12  17
ATOM     17  C   UNL     1      19.842   6.238  22.283  0.00  0.00    +0.103 C 
BRANCH  17  21
ATOM      2  O   UNL     1      22.080   5.954  23.158  0.00  0.00    -0.276 OA
ATOM      6  N   UNL     1      21.374   4.644  21.372  0.00  0.00    -0.314 N 
ATOM     21  C   UNL     1      21.221   5.621  22.346  0.00  0.00    +0.214 C 
ATOM     34  H   UNL     1      20.603   4.435  20.746  0.00  0.00    +0.149 HD
BRANCH   6  23
ATOM     23  C   UNL     1      22.593   3.888  21.199  0.00  0.00    +0.119 C 
BRANCH  23  24
ATOM     24  C   UNL     1      23.646   4.701  20.458  0.00  0.00    +0.102 C 
BRANCH  24   7
ATOM      7  N   UNL     1      24.897   3.959  20.382  0.00  0.00    -0.307 NA
ATOM     30  C   UNL     1      25.731   4.466  19.289  0.00  0.00    +0.104 C 
ATOM     31  C   UNL     1      24.640   2.529  20.201  0.00  0.00    +0.104 C 
ENDBRANCH  24   7
ENDBRANCH  23  24
ENDBRANCH   6  23
ENDBRANCH  17  21
ENDBRANCH  12  17
TORSDOF 11
ENDMDL
MODEL 10
REMARK VINA RESULT:      -5.2     15.176     17.867
REMARK  Name = 38027396
REMARK  16 active torsions:
REMARK  status: ('A' for Active; 'I' for Inactive)
REMARK    1  A    between atoms: S_1  and  N_5
REMARK    2  A    between atoms: S_1  and  C_22
REMARK    3  A    between atoms: N_5  and  C_16
REMARK    4  A    between atoms: N_6  and  C_23
REMARK    5  A    between atoms: N_7  and  C_24
REMARK    6  A    between atoms: N_7  and  C_30
REMARK    7  A    between atoms: N_7  and  C_31
REMARK    8  A    between atoms: C_9  and  C_13
REMARK    9  A    between atoms: C_10  and  C_16
REMARK   10  A    between atoms: C_12  and  C_17
REMARK   11  A    between atoms: C_13  and  C_18
REMARK   12  A    between atoms: C_13  and  C_19
REMARK   13  A    between atoms: C_14  and  C_20
REMARK   14  A    between atoms: C_17  and  C_21
REMARK   15  A    between atoms: C_23  and  C_24
REMARK   16  A    between atoms: C_29  and  C_32
REMARK                            x       y       z     vdW  Elec       q    Type
REMARK                         _______ _______ _______ _____ _____    ______ ____
ROOT
ATOM      9  C   UNL     1      11.043   6.759   3.497  0.00  0.00    +0.000 C 
ATOM     10  C   UNL     1      10.292   5.404   3.512  0.00  0.00    +0.030 C 
ATOM     11  C   UNL     1      11.811   6.932   2.178  0.00  0.00    +0.012 C 
ATOM     12  C   UNL     1      12.836   5.804   1.950  0.00  0.00    +0.023 C 
ATOM     14  C   UNL     1      12.235   4.437   2.209  0.00  0.00    -0.073 C 
ATOM     15  C   UNL     1      11.091   4.279   2.897  0.00  0.00    -0.023 C 
ATOM     20  C   UNL     1      12.957   3.257   1.619  0.00  0.00    +0.039 C 
ENDROOT
BRANCH   9  13
ATOM     13  C   UNL     1      10.088   7.940   3.699  0.00  0.00    -0.013 C 
ATOM     18  C   UNL     1      10.843   9.261   3.578  0.00  0.00    +0.007 C 
ATOM     19  C   UNL     1       8.943   7.877   2.693  0.00  0.00    +0.007 C 
ENDBRANCH   9  13
BRANCH  10  16
ATOM     16  C   UNL     1       9.877   5.017   4.936  0.00  0.00    +0.113 C 
BRANCH  16   5
ATOM      5  N   UNL     1      11.016   5.229   5.843  0.00  0.00    -0.189 NA
ATOM     33  H   UNL     1      11.700   4.465   5.914  0.00  0.00    +0.148 HD
BRANCH   5   1
ATOM      1  S   UNL     1      10.869   6.286   7.171  0.00  0.00    +0.058 S 
ATOM      3  O   UNL     1      11.134   5.556   8.395  0.00  0.00    -0.153 OA
ATOM      4  O   UNL     1       9.650   7.059   7.030  0.00  0.00    -0.153 OA
BRANCH   1  22
ATOM     22  C   UNL     1      12.218   7.396   6.896  0.00  0.00    +0.105 A 
ATOM     25  C   UNL     1      12.038   8.769   7.065  0.00  0.00    +0.030 A 
ATOM     26  C   UNL     1      13.463   6.899   6.511  0.00  0.00    +0.030 A 
ATOM     27  C   UNL     1      13.101   9.645   6.850  0.00  0.00    +0.021 A 
ATOM     28  C   UNL     1      14.527   7.774   6.296  0.00  0.00    +0.021 A 
ATOM     29  C   UNL     1      14.347   9.147   6.464  0.00  0.00    +0.052 A 
BRANCH  29  32
ATOM      8  N   UNL     1      16.323  10.771   6.063  0.00  0.00    -0.191 NA
ATOM     32  C   UNL     1      15.437  10.044   6.243  0.00  0.00    +0.099 C 
ENDBRANCH  29  32
ENDBRANCH   1  22
ENDBRANCH   5   1
ENDBRANCH  16   5
ENDBRANCH  10  16
BRANCH  12  17
ATOM     17  C   UNL     1      14.094   6.020   2.796  0.00  0.00    +0.103 C 
BRANCH  17  21
ATOM      2  O   UNL     1      15.072   7.159   0.898  0.00  0.00    -0.276 OA
ATOM      6  N   UNL     1      16.057   7.371   2.993  0.00  0.00    -0.314 N 
ATOM     21  C   UNL     1      15.104   6.902   2.099  0.00  0.00    +0.214 C 
ATOM     34  H   UNL     1      16.000   7.107   3.971  0.00  0.00    +0.149 HD
BRANCH   6  23
ATOM     23  C   UNL     1      17.146   8.236   2.602  0.00  0.00    +0.119 C 
BRANCH  23  24
ATOM     24  C   UNL     1      18.087   8.501   3.769  0.00  0.00    +0.102 C 
BRANCH  24   7
ATOM      7  N   UNL     1      19.473   8.363   3.343  0.00  0.00    -0.307 NA
ATOM     30  C   UNL     1      19.543   7.987   1.929  0.00  0.00    +0.104 C 
ATOM     31  C   UNL     1      20.171   7.373   4.165  0.00  0.00    +0.104 C 
ENDBRANCH  24   7
ENDBRANCH  23  24
ENDBRANCH   6  23
ENDBRANCH  17  21
ENDBRANCH  12  17
TORSDOF 11
ENDMDL
