REMARK  Name = 75536068
REMARK  7 active torsions:
REMARK  status: ('A' for Active; 'I' for Inactive)
REMARK    1  A    between atoms: O_1  and  C_9
REMARK    2  A    between atoms: O_2  and  C_11
REMARK    3  A    between atoms: O_4  and  C_19
REMARK    4  A    between atoms: O_4  and  C_24
REMARK    5  A    between atoms: N_5  and  C_8
REMARK    6  A    between atoms: C_7  and  C_12
REMARK    7  A    between atoms: C_15  and  C_17
REMARK                            x       y       z     vdW  Elec       q    Type
REMARK                         _______ _______ _______ _____ _____    ______ ____
ROOT
ATOM      7  C   UNL     1       1.862  -0.398  -0.733  0.00  0.00    +0.046 C 
ATOM      8  C   UNL     1       1.094  -1.077   0.437  0.00  0.00    +0.112 C 
ATOM      9  C   UNL     1       1.700  -2.483   0.568  0.00  0.00    +0.164 C 
ATOM     10  C   UNL     1       2.966  -1.391  -1.132  0.00  0.00    +0.044 C 
ATOM     11  C   UNL     1       2.353  -2.739  -0.787  0.00  0.00    +0.145 C 
ENDROOT
BRANCH   7  12
ATOM      6  N   UNL     1       3.781   2.385   0.986  0.00  0.00    -0.263 NA
ATOM     12  C   UNL     1       2.391   0.981  -0.408  0.00  0.00    -0.024 A 
ATOM     13  C   UNL     1       2.006   2.090  -1.153  0.00  0.00    +0.007 A 
ATOM     14  C   UNL     1       3.273   1.180   0.642  0.00  0.00    +0.114 A 
ATOM     16  C   UNL     1       2.508   3.346  -0.830  0.00  0.00    +0.020 A 
ATOM     18  C   UNL     1       3.384   3.439   0.238  0.00  0.00    +0.111 A 
ENDBRANCH   7  12
BRANCH   8   5
ATOM      3  O   UNL     1      -0.894   0.855   1.195  0.00  0.00    -0.270 OA
ATOM      5  N   UNL     1      -0.322  -1.141   0.160  0.00  0.00    -0.305 N 
ATOM     15  C   UNL     1      -1.209  -0.154   0.568  0.00  0.00    +0.248 C 
ATOM     25  H   UNL     1      -0.643  -1.897  -0.436  0.00  0.00    +0.149 HD
BRANCH  15  17
ATOM     17  C   UNL     1      -2.638  -0.380   0.228  0.00  0.00    +0.078 A 
ATOM     19  C   UNL     1      -3.498   0.694   0.001  0.00  0.00    +0.132 A 
ATOM     20  C   UNL     1      -3.115  -1.687   0.137  0.00  0.00    +0.017 A 
ATOM     21  C   UNL     1      -4.836   0.461  -0.316  0.00  0.00    +0.046 A 
ATOM     22  C   UNL     1      -4.453  -1.921  -0.180  0.00  0.00    +0.001 A 
ATOM     23  C   UNL     1      -5.314  -0.847  -0.407  0.00  0.00    +0.004 A 
BRANCH  19   4
ATOM      4  O   UNL     1      -3.051   1.979   0.087  0.00  0.00    -0.494 OA
ATOM     24  C   UNL     1      -4.002   3.013  -0.161  0.00  0.00    +0.277 C 
ENDBRANCH  19   4
ENDBRANCH  15  17
ENDBRANCH   8   5
BRANCH   9   1
ATOM      1  O   UNL     1       2.683  -2.448   1.601  0.00  0.00    -0.387 OA
ATOM     26  H   UNL     1       2.219  -2.276   2.438  0.00  0.00    +0.210 HD
ENDBRANCH   9   1
BRANCH  11   2
ATOM      2  O   UNL     1       3.333  -3.756  -0.739  0.00  0.00    -0.389 OA
ATOM     27  H   UNL     1       3.758  -3.795  -1.612  0.00  0.00    +0.210 HD
ENDBRANCH  11   2
TORSDOF 6
