REMARK  Name = 26743856
REMARK  6 active torsions:
REMARK  status: ('A' for Active; 'I' for Inactive)
REMARK    1  A    between atoms: O_1  and  C_9
REMARK    2  A    between atoms: N_3  and  C_11
REMARK    3  A    between atoms: C_7  and  C_12
REMARK    4  A    between atoms: C_11  and  C_13
REMARK    5  A    between atoms: C_14  and  C_17
REMARK    6  A    between atoms: C_22  and  C_25
REMARK                            x       y       z     vdW  Elec       q    Type
REMARK                         _______ _______ _______ _____ _____    ______ ____
ROOT
ATOM      3  N   UNL     1       2.822  -0.416   0.494  0.00  0.00    -0.285 NA
ATOM      7  C   UNL     1       2.307  -0.912  -0.798  0.00  0.00    +0.149 C 
ATOM      8  C   UNL     1       2.591  -2.425  -0.781  0.00  0.00    +0.061 C 
ATOM      9  C   UNL     1       3.308  -2.676   0.540  0.00  0.00    +0.130 C 
ATOM     10  C   UNL     1       3.899  -1.323   0.886  0.00  0.00    +0.116 C 
ENDROOT
BRANCH   7  12
ATOM      2  O   UNL     1       0.525   0.126  -2.111  0.00  0.00    -0.336 OA
ATOM      4  N   UNL     1      -0.189  -0.912  -0.259  0.00  0.00    -0.190 NA
ATOM      5  N   UNL     1      -0.866   0.293  -2.082  0.00  0.00    -0.056 NA
ATOM     12  C   UNL     1       0.840  -0.594  -1.002  0.00  0.00    +0.245 A 
ATOM     14  C   UNL     1      -1.213  -0.347  -0.962  0.00  0.00    +0.202 A 
BRANCH  14  17
ATOM     17  C   UNL     1      -2.574  -0.440  -0.517  0.00  0.00    +0.023 A 
ATOM     19  C   UNL     1      -2.878  -1.121   0.662  0.00  0.00    +0.015 A 
ATOM     21  C   UNL     1      -3.593   0.152  -1.263  0.00  0.00    +0.012 A 
ATOM     22  C   UNL     1      -4.201  -1.210   1.095  0.00  0.00    -0.050 A 
ATOM     23  C   UNL     1      -4.916   0.062  -0.831  0.00  0.00    +0.001 A 
ATOM     24  C   UNL     1      -5.220  -0.618   0.349  0.00  0.00    +0.003 A 
ATOM     25  C   UNL     1      -4.526  -1.938   2.355  0.00  0.00    +0.044 C 
ENDBRANCH  14  17
ENDBRANCH   7  12
BRANCH   9   1
ATOM      1  O   UNL     1       4.310  -3.663   0.387  0.00  0.00    -0.390 OA
ATOM     26  H   UNL     1       3.873  -4.480   0.093  0.00  0.00    +0.210 HD
ENDBRANCH   9   1
BRANCH   3  11
ATOM     11  C   UNL     1       3.265   0.971   0.441  0.00  0.00    +0.122 C 
BRANCH  11  13
ATOM      6  N   UNL     1       0.858   3.743  -0.482  0.00  0.00    -0.263 NA
ATOM     13  C   UNL     1       2.109   1.933   0.519  0.00  0.00    -0.015 A 
ATOM     15  C   UNL     1       1.244   1.927   1.607  0.00  0.00    +0.008 A 
ATOM     16  C   UNL     1       1.875   2.852  -0.491  0.00  0.00    +0.115 A 
ATOM     18  C   UNL     1       0.186   2.828   1.652  0.00  0.00    +0.020 A 
ATOM     20  C   UNL     1       0.038   3.708   0.592  0.00  0.00    +0.111 A 
ENDBRANCH  11  13
ENDBRANCH   3  11
TORSDOF 5
