REMARK  Name = 75536539
REMARK  7 active torsions:
REMARK  status: ('A' for Active; 'I' for Inactive)
REMARK    1  A    between atoms: O_2  and  C_10
REMARK    2  A    between atoms: N_4  and  C_12
REMARK    3  A    between atoms: N_5  and  C_11
REMARK    4  A    between atoms: N_5  and  C_15
REMARK    5  A    between atoms: C_6  and  C_14
REMARK    6  A    between atoms: C_9  and  C_12
REMARK    7  A    between atoms: C_15  and  C_16
REMARK                            x       y       z     vdW  Elec       q    Type
REMARK                         _______ _______ _______ _____ _____    ______ ____
ROOT
ATOM      1  O   UNL     1       2.019  -1.127   1.390  0.00  0.00    -0.371 OA
ATOM      9  C   UNL     1       2.163  -1.948   0.219  0.00  0.00    +0.165 C 
ATOM     10  C   UNL     1       0.943  -1.664  -0.647  0.00  0.00    +0.164 C 
ATOM     11  C   UNL     1      -0.122  -1.445   0.412  0.00  0.00    +0.111 C 
ATOM     13  C   UNL     1       0.656  -0.675   1.466  0.00  0.00    +0.181 C 
ENDROOT
BRANCH  10   2
ATOM      2  O   UNL     1       0.643  -2.745  -1.507  0.00  0.00    -0.388 OA
ATOM     24  H   UNL     1       0.517  -3.542  -0.965  0.00  0.00    +0.210 HD
ENDBRANCH  10   2
BRANCH  11   5
ATOM      5  N   UNL     1      -1.287  -0.722  -0.072  0.00  0.00    -0.305 NA
ATOM     23  H   UNL     1      -1.570  -1.113  -0.972  0.00  0.00    +0.123 HD
BRANCH   5  15
ATOM     15  C   UNL     1      -2.400  -0.833   0.863  0.00  0.00    +0.116 C 
BRANCH  15  16
ATOM     16  C   UNL     1      -3.611  -0.076   0.385  0.00  0.00    -0.034 A 
ATOM     17  C   UNL     1      -3.784   1.261   0.742  0.00  0.00    +0.005 A 
ATOM     18  C   UNL     1      -4.560  -0.713  -0.415  0.00  0.00    +0.005 A 
ATOM     19  C   UNL     1      -4.906   1.962   0.300  0.00  0.00    +0.000 A 
ATOM     20  C   UNL     1      -5.682  -0.012  -0.858  0.00  0.00    +0.000 A 
ATOM     21  C   UNL     1      -5.855   1.325  -0.500  0.00  0.00    +0.000 A 
ENDBRANCH  15  16
ENDBRANCH   5  15
ENDBRANCH  11   5
BRANCH   9  12
ATOM     12  C   UNL     1       3.477  -1.631  -0.473  0.00  0.00    +0.138 C 
BRANCH  12   4
ATOM      3  O   UNL     1       4.521   0.575   1.109  0.00  0.00    -0.276 OA
ATOM      4  N   UNL     1       3.550  -0.247  -0.843  0.00  0.00    -0.313 N 
ATOM     14  C   UNL     1       4.068   0.741  -0.018  0.00  0.00    +0.216 C 
ATOM     22  H   UNL     1       3.217   0.013  -1.767  0.00  0.00    +0.149 HD
BRANCH  14   6
ATOM      6  C   UNL     1       4.048   2.112  -0.609  0.00  0.00    +0.075 C 
ATOM      7  C   UNL     1       2.747   2.658  -1.096  0.00  0.00    +0.013 C 
ATOM      8  C   UNL     1       3.373   3.204   0.152  0.00  0.00    +0.013 C 
ENDBRANCH  14   6
ENDBRANCH  12   4
ENDBRANCH   9  12
TORSDOF 7
