REMARK  Name = 75536536
REMARK  6 active torsions:
REMARK  status: ('A' for Active; 'I' for Inactive)
REMARK    1  A    between atoms: O_4  and  C_10
REMARK    2  A    between atoms: N_6  and  C_8
REMARK    3  A    between atoms: N_6  and  C_9
REMARK    4  A    between atoms: N_7  and  C_21
REMARK    5  A    between atoms: C_11  and  C_21
REMARK    6  A    between atoms: C_12  and  C_22
REMARK                            x       y       z     vdW  Elec       q    Type
REMARK                         _______ _______ _______ _____ _____    ______ ____
ROOT
ATOM      3  O   UNL     1       1.851   0.897  -1.429  0.00  0.00    -0.371 OA
ATOM      8  C   UNL     1      -0.125   0.915  -0.111  0.00  0.00    +0.111 C 
ATOM     10  C   UNL     1       1.024   1.468   0.712  0.00  0.00    +0.164 C 
ATOM     11  C   UNL     1       2.002   1.872  -0.384  0.00  0.00    +0.165 C 
ATOM     15  C   UNL     1       0.621   0.183  -1.215  0.00  0.00    +0.181 C 
ENDROOT
BRANCH  10   4
ATOM      4  O   UNL     1       0.642   2.572   1.510  0.00  0.00    -0.388 OA
ATOM     25  H   UNL     1       0.263   3.253   0.929  0.00  0.00    +0.210 HD
ENDBRANCH  10   4
BRANCH   8   6
ATOM      6  N   UNL     1      -1.017   0.048   0.641  0.00  0.00    -0.306 NA
ATOM     23  H   UNL     1      -1.213   0.452   1.556  0.00  0.00    +0.123 HD
BRANCH   6   9
ATOM      1  F   UNL     1      -5.553  -0.391   1.171  0.00  0.00    -0.206 F 
ATOM      2  F   UNL     1      -6.330  -0.694  -0.837  0.00  0.00    -0.206 F 
ATOM      9  C   UNL     1      -2.266  -0.168  -0.087  0.00  0.00    +0.054 C 
ATOM     13  C   UNL     1      -2.925  -1.470   0.386  0.00  0.00    +0.024 C 
ATOM     14  C   UNL     1      -3.199   1.032   0.114  0.00  0.00    +0.024 C 
ATOM     18  C   UNL     1      -4.271  -1.692  -0.303  0.00  0.00    +0.077 C 
ATOM     19  C   UNL     1      -4.544   0.811  -0.575  0.00  0.00    +0.077 C 
ATOM     20  C   UNL     1      -5.188  -0.493  -0.133  0.00  0.00    +0.249 C 
ENDBRANCH   6   9
ENDBRANCH   8   6
BRANCH  11  21
ATOM     21  C   UNL     1       3.446   1.905   0.083  0.00  0.00    +0.138 C 
BRANCH  21   7
ATOM      5  O   UNL     1       4.670  -0.239  -1.454  0.00  0.00    -0.276 OA
ATOM      7  N   UNL     1       3.870   0.620   0.559  0.00  0.00    -0.313 N 
ATOM     22  C   UNL     1       4.448  -0.345  -0.253  0.00  0.00    +0.216 C 
ATOM     24  H   UNL     1       3.751   0.420   1.548  0.00  0.00    +0.149 HD
BRANCH  22  12
ATOM     12  C   UNL     1       4.814  -1.607   0.454  0.00  0.00    +0.075 C 
ATOM     16  C   UNL     1       4.275  -2.898  -0.066  0.00  0.00    +0.013 C 
ATOM     17  C   UNL     1       3.755  -2.328   1.219  0.00  0.00    +0.013 C 
ENDBRANCH  22  12
ENDBRANCH  21   7
ENDBRANCH  11  21
TORSDOF 6
