MODEL 1
REMARK VINA RESULT:      -8.0      0.000      0.000
REMARK  Name = 75536113
REMARK  8 active torsions:
REMARK  status: ('A' for Active; 'I' for Inactive)
REMARK    1  A    between atoms: O_1  and  C_8
REMARK    2  A    between atoms: O_2  and  C_10
REMARK    3  A    between atoms: O_3  and  C_20
REMARK    4  A    between atoms: O_3  and  C_23
REMARK    5  A    between atoms: N_4  and  C_6
REMARK    6  A    between atoms: N_4  and  C_12
REMARK    7  A    between atoms: C_7  and  C_11
REMARK    8  A    between atoms: C_12  and  C_15
REMARK                            x       y       z     vdW  Elec       q    Type
REMARK                         _______ _______ _______ _____ _____    ______ ____
ROOT
ATOM      6  C   UNL     1      13.127   7.063  20.861  0.00  0.00    +0.093 C 
ATOM      7  C   UNL     1      12.621   8.441  20.334  0.00  0.00    +0.042 C 
ATOM      8  C   UNL     1      11.887   6.379  21.458  0.00  0.00    +0.160 C 
ATOM      9  C   UNL     1      11.117   8.491  20.668  0.00  0.00    +0.043 C 
ATOM     10  C   UNL     1      10.979   7.541  21.849  0.00  0.00    +0.145 C 
ENDROOT
BRANCH   7  11
ATOM      5  N   UNL     1      13.198   7.795  16.642  0.00  0.00    -0.263 NA
ATOM     11  C   UNL     1      12.915   8.688  18.870  0.00  0.00    -0.025 A 
ATOM     13  C   UNL     1      13.167   9.971  18.396  0.00  0.00    +0.007 A 
ATOM     14  C   UNL     1      12.942   7.644  17.960  0.00  0.00    +0.114 A 
ATOM     16  C   UNL     1      13.434  10.167  17.045  0.00  0.00    +0.020 A 
ATOM     17  C   UNL     1      13.438   9.056  16.217  0.00  0.00    +0.111 A 
ENDBRANCH   7  11
BRANCH   8   1
ATOM      1  O   UNL     1      11.279   5.584  20.441  0.00  0.00    -0.388 OA
ATOM     25  H   UNL     1      11.681   4.700  20.482  0.00  0.00    +0.210 HD
ENDBRANCH   8   1
BRANCH  10   2
ATOM      2  O   UNL     1       9.637   7.144  22.037  0.00  0.00    -0.389 OA
ATOM     26  H   UNL     1       9.625   6.475  22.742  0.00  0.00    +0.210 HD
ENDBRANCH  10   2
BRANCH   6   4
ATOM      4  N   UNL     1      14.129   7.277  21.908  0.00  0.00    -0.306 NA
ATOM     24  H   UNL     1      14.506   6.375  22.200  0.00  0.00    +0.123 HD
BRANCH   4  12
ATOM     12  C   UNL     1      15.227   8.098  21.416  0.00  0.00    +0.116 C 
BRANCH  12  15
ATOM     15  C   UNL     1      16.303   7.268  20.768  0.00  0.00    -0.030 A 
ATOM     18  C   UNL     1      17.549   7.143  21.378  0.00  0.00    +0.050 A 
ATOM     19  C   UNL     1      16.051   6.624  19.556  0.00  0.00    +0.005 A 
ATOM     20  C   UNL     1      18.547   6.374  20.777  0.00  0.00    +0.120 A 
ATOM     21  C   UNL     1      17.047   5.856  18.954  0.00  0.00    +0.004 A 
ATOM     22  C   UNL     1      18.296   5.731  19.565  0.00  0.00    +0.045 A 
BRANCH  20   3
ATOM      3  O   UNL     1      19.765   6.254  21.372  0.00  0.00    -0.495 OA
ATOM     23  C   UNL     1      19.864   6.666  22.735  0.00  0.00    +0.277 C 
ENDBRANCH  20   3
ENDBRANCH  12  15
ENDBRANCH   4  12
ENDBRANCH   6   4
TORSDOF 7
ENDMDL
MODEL 2
REMARK VINA RESULT:      -7.1      3.365      6.716
REMARK  Name = 75536113
REMARK  8 active torsions:
REMARK  status: ('A' for Active; 'I' for Inactive)
REMARK    1  A    between atoms: O_1  and  C_8
REMARK    2  A    between atoms: O_2  and  C_10
REMARK    3  A    between atoms: O_3  and  C_20
REMARK    4  A    between atoms: O_3  and  C_23
REMARK    5  A    between atoms: N_4  and  C_6
REMARK    6  A    between atoms: N_4  and  C_12
REMARK    7  A    between atoms: C_7  and  C_11
REMARK    8  A    between atoms: C_12  and  C_15
REMARK                            x       y       z     vdW  Elec       q    Type
REMARK                         _______ _______ _______ _____ _____    ______ ____
ROOT
ATOM      6  C   UNL     1      13.337   8.167  20.336  0.00  0.00    +0.093 C 
ATOM      7  C   UNL     1      14.458   8.298  19.259  0.00  0.00    +0.042 C 
ATOM      8  C   UNL     1      12.170   7.469  19.619  0.00  0.00    +0.160 C 
ATOM      9  C   UNL     1      13.877   7.683  17.971  0.00  0.00    +0.043 C 
ATOM     10  C   UNL     1      12.372   7.829  18.150  0.00  0.00    +0.145 C 
ENDROOT
BRANCH   7  11
ATOM      5  N   UNL     1      17.789   7.812  21.006  0.00  0.00    -0.263 NA
ATOM     11  C   UNL     1      15.780   7.685  19.667  0.00  0.00    -0.025 A 
ATOM     13  C   UNL     1      16.213   6.482  19.120  0.00  0.00    +0.007 A 
ATOM     14  C   UNL     1      16.598   8.305  20.598  0.00  0.00    +0.114 A 
ATOM     16  C   UNL     1      17.432   5.943  19.515  0.00  0.00    +0.020 A 
ATOM     17  C   UNL     1      18.177   6.641  20.452  0.00  0.00    +0.111 A 
ENDBRANCH   7  11
BRANCH   8   1
ATOM      1  O   UNL     1      12.299   6.062  19.817  0.00  0.00    -0.388 OA
ATOM     25  H   UNL     1      11.542   5.635  19.382  0.00  0.00    +0.210 HD
ENDBRANCH   8   1
BRANCH  10   2
ATOM      2  O   UNL     1      11.664   6.973  17.278  0.00  0.00    -0.389 OA
ATOM     26  H   UNL     1      10.752   7.305  17.218  0.00  0.00    +0.210 HD
ENDBRANCH  10   2
BRANCH   6   4
ATOM      4  N   UNL     1      12.923   9.501  20.776  0.00  0.00    -0.306 NA
ATOM     24  H   UNL     1      12.338   9.926  20.056  0.00  0.00    +0.123 HD
BRANCH   4  12
ATOM     12  C   UNL     1      12.154   9.426  22.010  0.00  0.00    +0.116 C 
BRANCH  12  15
ATOM     15  C   UNL     1      11.641  10.776  22.435  0.00  0.00    -0.030 A 
ATOM     18  C   UNL     1      11.271  10.996  23.761  0.00  0.00    +0.050 A 
ATOM     19  C   UNL     1      11.534  11.807  21.501  0.00  0.00    +0.005 A 
ATOM     20  C   UNL     1      10.794  12.247  24.155  0.00  0.00    +0.120 A 
ATOM     21  C   UNL     1      11.057  13.057  21.893  0.00  0.00    +0.004 A 
ATOM     22  C   UNL     1      10.688  13.277  23.220  0.00  0.00    +0.045 A 
BRANCH  20   3
ATOM      3  O   UNL     1      10.432  12.461  25.448  0.00  0.00    -0.495 OA
ATOM     23  C   UNL     1      10.531  13.798  25.937  0.00  0.00    +0.277 C 
ENDBRANCH  20   3
ENDBRANCH  12  15
ENDBRANCH   4  12
ENDBRANCH   6   4
TORSDOF 7
ENDMDL
MODEL 3
REMARK VINA RESULT:      -6.8      3.517      5.137
REMARK  Name = 75536113
REMARK  8 active torsions:
REMARK  status: ('A' for Active; 'I' for Inactive)
REMARK    1  A    between atoms: O_1  and  C_8
REMARK    2  A    between atoms: O_2  and  C_10
REMARK    3  A    between atoms: O_3  and  C_20
REMARK    4  A    between atoms: O_3  and  C_23
REMARK    5  A    between atoms: N_4  and  C_6
REMARK    6  A    between atoms: N_4  and  C_12
REMARK    7  A    between atoms: C_7  and  C_11
REMARK    8  A    between atoms: C_12  and  C_15
REMARK                            x       y       z     vdW  Elec       q    Type
REMARK                         _______ _______ _______ _____ _____    ______ ____
ROOT
ATOM      6  C   UNL     1      11.301  10.404  22.900  0.00  0.00    +0.093 C 
ATOM      7  C   UNL     1      12.725  11.005  22.687  0.00  0.00    +0.042 C 
ATOM      8  C   UNL     1      10.754  11.102  24.155  0.00  0.00    +0.160 C 
ATOM      9  C   UNL     1      12.935  12.007  23.838  0.00  0.00    +0.043 C 
ATOM     10  C   UNL     1      12.006  11.498  24.932  0.00  0.00    +0.145 C 
ENDROOT
BRANCH   7  11
ATOM      5  N   UNL     1      12.502  13.424  19.774  0.00  0.00    -0.263 NA
ATOM     11  C   UNL     1      12.939  11.616  21.319  0.00  0.00    -0.025 A 
ATOM     13  C   UNL     1      13.728  10.983  20.365  0.00  0.00    +0.007 A 
ATOM     14  C   UNL     1      12.353  12.824  20.976  0.00  0.00    +0.114 A 
ATOM     16  C   UNL     1      13.906  11.569  19.117  0.00  0.00    +0.020 A 
ATOM     17  C   UNL     1      13.277  12.779  18.873  0.00  0.00    +0.111 A 
ENDBRANCH   7  11
BRANCH   8   1
ATOM      1  O   UNL     1      10.027  12.259  23.745  0.00  0.00    -0.388 OA
ATOM     25  H   UNL     1       9.453  11.996  23.006  0.00  0.00    +0.210 HD
ENDBRANCH   8   1
BRANCH  10   2
ATOM      2  O   UNL     1      11.754  12.496  25.899  0.00  0.00    -0.389 OA
ATOM     26  H   UNL     1      12.471  12.456  26.555  0.00  0.00    +0.210 HD
ENDBRANCH  10   2
BRANCH   6   4
ATOM      4  N   UNL     1      11.409   8.963  23.139  0.00  0.00    -0.306 NA
ATOM     24  H   UNL     1      11.017   8.745  24.056  0.00  0.00    +0.123 HD
BRANCH   4  12
ATOM     12  C   UNL     1      10.672   8.213  22.132  0.00  0.00    +0.116 C 
BRANCH  12  15
ATOM     15  C   UNL     1      11.458   8.063  20.857  0.00  0.00    -0.030 A 
ATOM     18  C   UNL     1      12.675   7.383  20.863  0.00  0.00    +0.050 A 
ATOM     19  C   UNL     1      10.968   8.605  19.668  0.00  0.00    +0.005 A 
ATOM     20  C   UNL     1      13.404   7.245  19.682  0.00  0.00    +0.120 A 
ATOM     21  C   UNL     1      11.696   8.467  18.487  0.00  0.00    +0.004 A 
ATOM     22  C   UNL     1      12.915   7.787  18.493  0.00  0.00    +0.045 A 
BRANCH  20   3
ATOM      3  O   UNL     1      14.593   6.583  19.689  0.00  0.00    -0.495 OA
ATOM     23  C   UNL     1      15.337   6.600  20.907  0.00  0.00    +0.277 C 
ENDBRANCH  20   3
ENDBRANCH  12  15
ENDBRANCH   4  12
ENDBRANCH   6   4
TORSDOF 7
ENDMDL
MODEL 4
REMARK VINA RESULT:      -6.4     30.242     32.221
REMARK  Name = 75536113
REMARK  8 active torsions:
REMARK  status: ('A' for Active; 'I' for Inactive)
REMARK    1  A    between atoms: O_1  and  C_8
REMARK    2  A    between atoms: O_2  and  C_10
REMARK    3  A    between atoms: O_3  and  C_20
REMARK    4  A    between atoms: O_3  and  C_23
REMARK    5  A    between atoms: N_4  and  C_6
REMARK    6  A    between atoms: N_4  and  C_12
REMARK    7  A    between atoms: C_7  and  C_11
REMARK    8  A    between atoms: C_12  and  C_15
REMARK                            x       y       z     vdW  Elec       q    Type
REMARK                         _______ _______ _______ _____ _____    ______ ____
ROOT
ATOM      6  C   UNL     1     -14.805   2.192  31.230  0.00  0.00    +0.093 C 
ATOM      7  C   UNL     1     -16.110   2.016  30.394  0.00  0.00    +0.042 C 
ATOM      8  C   UNL     1     -13.927   0.984  30.867  0.00  0.00    +0.160 C 
ATOM      9  C   UNL     1     -15.927   0.706  29.603  0.00  0.00    +0.043 C 
ATOM     10  C   UNL     1     -14.930  -0.084  30.439  0.00  0.00    +0.145 C 
ENDROOT
BRANCH   7  11
ATOM      5  N   UNL     1     -17.038   4.049  27.330  0.00  0.00    -0.263 NA
ATOM     11  C   UNL     1     -16.445   3.201  29.515  0.00  0.00    -0.025 A 
ATOM     13  C   UNL     1     -16.476   4.491  30.032  0.00  0.00    +0.007 A 
ATOM     14  C   UNL     1     -16.732   3.035  28.170  0.00  0.00    +0.114 A 
ATOM     16  C   UNL     1     -16.788   5.561  29.200  0.00  0.00    +0.020 A 
ATOM     17  C   UNL     1     -17.058   5.289  27.869  0.00  0.00    +0.111 A 
ENDBRANCH   7  11
BRANCH   8   1
ATOM      1  O   UNL     1     -13.085   1.353  29.776  0.00  0.00    -0.388 OA
ATOM     25  H   UNL     1     -12.170   1.143  30.030  0.00  0.00    +0.210 HD
ENDBRANCH   8   1
BRANCH  10   2
ATOM      2  O   UNL     1     -14.334  -1.120  29.687  0.00  0.00    -0.389 OA
ATOM     26  H   UNL     1     -14.167  -0.775  28.794  0.00  0.00    +0.210 HD
ENDBRANCH  10   2
BRANCH   6   4
ATOM      4  N   UNL     1     -15.130   2.160  32.658  0.00  0.00    -0.306 NA
ATOM     24  H   UNL     1     -14.925   1.231  33.027  0.00  0.00    +0.123 HD
BRANCH   4  12
ATOM     12  C   UNL     1     -14.337   3.134  33.394  0.00  0.00    +0.116 C 
BRANCH  12  15
ATOM     15  C   UNL     1     -14.880   4.530  33.241  0.00  0.00    -0.030 A 
ATOM     18  C   UNL     1     -14.087   5.529  32.678  0.00  0.00    +0.050 A 
ATOM     19  C   UNL     1     -16.176   4.824  33.664  0.00  0.00    +0.005 A 
ATOM     20  C   UNL     1     -14.590   6.823  32.537  0.00  0.00    +0.120 A 
ATOM     21  C   UNL     1     -16.679   6.117  33.524  0.00  0.00    +0.004 A 
ATOM     22  C   UNL     1     -15.886   7.117  32.960  0.00  0.00    +0.045 A 
BRANCH  20   3
ATOM      3  O   UNL     1     -13.815   7.798  31.989  0.00  0.00    -0.495 OA
ATOM     23  C   UNL     1     -12.583   8.094  32.645  0.00  0.00    +0.277 C 
ENDBRANCH  20   3
ENDBRANCH  12  15
ENDBRANCH   4  12
ENDBRANCH   6   4
TORSDOF 7
ENDMDL
MODEL 5
REMARK VINA RESULT:      -6.3     30.719     31.824
REMARK  Name = 75536113
REMARK  8 active torsions:
REMARK  status: ('A' for Active; 'I' for Inactive)
REMARK    1  A    between atoms: O_1  and  C_8
REMARK    2  A    between atoms: O_2  and  C_10
REMARK    3  A    between atoms: O_3  and  C_20
REMARK    4  A    between atoms: O_3  and  C_23
REMARK    5  A    between atoms: N_4  and  C_6
REMARK    6  A    between atoms: N_4  and  C_12
REMARK    7  A    between atoms: C_7  and  C_11
REMARK    8  A    between atoms: C_12  and  C_15
REMARK                            x       y       z     vdW  Elec       q    Type
REMARK                         _______ _______ _______ _____ _____    ______ ____
ROOT
ATOM      6  C   UNL     1     -13.967   1.379  29.587  0.00  0.00    +0.093 C 
ATOM      7  C   UNL     1     -15.500   1.660  29.513  0.00  0.00    +0.042 C 
ATOM      8  C   UNL     1     -13.843  -0.004  30.246  0.00  0.00    +0.160 C 
ATOM      9  C   UNL     1     -16.182   0.432  30.147  0.00  0.00    +0.043 C 
ATOM     10  C   UNL     1     -15.117  -0.133  31.075  0.00  0.00    +0.145 C 
ENDROOT
BRANCH   7  11
ATOM      5  N   UNL     1     -16.395   3.601  26.380  0.00  0.00    -0.263 NA
ATOM     11  C   UNL     1     -16.005   1.968  28.120  0.00  0.00    -0.025 A 
ATOM     13  C   UNL     1     -16.525   0.968  27.307  0.00  0.00    +0.007 A 
ATOM     14  C   UNL     1     -15.962   3.258  27.614  0.00  0.00    +0.114 A 
ATOM     16  C   UNL     1     -16.981   1.282  26.032  0.00  0.00    +0.020 A 
ATOM     17  C   UNL     1     -16.895   2.601  25.619  0.00  0.00    +0.111 A 
ENDBRANCH   7  11
BRANCH   8   1
ATOM      1  O   UNL     1     -13.808  -0.990  29.216  0.00  0.00    -0.388 OA
ATOM     25  H   UNL     1     -14.668  -1.443  29.216  0.00  0.00    +0.210 HD
ENDBRANCH   8   1
BRANCH  10   2
ATOM      2  O   UNL     1     -15.400  -1.469  31.433  0.00  0.00    -0.389 OA
ATOM     26  H   UNL     1     -14.593  -1.846  31.823  0.00  0.00    +0.210 HD
ENDBRANCH  10   2
BRANCH   6   4
ATOM      4  N   UNL     1     -13.325   2.391  30.429  0.00  0.00    -0.306 NA
ATOM     24  H   UNL     1     -12.475   2.720  29.969  0.00  0.00    +0.123 HD
BRANCH   4  12
ATOM     12  C   UNL     1     -14.207   3.531  30.637  0.00  0.00    +0.116 C 
BRANCH  12  15
ATOM     15  C   UNL     1     -14.243   3.957  32.080  0.00  0.00    -0.030 A 
ATOM     18  C   UNL     1     -13.985   5.284  32.422  0.00  0.00    +0.050 A 
ATOM     19  C   UNL     1     -14.535   3.024  33.076  0.00  0.00    +0.005 A 
ATOM     20  C   UNL     1     -14.017   5.679  33.760  0.00  0.00    +0.120 A 
ATOM     21  C   UNL     1     -14.567   3.418  34.413  0.00  0.00    +0.004 A 
ATOM     22  C   UNL     1     -14.309   4.746  34.755  0.00  0.00    +0.045 A 
BRANCH  20   3
ATOM      3  O   UNL     1     -13.763   6.973  34.094  0.00  0.00    -0.495 OA
ATOM     23  C   UNL     1     -13.262   7.822  33.062  0.00  0.00    +0.277 C 
ENDBRANCH  20   3
ENDBRANCH  12  15
ENDBRANCH   4  12
ENDBRANCH   6   4
TORSDOF 7
ENDMDL
MODEL 6
REMARK VINA RESULT:      -6.3      2.397      5.676
REMARK  Name = 75536113
REMARK  8 active torsions:
REMARK  status: ('A' for Active; 'I' for Inactive)
REMARK    1  A    between atoms: O_1  and  C_8
REMARK    2  A    between atoms: O_2  and  C_10
REMARK    3  A    between atoms: O_3  and  C_20
REMARK    4  A    between atoms: O_3  and  C_23
REMARK    5  A    between atoms: N_4  and  C_6
REMARK    6  A    between atoms: N_4  and  C_12
REMARK    7  A    between atoms: C_7  and  C_11
REMARK    8  A    between atoms: C_12  and  C_15
REMARK                            x       y       z     vdW  Elec       q    Type
REMARK                         _______ _______ _______ _____ _____    ______ ____
ROOT
ATOM      6  C   UNL     1      13.139   9.507  20.748  0.00  0.00    +0.093 C 
ATOM      7  C   UNL     1      13.484   8.273  19.858  0.00  0.00    +0.042 C 
ATOM      8  C   UNL     1      11.829   9.136  21.461  0.00  0.00    +0.160 C 
ATOM      9  C   UNL     1      12.347   7.259  20.088  0.00  0.00    +0.043 C 
ATOM     10  C   UNL     1      11.174   8.125  20.524  0.00  0.00    +0.145 C 
ENDROOT
BRANCH   7  11
ATOM      5  N   UNL     1      16.831   7.590  21.505  0.00  0.00    -0.263 NA
ATOM     11  C   UNL     1      14.859   7.695  20.110  0.00  0.00    -0.025 A 
ATOM     13  C   UNL     1      15.422   6.773  19.234  0.00  0.00    +0.007 A 
ATOM     14  C   UNL     1      15.598   8.067  21.222  0.00  0.00    +0.114 A 
ATOM     16  C   UNL     1      16.687   6.259  19.493  0.00  0.00    +0.020 A 
ATOM     17  C   UNL     1      17.345   6.695  20.631  0.00  0.00    +0.111 A 
ENDBRANCH   7  11
BRANCH   8   1
ATOM      1  O   UNL     1      12.154   8.529  22.711  0.00  0.00    -0.388 OA
ATOM     25  H   UNL     1      13.099   8.304  22.689  0.00  0.00    +0.210 HD
ENDBRANCH   8   1
BRANCH  10   2
ATOM      2  O   UNL     1      10.175   7.358  21.163  0.00  0.00    -0.389 OA
ATOM     26  H   UNL     1       9.492   7.972  21.480  0.00  0.00    +0.210 HD
ENDBRANCH  10   2
BRANCH   6   4
ATOM      4  N   UNL     1      12.928  10.681  19.897  0.00  0.00    -0.306 NA
ATOM     24  H   UNL     1      12.537  11.437  20.461  0.00  0.00    +0.123 HD
BRANCH   4  12
ATOM     12  C   UNL     1      14.184  11.137  19.320  0.00  0.00    +0.116 C 
BRANCH  12  15
ATOM     15  C   UNL     1      14.169  11.067  17.816  0.00  0.00    -0.030 A 
ATOM     18  C   UNL     1      13.333  10.160  17.169  0.00  0.00    +0.050 A 
ATOM     19  C   UNL     1      14.994  11.910  17.071  0.00  0.00    +0.005 A 
ATOM     20  C   UNL     1      13.319  10.093  15.775  0.00  0.00    +0.120 A 
ATOM     21  C   UNL     1      14.981  11.845  15.678  0.00  0.00    +0.004 A 
ATOM     22  C   UNL     1      14.143  10.937  15.030  0.00  0.00    +0.045 A 
BRANCH  20   3
ATOM      3  O   UNL     1      12.504   9.206  15.143  0.00  0.00    -0.495 OA
ATOM     23  C   UNL     1      11.133   9.191  15.537  0.00  0.00    +0.277 C 
ENDBRANCH  20   3
ENDBRANCH  12  15
ENDBRANCH   4  12
ENDBRANCH   6   4
TORSDOF 7
ENDMDL
MODEL 7
REMARK VINA RESULT:      -6.2     15.553     18.966
REMARK  Name = 75536113
REMARK  8 active torsions:
REMARK  status: ('A' for Active; 'I' for Inactive)
REMARK    1  A    between atoms: O_1  and  C_8
REMARK    2  A    between atoms: O_2  and  C_10
REMARK    3  A    between atoms: O_3  and  C_20
REMARK    4  A    between atoms: O_3  and  C_23
REMARK    5  A    between atoms: N_4  and  C_6
REMARK    6  A    between atoms: N_4  and  C_12
REMARK    7  A    between atoms: C_7  and  C_11
REMARK    8  A    between atoms: C_12  and  C_15
REMARK                            x       y       z     vdW  Elec       q    Type
REMARK                         _______ _______ _______ _____ _____    ______ ____
ROOT
ATOM      6  C   UNL     1      12.832   5.451   1.729  0.00  0.00    +0.093 C 
ATOM      7  C   UNL     1      12.191   4.154   1.143  0.00  0.00    +0.042 C 
ATOM      8  C   UNL     1      14.342   5.169   1.772  0.00  0.00    +0.160 C 
ATOM      9  C   UNL     1      13.361   3.184   0.894  0.00  0.00    +0.043 C 
ATOM     10  C   UNL     1      14.430   3.649   1.872  0.00  0.00    +0.145 C 
ENDROOT
BRANCH   7  11
ATOM      5  N   UNL     1      10.839   3.841  -2.386  0.00  0.00    -0.263 NA
ATOM     11  C   UNL     1      11.338   4.387  -0.085  0.00  0.00    -0.025 A 
ATOM     13  C   UNL     1      10.303   5.316  -0.074  0.00  0.00    +0.007 A 
ATOM     14  C   UNL     1      11.563   3.681  -1.256  0.00  0.00    +0.114 A 
ATOM     16  C   UNL     1       9.537   5.508  -1.218  0.00  0.00    +0.020 A 
ATOM     17  C   UNL     1       9.842   4.753  -2.338  0.00  0.00    +0.111 A 
ENDBRANCH   7  11
BRANCH   8   1
ATOM      1  O   UNL     1      14.920   5.629   0.551  0.00  0.00    -0.388 OA
ATOM     25  H   UNL     1      14.489   5.148  -0.175  0.00  0.00    +0.210 HD
ENDBRANCH   8   1
BRANCH  10   2
ATOM      2  O   UNL     1      15.705   3.153   1.518  0.00  0.00    -0.389 OA
ATOM     26  H   UNL     1      16.330   3.433   2.209  0.00  0.00    +0.210 HD
ENDBRANCH  10   2
BRANCH   6   4
ATOM      4  N   UNL     1      12.328   5.676   3.086  0.00  0.00    -0.306 NA
ATOM     24  H   UNL     1      12.082   6.660   3.192  0.00  0.00    +0.123 HD
BRANCH   4  12
ATOM     12  C   UNL     1      11.141   4.872   3.340  0.00  0.00    +0.116 C 
BRANCH  12  15
ATOM     15  C   UNL     1      10.149   5.595   4.211  0.00  0.00    -0.030 A 
ATOM     18  C   UNL     1      10.035   5.265   5.560  0.00  0.00    +0.050 A 
ATOM     19  C   UNL     1       9.344   6.597   3.667  0.00  0.00    +0.005 A 
ATOM     20  C   UNL     1       9.115   5.935   6.368  0.00  0.00    +0.120 A 
ATOM     21  C   UNL     1       8.424   7.266   4.473  0.00  0.00    +0.004 A 
ATOM     22  C   UNL     1       8.310   6.936   5.824  0.00  0.00    +0.045 A 
BRANCH  20   3
ATOM      3  O   UNL     1       9.002   5.611   7.684  0.00  0.00    -0.495 OA
ATOM     23  C   UNL     1      10.046   4.819   8.249  0.00  0.00    +0.277 C 
ENDBRANCH  20   3
ENDBRANCH  12  15
ENDBRANCH   4  12
ENDBRANCH   6   4
TORSDOF 7
ENDMDL
MODEL 8
REMARK VINA RESULT:      -6.2     25.357     27.764
REMARK  Name = 75536113
REMARK  8 active torsions:
REMARK  status: ('A' for Active; 'I' for Inactive)
REMARK    1  A    between atoms: O_1  and  C_8
REMARK    2  A    between atoms: O_2  and  C_10
REMARK    3  A    between atoms: O_3  and  C_20
REMARK    4  A    between atoms: O_3  and  C_23
REMARK    5  A    between atoms: N_4  and  C_6
REMARK    6  A    between atoms: N_4  and  C_12
REMARK    7  A    between atoms: C_7  and  C_11
REMARK    8  A    between atoms: C_12  and  C_15
REMARK                            x       y       z     vdW  Elec       q    Type
REMARK                         _______ _______ _______ _____ _____    ______ ____
ROOT
ATOM      6  C   UNL     1      -4.455 -11.112  15.144  0.00  0.00    +0.093 C 
ATOM      7  C   UNL     1      -4.330 -10.561  16.599  0.00  0.00    +0.042 C 
ATOM      8  C   UNL     1      -3.045 -11.603  14.778  0.00  0.00    +0.160 C 
ATOM      9  C   UNL     1      -2.853 -10.748  16.993  0.00  0.00    +0.043 C 
ATOM     10  C   UNL     1      -2.123 -10.764  15.658  0.00  0.00    +0.145 C 
ENDROOT
BRANCH   7  11
ATOM      5  N   UNL     1      -6.998 -12.846  18.030  0.00  0.00    -0.263 NA
ATOM     11  C   UNL     1      -5.293 -11.192  17.582  0.00  0.00    -0.025 A 
ATOM     13  C   UNL     1      -5.380 -10.738  18.893  0.00  0.00    +0.007 A 
ATOM     14  C   UNL     1      -6.117 -12.240  17.203  0.00  0.00    +0.114 A 
ATOM     16  C   UNL     1      -6.274 -11.337  19.773  0.00  0.00    +0.020 A 
ATOM     17  C   UNL     1      -7.054 -12.377  19.297  0.00  0.00    +0.111 A 
ENDBRANCH   7  11
BRANCH   8   1
ATOM      1  O   UNL     1      -2.949 -12.985  15.119  0.00  0.00    -0.388 OA
ATOM     25  H   UNL     1      -2.416 -13.419  14.432  0.00  0.00    +0.210 HD
ENDBRANCH   8   1
BRANCH  10   2
ATOM      2  O   UNL     1      -0.832 -11.324  15.782  0.00  0.00    -0.389 OA
ATOM     26  H   UNL     1      -0.757 -12.036  15.124  0.00  0.00    +0.210 HD
ENDBRANCH  10   2
BRANCH   6   4
ATOM      4  N   UNL     1      -4.853 -10.028  14.243  0.00  0.00    -0.306 NA
ATOM     24  H   UNL     1      -4.019  -9.548  13.906  0.00  0.00    +0.123 HD
BRANCH   4  12
ATOM     12  C   UNL     1      -5.582 -10.549  13.095  0.00  0.00    +0.116 C 
BRANCH  12  15
ATOM     15  C   UNL     1      -5.099  -9.945  11.803  0.00  0.00    -0.030 A 
ATOM     18  C   UNL     1      -6.005  -9.341  10.934  0.00  0.00    +0.050 A 
ATOM     19  C   UNL     1      -3.743  -9.992  11.476  0.00  0.00    +0.005 A 
ATOM     20  C   UNL     1      -5.558  -8.783   9.736  0.00  0.00    +0.120 A 
ATOM     21  C   UNL     1      -3.295  -9.435  10.279  0.00  0.00    +0.004 A 
ATOM     22  C   UNL     1      -4.202  -8.829   9.409  0.00  0.00    +0.045 A 
BRANCH  20   3
ATOM      3  O   UNL     1      -6.443  -8.194   8.886  0.00  0.00    -0.495 OA
ATOM     23  C   UNL     1      -7.821  -8.237   9.254  0.00  0.00    +0.277 C 
ENDBRANCH  20   3
ENDBRANCH  12  15
ENDBRANCH   4  12
ENDBRANCH   6   4
TORSDOF 7
ENDMDL
MODEL 9
REMARK VINA RESULT:      -6.1     30.760     32.590
REMARK  Name = 75536113
REMARK  8 active torsions:
REMARK  status: ('A' for Active; 'I' for Inactive)
REMARK    1  A    between atoms: O_1  and  C_8
REMARK    2  A    between atoms: O_2  and  C_10
REMARK    3  A    between atoms: O_3  and  C_20
REMARK    4  A    between atoms: O_3  and  C_23
REMARK    5  A    between atoms: N_4  and  C_6
REMARK    6  A    between atoms: N_4  and  C_12
REMARK    7  A    between atoms: C_7  and  C_11
REMARK    8  A    between atoms: C_12  and  C_15
REMARK                            x       y       z     vdW  Elec       q    Type
REMARK                         _______ _______ _______ _____ _____    ______ ____
ROOT
ATOM      6  C   UNL     1     -15.955   0.663  30.033  0.00  0.00    +0.093 C 
ATOM      7  C   UNL     1     -14.935   1.839  29.915  0.00  0.00    +0.042 C 
ATOM      8  C   UNL     1     -15.096  -0.594  30.244  0.00  0.00    +0.160 C 
ATOM      9  C   UNL     1     -13.540   1.199  30.046  0.00  0.00    +0.043 C 
ATOM     10  C   UNL     1     -13.760  -0.240  29.598  0.00  0.00    +0.145 C 
ENDROOT
BRANCH   7  11
ATOM      5  N   UNL     1     -15.215   3.718  33.197  0.00  0.00    -0.263 NA
ATOM     11  C   UNL     1     -15.171   2.962  30.901  0.00  0.00    -0.025 A 
ATOM     13  C   UNL     1     -15.545   4.229  30.469  0.00  0.00    +0.007 A 
ATOM     14  C   UNL     1     -15.021   2.760  32.264  0.00  0.00    +0.114 A 
ATOM     16  C   UNL     1     -15.754   5.242  31.399  0.00  0.00    +0.020 A 
ATOM     17  C   UNL     1     -15.578   4.938  32.739  0.00  0.00    +0.111 A 
ENDBRANCH   7  11
BRANCH   8   1
ATOM      1  O   UNL     1     -14.941  -0.802  31.647  0.00  0.00    -0.388 OA
ATOM     25  H   UNL     1     -14.094  -0.404  31.909  0.00  0.00    +0.210 HD
ENDBRANCH   8   1
BRANCH  10   2
ATOM      2  O   UNL     1     -12.709  -1.080  30.027  0.00  0.00    -0.389 OA
ATOM     26  H   UNL     1     -13.095  -1.945  30.245  0.00  0.00    +0.210 HD
ENDBRANCH  10   2
BRANCH   6   4
ATOM      4  N   UNL     1     -16.713   0.545  28.786  0.00  0.00    -0.306 NA
ATOM     24  H   UNL     1     -17.711   0.571  28.997  0.00  0.00    +0.123 HD
BRANCH   4  12
ATOM     12  C   UNL     1     -16.403   1.645  27.883  0.00  0.00    +0.116 C 
BRANCH  12  15
ATOM     15  C   UNL     1     -17.007   1.439  26.519  0.00  0.00    -0.030 A 
ATOM     18  C   UNL     1     -16.492   2.121  25.418  0.00  0.00    +0.050 A 
ATOM     19  C   UNL     1     -18.082   0.564  26.358  0.00  0.00    +0.005 A 
ATOM     20  C   UNL     1     -17.051   1.931  24.155  0.00  0.00    +0.120 A 
ATOM     21  C   UNL     1     -18.642   0.374  25.095  0.00  0.00    +0.004 A 
ATOM     22  C   UNL     1     -18.126   1.057  23.993  0.00  0.00    +0.045 A 
BRANCH  20   3
ATOM      3  O   UNL     1     -16.550   2.599  23.081  0.00  0.00    -0.495 OA
ATOM     23  C   UNL     1     -16.860   3.988  22.979  0.00  0.00    +0.277 C 
ENDBRANCH  20   3
ENDBRANCH  12  15
ENDBRANCH   4  12
ENDBRANCH   6   4
TORSDOF 7
ENDMDL
MODEL 10
REMARK VINA RESULT:      -6.1     13.725     17.353
REMARK  Name = 75536113
REMARK  8 active torsions:
REMARK  status: ('A' for Active; 'I' for Inactive)
REMARK    1  A    between atoms: O_1  and  C_8
REMARK    2  A    between atoms: O_2  and  C_10
REMARK    3  A    between atoms: O_3  and  C_20
REMARK    4  A    between atoms: O_3  and  C_23
REMARK    5  A    between atoms: N_4  and  C_6
REMARK    6  A    between atoms: N_4  and  C_12
REMARK    7  A    between atoms: C_7  and  C_11
REMARK    8  A    between atoms: C_12  and  C_15
REMARK                            x       y       z     vdW  Elec       q    Type
REMARK                         _______ _______ _______ _____ _____    ______ ____
ROOT
ATOM      6  C   UNL     1      10.399   6.596   6.076  0.00  0.00    +0.093 C 
ATOM      7  C   UNL     1      10.063   5.364   5.179  0.00  0.00    +0.042 C 
ATOM      8  C   UNL     1      10.616   6.021   7.485  0.00  0.00    +0.160 C 
ATOM      9  C   UNL     1      10.087   4.143   6.118  0.00  0.00    +0.043 C 
ATOM     10  C   UNL     1       9.793   4.736   7.488  0.00  0.00    +0.145 C 
ENDROOT
BRANCH   7  11
ATOM      5  N   UNL     1      12.731   6.115   2.591  0.00  0.00    -0.263 NA
ATOM     11  C   UNL     1      10.970   5.210   3.977  0.00  0.00    -0.025 A 
ATOM     13  C   UNL     1      10.904   4.082   3.168  0.00  0.00    +0.007 A 
ATOM     14  C   UNL     1      11.893   6.190   3.649  0.00  0.00    +0.114 A 
ATOM     16  C   UNL     1      11.750   3.968   2.071  0.00  0.00    +0.020 A 
ATOM     17  C   UNL     1      12.638   5.003   1.827  0.00  0.00    +0.111 A 
ENDBRANCH   7  11
BRANCH   8   1
ATOM      1  O   UNL     1      12.004   5.732   7.643  0.00  0.00    -0.388 OA
ATOM     25  H   UNL     1      12.194   5.724   8.596  0.00  0.00    +0.210 HD
ENDBRANCH   8   1
BRANCH  10   2
ATOM      2  O   UNL     1      10.168   3.852   8.524  0.00  0.00    -0.389 OA
ATOM     26  H   UNL     1      11.138   3.787   8.517  0.00  0.00    +0.210 HD
ENDBRANCH  10   2
BRANCH   6   4
ATOM      4  N   UNL     1       9.262   7.519   6.085  0.00  0.00    -0.306 NA
ATOM     24  H   UNL     1       9.581   8.447   5.804  0.00  0.00    +0.123 HD
BRANCH   4  12
ATOM     12  C   UNL     1       8.231   7.084   5.153  0.00  0.00    +0.116 C 
BRANCH  12  15
ATOM     15  C   UNL     1       8.057   8.054   4.015  0.00  0.00    -0.030 A 
ATOM     18  C   UNL     1       7.226   9.162   4.164  0.00  0.00    +0.050 A 
ATOM     19  C   UNL     1       8.728   7.843   2.810  0.00  0.00    +0.005 A 
ATOM     20  C   UNL     1       7.063  10.061   3.110  0.00  0.00    +0.120 A 
ATOM     21  C   UNL     1       8.567   8.740   1.755  0.00  0.00    +0.004 A 
ATOM     22  C   UNL     1       7.735   9.850   1.905  0.00  0.00    +0.045 A 
BRANCH  20   3
ATOM      3  O   UNL     1       6.250  11.142   3.255  0.00  0.00    -0.495 OA
ATOM     23  C   UNL     1       5.654  11.337   4.537  0.00  0.00    +0.277 C 
ENDBRANCH  20   3
ENDBRANCH  12  15
ENDBRANCH   4  12
ENDBRANCH   6   4
TORSDOF 7
ENDMDL
