MODEL 1
REMARK VINA RESULT:      -6.0      0.000      0.000
REMARK  Name = 40777125
REMARK  9 active torsions:
REMARK  status: ('A' for Active; 'I' for Inactive)
REMARK    1  A    between atoms: S_2  and  N_6
REMARK    2  A    between atoms: S_2  and  C_21
REMARK    3  A    between atoms: N_6  and  C_16
REMARK    4  A    between atoms: C_10  and  C_17
REMARK    5  A    between atoms: C_11  and  C_16
REMARK    6  A    between atoms: C_19  and  C_22
REMARK    7  A    between atoms: C_20  and  C_24
REMARK    8  A    between atoms: C_21  and  C_23
REMARK    9  A    between atoms: C_23  and  C_25
REMARK                            x       y       z     vdW  Elec       q    Type
REMARK                         _______ _______ _______ _____ _____    ______ ____
ROOT
ATOM      5  N   UNL     1       9.954   6.930   7.695  0.00  0.00    -0.297 NA
ATOM      9  C   UNL     1       9.840   5.053   5.893  0.00  0.00    +0.002 C 
ATOM     10  C   UNL     1      11.175   5.840   5.775  0.00  0.00    +0.055 C 
ATOM     11  C   UNL     1       8.659   7.000   6.969  0.00  0.00    +0.072 C 
ATOM     12  C   UNL     1       8.656   6.034   5.764  0.00  0.00    +0.024 C 
ATOM     13  C   UNL     1       9.793   4.469   7.321  0.00  0.00    +0.019 C 
ATOM     14  C   UNL     1      11.082   7.058   6.738  0.00  0.00    +0.094 C 
ATOM     15  C   UNL     1      10.042   5.596   8.338  0.00  0.00    +0.085 C 
ENDROOT
BRANCH  10  17
ATOM      7  N   UNL     1      12.180   7.473   4.257  0.00  0.00    -0.237 NA
ATOM      8  N   UNL     1      12.527   7.008   1.918  0.00  0.00    -0.232 NA
ATOM     17  C   UNL     1      11.654   6.237   4.386  0.00  0.00    +0.050 A 
ATOM     18  C   UNL     1      11.533   5.343   3.343  0.00  0.00    +0.052 A 
ATOM     19  C   UNL     1      11.991   5.786   2.119  0.00  0.00    +0.076 A 
ATOM     20  C   UNL     1      12.590   7.788   3.014  0.00  0.00    +0.127 A 
ATOM     24  C   UNL     1      13.175   9.147   2.831  0.00  0.00    +0.088 C 
BRANCH  19  22
ATOM      1 BR   UNL     1      14.473   3.810   1.711  0.00  0.00    -0.050 Br
ATOM     22  C   UNL     1      11.920   4.947   0.947  0.00  0.00    +0.014 A 
ATOM     26  C   UNL     1      12.924   4.031   0.631  0.00  0.00    +0.027 A 
ATOM     27  C   UNL     1      10.804   5.071   0.120  0.00  0.00    +0.011 A 
ATOM     28  C   UNL     1      12.812   3.240  -0.513  0.00  0.00    +0.016 A 
ATOM     29  C   UNL     1      10.691   4.280  -1.023  0.00  0.00    +0.001 A 
ATOM     30  C   UNL     1      11.696   3.364  -1.340  0.00  0.00    +0.001 A 
ENDBRANCH  19  22
ENDBRANCH  10  17
BRANCH  11  16
ATOM     16  C   UNL     1       8.300   8.429   6.555  0.00  0.00    +0.124 C 
BRANCH  16   6
ATOM      6  N   UNL     1       7.540   8.434   5.343  0.00  0.00    -0.193 NA
ATOM     31  H   UNL     1       6.633   7.955   5.409  0.00  0.00    +0.148 HD
BRANCH   6   2
ATOM      2  S   UNL     1       7.578   9.804   4.289  0.00  0.00    +0.029 S 
ATOM      3  O   UNL     1       7.844  10.995   5.073  0.00  0.00    -0.158 OA
ATOM      4  O   UNL     1       6.451   9.752   3.379  0.00  0.00    -0.158 OA
BRANCH   2  21
ATOM     21  C   UNL     1       9.039   9.432   3.347  0.00  0.00    +0.185 C 
BRANCH  21  23
ATOM     23  C   UNL     1       8.936   8.069   2.681  0.00  0.00    +0.021 C 
ATOM     25  C   UNL     1       9.149   8.167   1.180  0.00  0.00    +0.005 C 
ENDBRANCH  21  23
ENDBRANCH   2  21
ENDBRANCH   6   2
ENDBRANCH  16   6
ENDBRANCH  11  16
TORSDOF 7
ENDMDL
MODEL 2
REMARK VINA RESULT:      -5.7     24.565     27.039
REMARK  Name = 40777125
REMARK  9 active torsions:
REMARK  status: ('A' for Active; 'I' for Inactive)
REMARK    1  A    between atoms: S_2  and  N_6
REMARK    2  A    between atoms: S_2  and  C_21
REMARK    3  A    between atoms: N_6  and  C_16
REMARK    4  A    between atoms: C_10  and  C_17
REMARK    5  A    between atoms: C_11  and  C_16
REMARK    6  A    between atoms: C_19  and  C_22
REMARK    7  A    between atoms: C_20  and  C_24
REMARK    8  A    between atoms: C_21  and  C_23
REMARK    9  A    between atoms: C_23  and  C_25
REMARK                            x       y       z     vdW  Elec       q    Type
REMARK                         _______ _______ _______ _____ _____    ______ ____
ROOT
ATOM      5  N   UNL     1      -7.519 -11.669  17.728  0.00  0.00    -0.297 NA
ATOM      9  C   UNL     1      -5.109 -11.076  18.518  0.00  0.00    +0.002 C 
ATOM     10  C   UNL     1      -5.403 -10.428  17.137  0.00  0.00    +0.055 C 
ATOM     11  C   UNL     1      -6.803 -12.903  18.146  0.00  0.00    +0.072 C 
ATOM     12  C   UNL     1      -5.313 -12.603  18.420  0.00  0.00    +0.024 C 
ATOM     13  C   UNL     1      -6.174 -10.538  19.498  0.00  0.00    +0.019 C 
ATOM     14  C   UNL     1      -6.768 -10.988  16.643  0.00  0.00    +0.094 C 
ATOM     15  C   UNL     1      -7.573 -10.758  18.897  0.00  0.00    +0.085 C 
ENDROOT
BRANCH  10  17
ATOM      7  N   UNL     1      -3.046 -10.416  16.482  0.00  0.00    -0.237 NA
ATOM      8  N   UNL     1      -2.352 -10.631  14.184  0.00  0.00    -0.232 NA
ATOM     17  C   UNL     1      -4.326 -10.504  16.064  0.00  0.00    +0.050 A 
ATOM     18  C   UNL     1      -4.693 -10.655  14.742  0.00  0.00    +0.052 A 
ATOM     19  C   UNL     1      -3.653 -10.713  13.837  0.00  0.00    +0.076 A 
ATOM     20  C   UNL     1      -2.124 -10.485  15.503  0.00  0.00    +0.127 A 
ATOM     24  C   UNL     1      -0.697 -10.390  15.926  0.00  0.00    +0.088 C 
BRANCH  19  22
ATOM      1 BR   UNL     1      -2.543 -13.423  12.549  0.00  0.00    -0.050 Br
ATOM     22  C   UNL     1      -3.902 -10.867  12.423  0.00  0.00    +0.014 A 
ATOM     26  C   UNL     1      -3.482 -11.994  11.717  0.00  0.00    +0.027 A 
ATOM     27  C   UNL     1      -4.587  -9.846  11.764  0.00  0.00    +0.011 A 
ATOM     28  C   UNL     1      -3.745 -12.100  10.351  0.00  0.00    +0.016 A 
ATOM     29  C   UNL     1      -4.851  -9.952  10.399  0.00  0.00    +0.001 A 
ATOM     30  C   UNL     1      -4.430 -11.079   9.692  0.00  0.00    +0.001 A 
ENDBRANCH  19  22
ENDBRANCH  10  17
BRANCH  11  16
ATOM     16  C   UNL     1      -6.979 -14.047  17.145  0.00  0.00    +0.124 C 
BRANCH  16   6
ATOM      6  N   UNL     1      -5.796 -14.848  17.071  0.00  0.00    -0.193 NA
ATOM     31  H   UNL     1      -5.663 -15.483  17.869  0.00  0.00    +0.148 HD
BRANCH   6   2
ATOM      2  S   UNL     1      -5.235 -15.446  15.549  0.00  0.00    +0.029 S 
ATOM      3  O   UNL     1      -6.124 -16.499  15.100  0.00  0.00    -0.158 OA
ATOM      4  O   UNL     1      -3.801 -15.659  15.606  0.00  0.00    -0.158 OA
BRANCH   2  21
ATOM     21  C   UNL     1      -5.519 -14.018  14.530  0.00  0.00    +0.185 C 
BRANCH  21  23
ATOM     23  C   UNL     1      -6.094 -14.408  13.178  0.00  0.00    +0.021 C 
ATOM     25  C   UNL     1      -6.878 -13.265  12.556  0.00  0.00    +0.005 C 
ENDBRANCH  21  23
ENDBRANCH   2  21
ENDBRANCH   6   2
ENDBRANCH  16   6
ENDBRANCH  11  16
TORSDOF 7
ENDMDL
MODEL 3
REMARK VINA RESULT:      -5.6     24.276     27.060
REMARK  Name = 40777125
REMARK  9 active torsions:
REMARK  status: ('A' for Active; 'I' for Inactive)
REMARK    1  A    between atoms: S_2  and  N_6
REMARK    2  A    between atoms: S_2  and  C_21
REMARK    3  A    between atoms: N_6  and  C_16
REMARK    4  A    between atoms: C_10  and  C_17
REMARK    5  A    between atoms: C_11  and  C_16
REMARK    6  A    between atoms: C_19  and  C_22
REMARK    7  A    between atoms: C_20  and  C_24
REMARK    8  A    between atoms: C_21  and  C_23
REMARK    9  A    between atoms: C_23  and  C_25
REMARK                            x       y       z     vdW  Elec       q    Type
REMARK                         _______ _______ _______ _____ _____    ______ ____
ROOT
ATOM      5  N   UNL     1      -6.625 -11.212  11.119  0.00  0.00    -0.297 NA
ATOM      9  C   UNL     1      -4.713  -9.528  11.661  0.00  0.00    +0.002 C 
ATOM     10  C   UNL     1      -4.469 -10.880  12.386  0.00  0.00    +0.055 C 
ATOM     11  C   UNL     1      -7.201  -9.911  11.550  0.00  0.00    +0.072 C 
ATOM     12  C   UNL     1      -6.092  -8.970  12.072  0.00  0.00    +0.024 C 
ATOM     13  C   UNL     1      -4.782  -9.839  10.150  0.00  0.00    +0.019 C 
ATOM     14  C   UNL     1      -5.740 -11.753  12.180  0.00  0.00    +0.094 C 
ATOM     15  C   UNL     1      -5.801 -10.965   9.910  0.00  0.00    +0.085 C 
ENDROOT
BRANCH  10  17
ATOM      7  N   UNL     1      -2.724 -10.556  14.069  0.00  0.00    -0.237 NA
ATOM      8  N   UNL     1      -3.162 -10.771  16.430  0.00  0.00    -0.232 NA
ATOM     17  C   UNL     1      -4.022 -10.845  13.840  0.00  0.00    +0.050 A 
ATOM     18  C   UNL     1      -4.937 -11.105  14.840  0.00  0.00    +0.052 A 
ATOM     19  C   UNL     1      -4.446 -11.052  16.128  0.00  0.00    +0.076 A 
ATOM     20  C   UNL     1      -2.367 -10.536  15.368  0.00  0.00    +0.127 A 
ATOM     24  C   UNL     1      -0.939 -10.222  15.661  0.00  0.00    +0.088 C 
BRANCH  19  22
ATOM      1 BR   UNL     1      -5.045 -14.139  16.715  0.00  0.00    -0.050 Br
ATOM     22  C   UNL     1      -5.301 -11.306  17.263  0.00  0.00    +0.014 A 
ATOM     26  C   UNL     1      -5.654 -12.599  17.649  0.00  0.00    +0.027 A 
ATOM     27  C   UNL     1      -5.776 -10.210  17.983  0.00  0.00    +0.011 A 
ATOM     28  C   UNL     1      -6.483 -12.796  18.754  0.00  0.00    +0.016 A 
ATOM     29  C   UNL     1      -6.605 -10.406  19.087  0.00  0.00    +0.001 A 
ATOM     30  C   UNL     1      -6.958 -11.700  19.473  0.00  0.00    +0.001 A 
ENDBRANCH  19  22
ENDBRANCH  10  17
BRANCH  11  16
ATOM     16  C   UNL     1      -8.330 -10.082  12.569  0.00  0.00    +0.124 C 
BRANCH  16   6
ATOM      6  N   UNL     1      -8.122  -9.242  13.707  0.00  0.00    -0.193 NA
ATOM     31  H   UNL     1      -7.720  -8.321  13.488  0.00  0.00    +0.148 HD
BRANCH   6   2
ATOM      2  S   UNL     1      -9.234  -9.267  15.031  0.00  0.00    +0.029 S 
ATOM      3  O   UNL     1     -10.361  -8.410  14.717  0.00  0.00    -0.158 OA
ATOM      4  O   UNL     1      -8.512  -9.114  16.280  0.00  0.00    -0.158 OA
BRANCH   2  21
ATOM     21  C   UNL     1      -9.787 -10.954  14.941  0.00  0.00    +0.185 C 
BRANCH  21  23
ATOM     23  C   UNL     1      -8.962 -11.856  15.845  0.00  0.00    +0.021 C 
ATOM     25  C   UNL     1      -8.219 -12.914  15.047  0.00  0.00    +0.005 C 
ENDBRANCH  21  23
ENDBRANCH   2  21
ENDBRANCH   6   2
ENDBRANCH  16   6
ENDBRANCH  11  16
TORSDOF 7
ENDMDL
MODEL 4
REMARK VINA RESULT:      -5.6     23.998     26.335
REMARK  Name = 40777125
REMARK  9 active torsions:
REMARK  status: ('A' for Active; 'I' for Inactive)
REMARK    1  A    between atoms: S_2  and  N_6
REMARK    2  A    between atoms: S_2  and  C_21
REMARK    3  A    between atoms: N_6  and  C_16
REMARK    4  A    between atoms: C_10  and  C_17
REMARK    5  A    between atoms: C_11  and  C_16
REMARK    6  A    between atoms: C_19  and  C_22
REMARK    7  A    between atoms: C_20  and  C_24
REMARK    8  A    between atoms: C_21  and  C_23
REMARK    9  A    between atoms: C_23  and  C_25
REMARK                            x       y       z     vdW  Elec       q    Type
REMARK                         _______ _______ _______ _____ _____    ______ ____
ROOT
ATOM      5  N   UNL     1      -5.528 -10.277  17.423  0.00  0.00    -0.297 NA
ATOM      9  C   UNL     1      -5.020 -12.779  16.911  0.00  0.00    +0.002 C 
ATOM     10  C   UNL     1      -3.938 -11.863  16.275  0.00  0.00    +0.055 C 
ATOM     11  C   UNL     1      -6.745 -10.944  16.890  0.00  0.00    +0.072 C 
ATOM     12  C   UNL     1      -6.411 -12.365  16.387  0.00  0.00    +0.024 C 
ATOM     13  C   UNL     1      -5.004 -12.498  18.429  0.00  0.00    +0.019 C 
ATOM     14  C   UNL     1      -4.415 -10.393  16.448  0.00  0.00    +0.094 C 
ATOM     15  C   UNL     1      -5.131 -10.984  18.666  0.00  0.00    +0.085 C 
ENDROOT
BRANCH  10  17
ATOM      7  N   UNL     1      -2.733 -13.262  14.670  0.00  0.00    -0.237 NA
ATOM      8  N   UNL     1      -2.659 -12.744  12.317  0.00  0.00    -0.232 NA
ATOM     17  C   UNL     1      -3.492 -12.160  14.851  0.00  0.00    +0.050 A 
ATOM     18  C   UNL     1      -3.870 -11.314  13.828  0.00  0.00    +0.052 A 
ATOM     19  C   UNL     1      -3.421 -11.659  12.570  0.00  0.00    +0.076 A 
ATOM     20  C   UNL     1      -2.357 -13.489  13.397  0.00  0.00    +0.127 A 
ATOM     24  C   UNL     1      -1.515 -14.697  13.158  0.00  0.00    +0.088 C 
BRANCH  19  22
ATOM      1 BR   UNL     1      -6.156 -12.431  11.103  0.00  0.00    -0.050 Br
ATOM     22  C   UNL     1      -3.746 -10.855  11.416  0.00  0.00    +0.014 A 
ATOM     26  C   UNL     1      -4.905 -11.067  10.669  0.00  0.00    +0.027 A 
ATOM     27  C   UNL     1      -2.859  -9.841  11.055  0.00  0.00    +0.011 A 
ATOM     28  C   UNL     1      -5.178 -10.265   9.561  0.00  0.00    +0.016 A 
ATOM     29  C   UNL     1      -3.132  -9.038   9.947  0.00  0.00    +0.001 A 
ATOM     30  C   UNL     1      -4.291  -9.250   9.200  0.00  0.00    +0.001 A 
ENDBRANCH  19  22
ENDBRANCH  10  17
BRANCH  11  16
ATOM     16  C   UNL     1      -7.444 -10.108  15.815  0.00  0.00    +0.124 C 
BRANCH  16   6
ATOM      6  N   UNL     1      -8.127  -8.995  16.398  0.00  0.00    -0.193 NA
ATOM     31  H   UNL     1      -7.900  -8.087  15.972  0.00  0.00    +0.148 HD
BRANCH   6   2
ATOM      2  S   UNL     1      -9.753  -9.161  16.961  0.00  0.00    +0.029 S 
ATOM      3  O   UNL     1      -9.732  -9.661  18.322  0.00  0.00    -0.158 OA
ATOM      4  O   UNL     1     -10.559  -9.810  15.945  0.00  0.00    -0.158 OA
BRANCH   2  21
ATOM     21  C   UNL     1     -10.240  -7.452  17.013  0.00  0.00    +0.185 C 
BRANCH  21  23
ATOM     23  C   UNL     1     -10.397  -6.879  15.614  0.00  0.00    +0.021 C 
ATOM     25  C   UNL     1     -11.521  -5.857  15.555  0.00  0.00    +0.005 C 
ENDBRANCH  21  23
ENDBRANCH   2  21
ENDBRANCH   6   2
ENDBRANCH  16   6
ENDBRANCH  11  16
TORSDOF 7
ENDMDL
MODEL 5
REMARK VINA RESULT:      -5.6     26.067     29.049
REMARK  Name = 40777125
REMARK  9 active torsions:
REMARK  status: ('A' for Active; 'I' for Inactive)
REMARK    1  A    between atoms: S_2  and  N_6
REMARK    2  A    between atoms: S_2  and  C_21
REMARK    3  A    between atoms: N_6  and  C_16
REMARK    4  A    between atoms: C_10  and  C_17
REMARK    5  A    between atoms: C_11  and  C_16
REMARK    6  A    between atoms: C_19  and  C_22
REMARK    7  A    between atoms: C_20  and  C_24
REMARK    8  A    between atoms: C_21  and  C_23
REMARK    9  A    between atoms: C_23  and  C_25
REMARK                            x       y       z     vdW  Elec       q    Type
REMARK                         _______ _______ _______ _____ _____    ______ ____
ROOT
ATOM      5  N   UNL     1      -6.299 -12.051  17.357  0.00  0.00    -0.297 NA
ATOM      9  C   UNL     1      -6.984 -10.707  19.479  0.00  0.00    +0.002 C 
ATOM     10  C   UNL     1      -8.217 -11.433  18.873  0.00  0.00    +0.055 C 
ATOM     11  C   UNL     1      -5.786 -10.659  17.264  0.00  0.00    +0.072 C 
ATOM     12  C   UNL     1      -6.355  -9.791  18.408  0.00  0.00    +0.024 C 
ATOM     13  C   UNL     1      -5.945 -11.798  19.812  0.00  0.00    +0.019 C 
ATOM     14  C   UNL     1      -7.775 -12.041  17.512  0.00  0.00    +0.094 C 
ATOM     15  C   UNL     1      -5.710 -12.672  18.569  0.00  0.00    +0.085 C 
ENDROOT
BRANCH  10  17
ATOM      7  N   UNL     1     -10.432 -10.863  19.741  0.00  0.00    -0.237 NA
ATOM      8  N   UNL     1     -11.888  -9.304  18.618  0.00  0.00    -0.232 NA
ATOM     17  C   UNL     1      -9.524 -10.660  18.764  0.00  0.00    +0.050 A 
ATOM     18  C   UNL     1      -9.722  -9.808  17.697  0.00  0.00    +0.052 A 
ATOM     19  C   UNL     1     -10.935  -9.149  17.676  0.00  0.00    +0.076 A 
ATOM     20  C   UNL     1     -11.575 -10.163  19.607  0.00  0.00    +0.127 A 
ATOM     24  C   UNL     1     -12.605 -10.362  20.667  0.00  0.00    +0.088 C 
BRANCH  19  22
ATOM      1 BR   UNL     1     -12.430 -10.456  15.169  0.00  0.00    -0.050 Br
ATOM     22  C   UNL     1     -11.266  -8.231  16.613  0.00  0.00    +0.014 A 
ATOM     26  C   UNL     1     -11.920  -8.646  15.453  0.00  0.00    +0.027 A 
ATOM     27  C   UNL     1     -10.914  -6.890  16.772  0.00  0.00    +0.011 A 
ATOM     28  C   UNL     1     -12.221  -7.723  14.452  0.00  0.00    +0.016 A 
ATOM     29  C   UNL     1     -11.214  -5.966  15.772  0.00  0.00    +0.001 A 
ATOM     30  C   UNL     1     -11.868  -6.382  14.611  0.00  0.00    +0.001 A 
ENDBRANCH  19  22
ENDBRANCH  10  17
BRANCH  11  16
ATOM     16  C   UNL     1      -6.043 -10.033  15.892  0.00  0.00    +0.124 C 
BRANCH  16   6
ATOM      6  N   UNL     1      -4.816  -9.831  15.185  0.00  0.00    -0.193 NA
ATOM     31  H   UNL     1      -4.101  -9.314  15.713  0.00  0.00    +0.148 HD
BRANCH   6   2
ATOM      2  S   UNL     1      -4.210 -11.046  14.114  0.00  0.00    +0.029 S 
ATOM      3  O   UNL     1      -3.634 -10.403  12.949  0.00  0.00    -0.158 OA
ATOM      4  O   UNL     1      -5.192 -12.104  13.969  0.00  0.00    -0.158 OA
BRANCH   2  21
ATOM     21  C   UNL     1      -2.877 -11.691  15.099  0.00  0.00    +0.185 C 
BRANCH  21  23
ATOM     23  C   UNL     1      -2.350 -10.646  16.068  0.00  0.00    +0.021 C 
ATOM     25  C   UNL     1      -0.992 -10.119  15.634  0.00  0.00    +0.005 C 
ENDBRANCH  21  23
ENDBRANCH   2  21
ENDBRANCH   6   2
ENDBRANCH  16   6
ENDBRANCH  11  16
TORSDOF 7
ENDMDL
MODEL 6
REMARK VINA RESULT:      -5.5     24.439     26.873
REMARK  Name = 40777125
REMARK  9 active torsions:
REMARK  status: ('A' for Active; 'I' for Inactive)
REMARK    1  A    between atoms: S_2  and  N_6
REMARK    2  A    between atoms: S_2  and  C_21
REMARK    3  A    between atoms: N_6  and  C_16
REMARK    4  A    between atoms: C_10  and  C_17
REMARK    5  A    between atoms: C_11  and  C_16
REMARK    6  A    between atoms: C_19  and  C_22
REMARK    7  A    between atoms: C_20  and  C_24
REMARK    8  A    between atoms: C_21  and  C_23
REMARK    9  A    between atoms: C_23  and  C_25
REMARK                            x       y       z     vdW  Elec       q    Type
REMARK                         _______ _______ _______ _____ _____    ______ ____
ROOT
ATOM      5  N   UNL     1      -6.810 -10.887  18.541  0.00  0.00    -0.297 NA
ATOM      9  C   UNL     1      -6.463 -12.519  16.541  0.00  0.00    +0.002 C 
ATOM     10  C   UNL     1      -5.103 -11.923  16.999  0.00  0.00    +0.055 C 
ATOM     11  C   UNL     1      -7.754 -10.552  17.443  0.00  0.00    +0.072 C 
ATOM     12  C   UNL     1      -7.426 -11.370  16.174  0.00  0.00    +0.024 C 
ATOM     13  C   UNL     1      -7.066 -13.243  17.764  0.00  0.00    +0.019 C 
ATOM     14  C   UNL     1      -5.411 -10.818  18.050  0.00  0.00    +0.094 C 
ATOM     15  C   UNL     1      -7.083 -12.283  18.965  0.00  0.00    +0.085 C 
ENDROOT
BRANCH  10  17
ATOM      7  N   UNL     1      -2.937 -10.985  16.358  0.00  0.00    -0.237 NA
ATOM      8  N   UNL     1      -2.345 -10.579  14.057  0.00  0.00    -0.232 NA
ATOM     17  C   UNL     1      -4.130 -11.448  15.930  0.00  0.00    +0.050 A 
ATOM     18  C   UNL     1      -4.498 -11.507  14.601  0.00  0.00    +0.052 A 
ATOM     19  C   UNL     1      -3.556 -11.055  13.700  0.00  0.00    +0.076 A 
ATOM     20  C   UNL     1      -2.106 -10.572  15.382  0.00  0.00    +0.127 A 
ATOM     24  C   UNL     1      -0.777 -10.052  15.816  0.00  0.00    +0.088 C 
BRANCH  19  22
ATOM      1 BR   UNL     1      -2.779 -13.764  12.188  0.00  0.00    -0.050 Br
ATOM     22  C   UNL     1      -3.818 -11.062  12.280  0.00  0.00    +0.014 A 
ATOM     26  C   UNL     1      -3.536 -12.170  11.481  0.00  0.00    +0.027 A 
ATOM     27  C   UNL     1      -4.372  -9.915  11.712  0.00  0.00    +0.011 A 
ATOM     28  C   UNL     1      -3.806 -12.131  10.113  0.00  0.00    +0.016 A 
ATOM     29  C   UNL     1      -4.644  -9.876  10.344  0.00  0.00    +0.001 A 
ATOM     30  C   UNL     1      -4.361 -10.984   9.545  0.00  0.00    +0.001 A 
ENDBRANCH  19  22
ENDBRANCH  10  17
BRANCH  11  16
ATOM     16  C   UNL     1      -7.805  -9.050  17.156  0.00  0.00    +0.124 C 
BRANCH  16   6
ATOM      6  N   UNL     1      -8.978  -8.462  17.724  0.00  0.00    -0.193 NA
ATOM     31  H   UNL     1      -8.791  -7.734  18.427  0.00  0.00    +0.148 HD
BRANCH   6   2
ATOM      2  S   UNL     1     -10.390  -8.211  16.758  0.00  0.00    +0.029 S 
ATOM      3  O   UNL     1     -10.142  -8.715  15.421  0.00  0.00    -0.158 OA
ATOM      4  O   UNL     1     -10.889  -6.864  16.962  0.00  0.00    -0.158 OA
BRANCH   2  21
ATOM     21  C   UNL     1     -11.519  -9.323  17.562  0.00  0.00    +0.185 C 
BRANCH  21  23
ATOM     23  C   UNL     1     -11.014  -9.725  18.938  0.00  0.00    +0.021 C 
ATOM     25  C   UNL     1     -10.985 -11.236  19.100  0.00  0.00    +0.005 C 
ENDBRANCH  21  23
ENDBRANCH   2  21
ENDBRANCH   6   2
ENDBRANCH  16   6
ENDBRANCH  11  16
TORSDOF 7
ENDMDL
MODEL 7
REMARK VINA RESULT:      -5.4      3.119      4.984
REMARK  Name = 40777125
REMARK  9 active torsions:
REMARK  status: ('A' for Active; 'I' for Inactive)
REMARK    1  A    between atoms: S_2  and  N_6
REMARK    2  A    between atoms: S_2  and  C_21
REMARK    3  A    between atoms: N_6  and  C_16
REMARK    4  A    between atoms: C_10  and  C_17
REMARK    5  A    between atoms: C_11  and  C_16
REMARK    6  A    between atoms: C_19  and  C_22
REMARK    7  A    between atoms: C_20  and  C_24
REMARK    8  A    between atoms: C_21  and  C_23
REMARK    9  A    between atoms: C_23  and  C_25
REMARK                            x       y       z     vdW  Elec       q    Type
REMARK                         _______ _______ _______ _____ _____    ______ ____
ROOT
ATOM      5  N   UNL     1      12.704   8.845   6.262  0.00  0.00    -0.297 NA
ATOM      9  C   UNL     1      14.784   7.936   4.986  0.00  0.00    +0.002 C 
ATOM     10  C   UNL     1      13.576   8.088   4.020  0.00  0.00    +0.055 C 
ATOM     11  C   UNL     1      13.287   7.691   6.996  0.00  0.00    +0.072 C 
ATOM     12  C   UNL     1      14.389   7.010   6.156  0.00  0.00    +0.024 C 
ATOM     13  C   UNL     1      15.054   9.334   5.583  0.00  0.00    +0.019 C 
ATOM     14  C   UNL     1      12.331   8.437   4.885  0.00  0.00    +0.094 C 
ATOM     15  C   UNL     1      13.747   9.896   6.168  0.00  0.00    +0.085 C 
ENDROOT
BRANCH  10  17
ATOM      7  N   UNL     1      12.190   6.223   3.257  0.00  0.00    -0.237 NA
ATOM      8  N   UNL     1      12.748   4.923   1.305  0.00  0.00    -0.232 NA
ATOM     17  C   UNL     1      13.298   6.961   3.036  0.00  0.00    +0.050 A 
ATOM     18  C   UNL     1      14.167   6.744   1.986  0.00  0.00    +0.052 A 
ATOM     19  C   UNL     1      13.838   5.701   1.144  0.00  0.00    +0.076 A 
ATOM     20  C   UNL     1      11.979   5.234   2.366  0.00  0.00    +0.127 A 
ATOM     24  C   UNL     1      10.765   4.395   2.579  0.00  0.00    +0.088 C 
BRANCH  19  22
ATOM      1 BR   UNL     1      13.021   7.132  -1.597  0.00  0.00    -0.050 Br
ATOM     22  C   UNL     1      14.666   5.370   0.009  0.00  0.00    +0.014 A 
ATOM     26  C   UNL     1      14.439   5.913  -1.256  0.00  0.00    +0.027 A 
ATOM     27  C   UNL     1      15.720   4.478   0.206  0.00  0.00    +0.011 A 
ATOM     28  C   UNL     1      15.266   5.563  -2.324  0.00  0.00    +0.016 A 
ATOM     29  C   UNL     1      16.547   4.129  -0.861  0.00  0.00    +0.001 A 
ATOM     30  C   UNL     1      16.320   4.672  -2.127  0.00  0.00    +0.001 A 
ENDBRANCH  19  22
ENDBRANCH  10  17
BRANCH  11  16
ATOM     16  C   UNL     1      12.221   6.693   7.454  0.00  0.00    +0.124 C 
BRANCH  16   6
ATOM      6  N   UNL     1      11.738   5.921   6.352  0.00  0.00    -0.193 NA
ATOM     31  H   UNL     1      12.400   5.213   6.007  0.00  0.00    +0.148 HD
BRANCH   6   2
ATOM      2  S   UNL     1      10.068   5.482   6.252  0.00  0.00    +0.029 S 
ATOM      3  O   UNL     1       9.970   4.064   5.963  0.00  0.00    -0.158 OA
ATOM      4  O   UNL     1       9.354   6.454   5.447  0.00  0.00    -0.158 OA
BRANCH   2  21
ATOM     21  C   UNL     1       9.580   5.731   7.943  0.00  0.00    +0.185 C 
BRANCH  21  23
ATOM     23  C   UNL     1       9.606   4.428   8.725  0.00  0.00    +0.021 C 
ATOM     25  C   UNL     1       9.007   4.598  10.111  0.00  0.00    +0.005 C 
ENDBRANCH  21  23
ENDBRANCH   2  21
ENDBRANCH   6   2
ENDBRANCH  16   6
ENDBRANCH  11  16
TORSDOF 7
ENDMDL
MODEL 8
REMARK VINA RESULT:      -5.4     25.465     28.137
REMARK  Name = 40777125
REMARK  9 active torsions:
REMARK  status: ('A' for Active; 'I' for Inactive)
REMARK    1  A    between atoms: S_2  and  N_6
REMARK    2  A    between atoms: S_2  and  C_21
REMARK    3  A    between atoms: N_6  and  C_16
REMARK    4  A    between atoms: C_10  and  C_17
REMARK    5  A    between atoms: C_11  and  C_16
REMARK    6  A    between atoms: C_19  and  C_22
REMARK    7  A    between atoms: C_20  and  C_24
REMARK    8  A    between atoms: C_21  and  C_23
REMARK    9  A    between atoms: C_23  and  C_25
REMARK                            x       y       z     vdW  Elec       q    Type
REMARK                         _______ _______ _______ _____ _____    ______ ____
ROOT
ATOM      5  N   UNL     1     -11.175  -9.436  16.875  0.00  0.00    -0.297 NA
ATOM      9  C   UNL     1      -8.923  -8.426  16.044  0.00  0.00    +0.002 C 
ATOM     10  C   UNL     1      -9.319  -9.654  15.180  0.00  0.00    +0.055 C 
ATOM     11  C   UNL     1     -10.247  -9.251  18.022  0.00  0.00    +0.072 C 
ATOM     12  C   UNL     1      -8.841  -8.850  17.526  0.00  0.00    +0.024 C 
ATOM     13  C   UNL     1     -10.077  -7.408  15.927  0.00  0.00    +0.019 C 
ATOM     14  C   UNL     1     -10.553 -10.318  15.855  0.00  0.00    +0.094 C 
ATOM     15  C   UNL     1     -11.406  -8.107  16.259  0.00  0.00    +0.085 C 
ENDROOT
BRANCH  10  17
ATOM      7  N   UNL     1      -8.641 -11.937  14.620  0.00  0.00    -0.237 NA
ATOM      8  N   UNL     1      -6.342 -12.528  14.207  0.00  0.00    -0.232 NA
ATOM     17  C   UNL     1      -8.238 -10.667  14.832  0.00  0.00    +0.050 A 
ATOM     18  C   UNL     1      -6.923 -10.257  14.750  0.00  0.00    +0.052 A 
ATOM     19  C   UNL     1      -6.009 -11.240  14.430  0.00  0.00    +0.076 A 
ATOM     20  C   UNL     1      -7.656 -12.803  14.317  0.00  0.00    +0.127 A 
ATOM     24  C   UNL     1      -8.063 -14.217  14.078  0.00  0.00    +0.088 C 
BRANCH  19  22
ATOM      1 BR   UNL     1      -4.991 -10.611  11.464  0.00  0.00    -0.050 Br
ATOM     22  C   UNL     1      -4.601 -10.941  14.316  0.00  0.00    +0.014 A 
ATOM     26  C   UNL     1      -4.005 -10.645  13.090  0.00  0.00    +0.027 A 
ATOM     27  C   UNL     1      -3.833 -10.954  15.480  0.00  0.00    +0.011 A 
ATOM     28  C   UNL     1      -2.641 -10.362  13.027  0.00  0.00    +0.016 A 
ATOM     29  C   UNL     1      -2.469 -10.671  15.418  0.00  0.00    +0.001 A 
ATOM     30  C   UNL     1      -1.872 -10.375  14.191  0.00  0.00    +0.001 A 
ENDBRANCH  19  22
ENDBRANCH  10  17
BRANCH  11  16
ATOM     16  C   UNL     1     -10.202 -10.476  18.938  0.00  0.00    +0.124 C 
BRANCH  16   6
ATOM      6  N   UNL     1      -9.005 -10.482  19.722  0.00  0.00    -0.193 NA
ATOM     31  H   UNL     1      -9.144 -10.234  20.711  0.00  0.00    +0.148 HD
BRANCH   6   2
ATOM      2  S   UNL     1      -7.763 -11.646  19.419  0.00  0.00    +0.029 S 
ATOM      3  O   UNL     1      -7.764 -11.979  18.007  0.00  0.00    -0.158 OA
ATOM      4  O   UNL     1      -7.813 -12.688  20.426  0.00  0.00    -0.158 OA
BRANCH   2  21
ATOM     21  C   UNL     1      -6.323 -10.657  19.747  0.00  0.00    +0.185 C 
BRANCH  21  23
ATOM     23  C   UNL     1      -5.254 -10.868  18.688  0.00  0.00    +0.021 C 
ATOM     25  C   UNL     1      -4.281 -11.964  19.090  0.00  0.00    +0.005 C 
ENDBRANCH  21  23
ENDBRANCH   2  21
ENDBRANCH   6   2
ENDBRANCH  16   6
ENDBRANCH  11  16
TORSDOF 7
ENDMDL
MODEL 9
REMARK VINA RESULT:      -5.4     23.847     26.318
REMARK  Name = 40777125
REMARK  9 active torsions:
REMARK  status: ('A' for Active; 'I' for Inactive)
REMARK    1  A    between atoms: S_2  and  N_6
REMARK    2  A    between atoms: S_2  and  C_21
REMARK    3  A    between atoms: N_6  and  C_16
REMARK    4  A    between atoms: C_10  and  C_17
REMARK    5  A    between atoms: C_11  and  C_16
REMARK    6  A    between atoms: C_19  and  C_22
REMARK    7  A    between atoms: C_20  and  C_24
REMARK    8  A    between atoms: C_21  and  C_23
REMARK    9  A    between atoms: C_23  and  C_25
REMARK                            x       y       z     vdW  Elec       q    Type
REMARK                         _______ _______ _______ _____ _____    ______ ____
ROOT
ATOM      5  N   UNL     1      -4.746 -12.424  16.968  0.00  0.00    -0.297 NA
ATOM      9  C   UNL     1      -5.984 -10.139  17.149  0.00  0.00    +0.002 C 
ATOM     10  C   UNL     1      -6.762 -11.107  16.214  0.00  0.00    +0.055 C 
ATOM     11  C   UNL     1      -3.794 -11.309  16.721  0.00  0.00    +0.072 C 
ATOM     12  C   UNL     1      -4.546  -9.964  16.619  0.00  0.00    +0.024 C 
ATOM     13  C   UNL     1      -5.880 -10.837  18.522  0.00  0.00    +0.019 C 
ATOM     14  C   UNL     1      -5.867 -12.361  15.997  0.00  0.00    +0.094 C 
ATOM     15  C   UNL     1      -5.305 -12.251  18.331  0.00  0.00    +0.085 C 
ENDROOT
BRANCH  10  17
ATOM      7  N   UNL     1      -8.608 -10.188  14.899  0.00  0.00    -0.237 NA
ATOM      8  N   UNL     1      -8.350  -9.561  12.586  0.00  0.00    -0.232 NA
ATOM     17  C   UNL     1      -7.310 -10.555  14.906  0.00  0.00    +0.050 A 
ATOM     18  C   UNL     1      -6.480 -10.457  13.808  0.00  0.00    +0.052 A 
ATOM     19  C   UNL     1      -7.059  -9.948  12.664  0.00  0.00    +0.076 A 
ATOM     20  C   UNL     1      -9.056  -9.707  13.724  0.00  0.00    +0.127 A 
ATOM     24  C   UNL     1     -10.487  -9.292  13.677  0.00  0.00    +0.088 C 
BRANCH  19  22
ATOM      1 BR   UNL     1      -7.100 -12.480  10.711  0.00  0.00    -0.050 Br
ATOM     22  C   UNL     1      -6.299  -9.795  11.446  0.00  0.00    +0.014 A 
ATOM     26  C   UNL     1      -6.219 -10.810  10.492  0.00  0.00    +0.027 A 
ATOM     27  C   UNL     1      -5.633  -8.588  11.238  0.00  0.00    +0.011 A 
ATOM     28  C   UNL     1      -5.472 -10.618   9.330  0.00  0.00    +0.016 A 
ATOM     29  C   UNL     1      -4.886  -8.395  10.076  0.00  0.00    +0.001 A 
ATOM     30  C   UNL     1      -4.806  -9.410   9.121  0.00  0.00    +0.001 A 
ENDBRANCH  19  22
ENDBRANCH  10  17
BRANCH  11  16
ATOM     16  C   UNL     1      -2.906 -11.560  15.501  0.00  0.00    +0.124 C 
BRANCH  16   6
ATOM      6  N   UNL     1      -2.808 -12.959  15.220  0.00  0.00    -0.193 NA
ATOM     31  H   UNL     1      -3.421 -13.552  15.796  0.00  0.00    +0.148 HD
BRANCH   6   2
ATOM      2  S   UNL     1      -2.550 -13.514  13.603  0.00  0.00    +0.029 S 
ATOM      3  O   UNL     1      -3.164 -14.819  13.449  0.00  0.00    -0.158 OA
ATOM      4  O   UNL     1      -1.167 -13.295  13.226  0.00  0.00    -0.158 OA
BRANCH   2  21
ATOM     21  C   UNL     1      -3.536 -12.336  12.709  0.00  0.00    +0.185 C 
BRANCH  21  23
ATOM     23  C   UNL     1      -2.753 -11.714  11.564  0.00  0.00    +0.021 C 
ATOM     25  C   UNL     1      -2.305 -10.301  11.900  0.00  0.00    +0.005 C 
ENDBRANCH  21  23
ENDBRANCH   2  21
ENDBRANCH   6   2
ENDBRANCH  16   6
ENDBRANCH  11  16
TORSDOF 7
ENDMDL
MODEL 10
REMARK VINA RESULT:      -5.4      2.335      3.746
REMARK  Name = 40777125
REMARK  9 active torsions:
REMARK  status: ('A' for Active; 'I' for Inactive)
REMARK    1  A    between atoms: S_2  and  N_6
REMARK    2  A    between atoms: S_2  and  C_21
REMARK    3  A    between atoms: N_6  and  C_16
REMARK    4  A    between atoms: C_10  and  C_17
REMARK    5  A    between atoms: C_11  and  C_16
REMARK    6  A    between atoms: C_19  and  C_22
REMARK    7  A    between atoms: C_20  and  C_24
REMARK    8  A    between atoms: C_21  and  C_23
REMARK    9  A    between atoms: C_23  and  C_25
REMARK                            x       y       z     vdW  Elec       q    Type
REMARK                         _______ _______ _______ _____ _____    ______ ____
ROOT
ATOM      5  N   UNL     1      13.803   9.874   5.634  0.00  0.00    -0.297 NA
ATOM      9  C   UNL     1      14.301   7.323   5.801  0.00  0.00    +0.002 C 
ATOM     10  C   UNL     1      13.577   7.650   4.465  0.00  0.00    +0.055 C 
ATOM     11  C   UNL     1      13.339   9.351   6.946  0.00  0.00    +0.072 C 
ATOM     12  C   UNL     1      13.435   7.810   6.983  0.00  0.00    +0.024 C 
ATOM     13  C   UNL     1      15.601   8.155   5.818  0.00  0.00    +0.019 C 
ATOM     14  C   UNL     1      13.137   9.140   4.529  0.00  0.00    +0.094 C 
ATOM     15  C   UNL     1      15.263   9.630   5.538  0.00  0.00    +0.085 C 
ENDROOT
BRANCH  10  17
ATOM      7  N   UNL     1      11.616   6.282   4.979  0.00  0.00    -0.237 NA
ATOM      8  N   UNL     1      10.405   5.083   3.274  0.00  0.00    -0.232 NA
ATOM     17  C   UNL     1      12.448   6.733   4.017  0.00  0.00    +0.050 A 
ATOM     18  C   UNL     1      12.325   6.408   2.682  0.00  0.00    +0.052 A 
ATOM     19  C   UNL     1      11.274   5.571   2.365  0.00  0.00    +0.076 A 
ATOM     20  C   UNL     1      10.631   5.472   4.543  0.00  0.00    +0.127 A 
ATOM     24  C   UNL     1       9.692   4.951   5.578  0.00  0.00    +0.088 C 
BRANCH  19  22
ATOM      1 BR   UNL     1      13.167   3.217   1.315  0.00  0.00    -0.050 Br
ATOM     22  C   UNL     1      11.036   5.155   1.004  0.00  0.00    +0.014 A 
ATOM     26  C   UNL     1      11.778   4.139   0.401  0.00  0.00    +0.027 A 
ATOM     27  C   UNL     1      10.028   5.801   0.288  0.00  0.00    +0.011 A 
ATOM     28  C   UNL     1      11.513   3.770  -0.918  0.00  0.00    +0.016 A 
ATOM     29  C   UNL     1       9.762   5.432  -1.030  0.00  0.00    +0.001 A 
ATOM     30  C   UNL     1      10.505   4.416  -1.633  0.00  0.00    +0.001 A 
ENDBRANCH  19  22
ENDBRANCH  10  17
BRANCH  11  16
ATOM     16  C   UNL     1      11.936   9.844   7.307  0.00  0.00    +0.124 C 
BRANCH  16   6
ATOM      6  N   UNL     1      10.969   8.805   7.129  0.00  0.00    -0.193 NA
ATOM     31  H   UNL     1      11.327   7.857   7.305  0.00  0.00    +0.148 HD
BRANCH   6   2
ATOM      2  S   UNL     1       9.315   9.063   7.562  0.00  0.00    +0.029 S 
ATOM      3  O   UNL     1       9.244  10.136   8.535  0.00  0.00    -0.158 OA
ATOM      4  O   UNL     1       8.671   7.789   7.816  0.00  0.00    -0.158 OA
BRANCH   2  21
ATOM     21  C   UNL     1       8.682   9.680   6.019  0.00  0.00    +0.185 C 
BRANCH  21  23
ATOM     23  C   UNL     1       9.240   8.899   4.841  0.00  0.00    +0.021 C 
ATOM     25  C   UNL     1       8.142   8.156   4.098  0.00  0.00    +0.005 C 
ENDBRANCH  21  23
ENDBRANCH   2  21
ENDBRANCH   6   2
ENDBRANCH  16   6
ENDBRANCH  11  16
TORSDOF 7
ENDMDL
