MODEL 1
REMARK VINA RESULT:      -6.1      0.000      0.000
REMARK  Name = 75536549
REMARK  8 active torsions:
REMARK  status: ('A' for Active; 'I' for Inactive)
REMARK    1  A    between atoms: O_2  and  C_11
REMARK    2  A    between atoms: N_4  and  C_13
REMARK    3  A    between atoms: N_5  and  C_12
REMARK    4  A    between atoms: N_5  and  C_16
REMARK    5  A    between atoms: C_7  and  C_15
REMARK    6  A    between atoms: C_10  and  C_13
REMARK    7  A    between atoms: C_16  and  C_17
REMARK    8  A    between atoms: C_20  and  C_23
REMARK                            x       y       z     vdW  Elec       q    Type
REMARK                         _______ _______ _______ _____ _____    ______ ____
ROOT
ATOM      1  O   UNL     1       9.882   7.151   3.398  0.00  0.00    -0.371 OA
ATOM     10  C   UNL     1       9.580   6.231   4.460  0.00  0.00    +0.165 C 
ATOM     11  C   UNL     1      10.723   5.225   4.483  0.00  0.00    +0.164 C 
ATOM     12  C   UNL     1      11.050   5.120   3.005  0.00  0.00    +0.111 C 
ATOM     14  C   UNL     1      10.892   6.565   2.558  0.00  0.00    +0.181 C 
ENDROOT
BRANCH  11   2
ATOM      2  O   UNL     1      10.326   3.989   5.044  0.00  0.00    -0.388 OA
ATOM     26  H   UNL     1       9.847   4.168   5.871  0.00  0.00    +0.210 HD
ENDBRANCH  11   2
BRANCH  12   5
ATOM      5  N   UNL     1      12.375   4.587   2.737  0.00  0.00    -0.305 NA
ATOM     25  H   UNL     1      12.727   4.130   3.580  0.00  0.00    +0.123 HD
BRANCH   5  16
ATOM     16  C   UNL     1      12.340   3.612   1.653  0.00  0.00    +0.116 C 
BRANCH  16  17
ATOM     17  C   UNL     1      13.473   3.813   0.681  0.00  0.00    -0.032 A 
ATOM     18  C   UNL     1      13.209   3.959  -0.681  0.00  0.00    +0.023 A 
ATOM     19  C   UNL     1      14.788   3.854   1.145  0.00  0.00    +0.005 A 
ATOM     20  C   UNL     1      14.259   4.146  -1.578  0.00  0.00    +0.052 A 
ATOM     21  C   UNL     1      15.838   4.042   0.247  0.00  0.00    +0.002 A 
ATOM     22  C   UNL     1      15.574   4.187  -1.115  0.00  0.00    +0.019 A 
BRANCH  20  23
ATOM      6  N   UNL     1      13.770   4.419  -4.107  0.00  0.00    -0.191 NA
ATOM     23  C   UNL     1      13.989   4.296  -2.973  0.00  0.00    +0.099 C 
ENDBRANCH  20  23
ENDBRANCH  16  17
ENDBRANCH   5  16
ENDBRANCH  12   5
BRANCH  10  13
ATOM     13  C   UNL     1       9.421   6.989   5.765  0.00  0.00    +0.138 C 
BRANCH  13   4
ATOM      3  O   UNL     1       8.553   7.283   8.524  0.00  0.00    -0.276 OA
ATOM      4  N   UNL     1       9.791   6.178   6.889  0.00  0.00    -0.313 N 
ATOM     15  C   UNL     1       9.324   6.396   8.177  0.00  0.00    +0.216 C 
ATOM     24  H   UNL     1      10.418   5.397   6.722  0.00  0.00    +0.149 HD
BRANCH  15   7
ATOM      7  C   UNL     1       9.839   5.430   9.191  0.00  0.00    +0.075 C 
ATOM      8  C   UNL     1       9.514   3.982   9.025  0.00  0.00    +0.013 C 
ATOM      9  C   UNL     1       8.864   4.779  10.116  0.00  0.00    +0.013 C 
ENDBRANCH  15   7
ENDBRANCH  13   4
ENDBRANCH  10  13
TORSDOF 8
ENDMDL
MODEL 2
REMARK VINA RESULT:      -6.1      5.638      6.372
REMARK  Name = 75536549
REMARK  8 active torsions:
REMARK  status: ('A' for Active; 'I' for Inactive)
REMARK    1  A    between atoms: O_2  and  C_11
REMARK    2  A    between atoms: N_4  and  C_13
REMARK    3  A    between atoms: N_5  and  C_12
REMARK    4  A    between atoms: N_5  and  C_16
REMARK    5  A    between atoms: C_7  and  C_15
REMARK    6  A    between atoms: C_10  and  C_13
REMARK    7  A    between atoms: C_16  and  C_17
REMARK    8  A    between atoms: C_20  and  C_23
REMARK                            x       y       z     vdW  Elec       q    Type
REMARK                         _______ _______ _______ _____ _____    ______ ____
ROOT
ATOM      1  O   UNL     1      12.756   8.537   4.928  0.00  0.00    -0.371 OA
ATOM     10  C   UNL     1      12.610   7.452   5.859  0.00  0.00    +0.165 C 
ATOM     11  C   UNL     1      13.887   7.438   6.690  0.00  0.00    +0.164 C 
ATOM     12  C   UNL     1      14.913   7.862   5.657  0.00  0.00    +0.111 C 
ATOM     14  C   UNL     1      14.142   8.919   4.881  0.00  0.00    +0.181 C 
ENDROOT
BRANCH  11   2
ATOM      2  O   UNL     1      14.151   6.157   7.229  0.00  0.00    -0.388 OA
ATOM     26  H   UNL     1      13.318   5.794   7.575  0.00  0.00    +0.210 HD
ENDBRANCH  11   2
BRANCH  12   5
ATOM      5  N   UNL     1      16.146   8.373   6.234  0.00  0.00    -0.305 NA
ATOM     25  H   UNL     1      16.617   7.617   6.734  0.00  0.00    +0.123 HD
BRANCH   5  16
ATOM     16  C   UNL     1      17.039   8.882   5.200  0.00  0.00    +0.116 C 
BRANCH  16  17
ATOM     17  C   UNL     1      18.466   8.465   5.436  0.00  0.00    -0.032 A 
ATOM     18  C   UNL     1      19.205   7.884   4.405  0.00  0.00    +0.023 A 
ATOM     19  C   UNL     1      19.050   8.661   6.688  0.00  0.00    +0.005 A 
ATOM     20  C   UNL     1      20.527   7.499   4.626  0.00  0.00    +0.052 A 
ATOM     21  C   UNL     1      20.373   8.276   6.908  0.00  0.00    +0.002 A 
ATOM     22  C   UNL     1      21.111   7.695   5.877  0.00  0.00    +0.019 A 
BRANCH  20  23
ATOM      6  N   UNL     1      21.901   6.422   2.713  0.00  0.00    -0.191 NA
ATOM     23  C   UNL     1      21.285   6.905   3.571  0.00  0.00    +0.099 C 
ENDBRANCH  20  23
ENDBRANCH  16  17
ENDBRANCH   5  16
ENDBRANCH  12   5
BRANCH  10  13
ATOM     13  C   UNL     1      11.356   7.653   6.689  0.00  0.00    +0.138 C 
BRANCH  13   4
ATOM      3  O   UNL     1       8.967   6.985   8.205  0.00  0.00    -0.276 OA
ATOM      4  N   UNL     1      11.203   6.615   7.666  0.00  0.00    -0.313 N 
ATOM     15  C   UNL     1      10.017   6.369   8.343  0.00  0.00    +0.216 C 
ATOM     24  H   UNL     1      12.007   6.024   7.857  0.00  0.00    +0.149 HD
BRANCH  15   7
ATOM      7  C   UNL     1      10.085   5.238   9.315  0.00  0.00    +0.075 C 
ATOM      8  C   UNL     1       9.412   3.954   8.961  0.00  0.00    +0.013 C 
ATOM      9  C   UNL     1       8.838   4.836  10.029  0.00  0.00    +0.013 C 
ENDBRANCH  15   7
ENDBRANCH  13   4
ENDBRANCH  10  13
TORSDOF 8
ENDMDL
MODEL 3
REMARK VINA RESULT:      -6.0     22.771     26.555
REMARK  Name = 75536549
REMARK  8 active torsions:
REMARK  status: ('A' for Active; 'I' for Inactive)
REMARK    1  A    between atoms: O_2  and  C_11
REMARK    2  A    between atoms: N_4  and  C_13
REMARK    3  A    between atoms: N_5  and  C_12
REMARK    4  A    between atoms: N_5  and  C_16
REMARK    5  A    between atoms: C_7  and  C_15
REMARK    6  A    between atoms: C_10  and  C_13
REMARK    7  A    between atoms: C_16  and  C_17
REMARK    8  A    between atoms: C_20  and  C_23
REMARK                            x       y       z     vdW  Elec       q    Type
REMARK                         _______ _______ _______ _____ _____    ______ ____
ROOT
ATOM      1  O   UNL     1      -1.561 -10.676  13.060  0.00  0.00    -0.371 OA
ATOM     10  C   UNL     1      -1.979 -12.050  13.037  0.00  0.00    +0.165 C 
ATOM     11  C   UNL     1      -2.655 -12.307  14.377  0.00  0.00    +0.164 C 
ATOM     12  C   UNL     1      -1.824 -11.432  15.296  0.00  0.00    +0.111 C 
ATOM     14  C   UNL     1      -1.592 -10.211  14.421  0.00  0.00    +0.181 C 
ENDROOT
BRANCH  11   2
ATOM      2  O   UNL     1      -2.611 -13.674  14.737  0.00  0.00    -0.388 OA
ATOM     26  H   UNL     1      -2.129 -14.157  14.044  0.00  0.00    +0.210 HD
ENDBRANCH  11   2
BRANCH  12   5
ATOM      5  N   UNL     1      -2.485 -11.111  16.551  0.00  0.00    -0.305 NA
ATOM     25  H   UNL     1      -1.910 -10.443  17.068  0.00  0.00    +0.123 HD
BRANCH   5  16
ATOM     16  C   UNL     1      -3.797 -10.519  16.317  0.00  0.00    +0.116 C 
BRANCH  16  17
ATOM     17  C   UNL     1      -4.754 -10.814  17.442  0.00  0.00    -0.032 A 
ATOM     18  C   UNL     1      -6.093 -10.436  17.339  0.00  0.00    +0.023 A 
ATOM     19  C   UNL     1      -4.299 -11.466  18.589  0.00  0.00    +0.005 A 
ATOM     20  C   UNL     1      -6.976 -10.710  18.381  0.00  0.00    +0.052 A 
ATOM     21  C   UNL     1      -5.184 -11.741  19.631  0.00  0.00    +0.002 A 
ATOM     22  C   UNL     1      -6.523 -11.363  19.528  0.00  0.00    +0.019 A 
BRANCH  20  23
ATOM      6  N   UNL     1      -9.463 -10.012  18.191  0.00  0.00    -0.191 NA
ATOM     23  C   UNL     1      -8.348 -10.325  18.276  0.00  0.00    +0.099 C 
ENDBRANCH  20  23
ENDBRANCH  16  17
ENDBRANCH   5  16
ENDBRANCH  12   5
BRANCH  10  13
ATOM     13  C   UNL     1      -2.892 -12.289  11.848  0.00  0.00    +0.138 C 
BRANCH  13   4
ATOM      3  O   UNL     1      -4.883 -10.176  12.005  0.00  0.00    -0.276 OA
ATOM      4  N   UNL     1      -2.993 -11.121  11.023  0.00  0.00    -0.313 N 
ATOM     15  C   UNL     1      -3.984 -10.161  11.173  0.00  0.00    +0.216 C 
ATOM     24  H   UNL     1      -2.290 -10.989  10.301  0.00  0.00    +0.149 HD
BRANCH  15   7
ATOM      7  C   UNL     1      -3.896  -9.028  10.205  0.00  0.00    +0.075 C 
ATOM      8  C   UNL     1      -5.149  -8.300   9.846  0.00  0.00    +0.013 C 
ATOM      9  C   UNL     1      -4.490  -9.203   8.847  0.00  0.00    +0.013 C 
ENDBRANCH  15   7
ENDBRANCH  13   4
ENDBRANCH  10  13
TORSDOF 8
ENDMDL
MODEL 4
REMARK VINA RESULT:      -5.9     26.104     28.509
REMARK  Name = 75536549
REMARK  8 active torsions:
REMARK  status: ('A' for Active; 'I' for Inactive)
REMARK    1  A    between atoms: O_2  and  C_11
REMARK    2  A    between atoms: N_4  and  C_13
REMARK    3  A    between atoms: N_5  and  C_12
REMARK    4  A    between atoms: N_5  and  C_16
REMARK    5  A    between atoms: C_7  and  C_15
REMARK    6  A    between atoms: C_10  and  C_13
REMARK    7  A    between atoms: C_16  and  C_17
REMARK    8  A    between atoms: C_20  and  C_23
REMARK                            x       y       z     vdW  Elec       q    Type
REMARK                         _______ _______ _______ _____ _____    ______ ____
ROOT
ATOM      1  O   UNL     1     -12.267  -9.189  16.093  0.00  0.00    -0.371 OA
ATOM     10  C   UNL     1     -12.249  -7.774  15.848  0.00  0.00    +0.165 C 
ATOM     11  C   UNL     1     -10.878  -7.287  16.298  0.00  0.00    +0.164 C 
ATOM     12  C   UNL     1     -10.621  -8.194  17.487  0.00  0.00    +0.111 C 
ATOM     14  C   UNL     1     -11.187  -9.514  16.985  0.00  0.00    +0.181 C 
ENDROOT
BRANCH  11   2
ATOM      2  O   UNL     1     -10.894  -5.917  16.651  0.00  0.00    -0.388 OA
ATOM     26  H   UNL     1     -10.103  -5.728  17.183  0.00  0.00    +0.210 HD
ENDBRANCH  11   2
BRANCH  12   5
ATOM      5  N   UNL     1      -9.219  -8.286  17.859  0.00  0.00    -0.305 NA
ATOM     25  H   UNL     1      -9.140  -8.805  18.735  0.00  0.00    +0.123 HD
BRANCH   5  16
ATOM     16  C   UNL     1      -8.447  -8.977  16.832  0.00  0.00    +0.116 C 
BRANCH  16  17
ATOM     17  C   UNL     1      -7.239  -9.668  17.409  0.00  0.00    -0.032 A 
ATOM     18  C   UNL     1      -6.080  -9.802  16.646  0.00  0.00    +0.023 A 
ATOM     19  C   UNL     1      -7.281 -10.172  18.709  0.00  0.00    +0.005 A 
ATOM     20  C   UNL     1      -4.963 -10.441  17.181  0.00  0.00    +0.052 A 
ATOM     21  C   UNL     1      -6.163 -10.811  19.245  0.00  0.00    +0.002 A 
ATOM     22  C   UNL     1      -5.004 -10.946  18.481  0.00  0.00    +0.019 A 
BRANCH  20  23
ATOM      6  N   UNL     1      -2.808 -10.691  15.766  0.00  0.00    -0.191 NA
ATOM     23  C   UNL     1      -3.774 -10.579  16.401  0.00  0.00    +0.099 C 
ENDBRANCH  20  23
ENDBRANCH  16  17
ENDBRANCH   5  16
ENDBRANCH  12   5
BRANCH  10  13
ATOM     13  C   UNL     1     -12.529  -7.503  14.381  0.00  0.00    +0.138 C 
BRANCH  13   4
ATOM      3  O   UNL     1     -12.381  -6.229  11.772  0.00  0.00    -0.276 OA
ATOM      4  N   UNL     1     -12.506  -6.098  14.095  0.00  0.00    -0.313 N 
ATOM     15  C   UNL     1     -12.433  -5.580  12.809  0.00  0.00    +0.216 C 
ATOM     24  H   UNL     1     -12.559  -5.454  14.879  0.00  0.00    +0.149 HD
BRANCH  15   7
ATOM      7  C   UNL     1     -12.422  -4.088  12.746  0.00  0.00    +0.075 C 
ATOM      8  C   UNL     1     -13.554  -3.397  12.061  0.00  0.00    +0.013 C 
ATOM      9  C   UNL     1     -12.198  -3.433  11.424  0.00  0.00    +0.013 C 
ENDBRANCH  15   7
ENDBRANCH  13   4
ENDBRANCH  10  13
TORSDOF 8
ENDMDL
MODEL 5
REMARK VINA RESULT:      -5.8      2.851      9.515
REMARK  Name = 75536549
REMARK  8 active torsions:
REMARK  status: ('A' for Active; 'I' for Inactive)
REMARK    1  A    between atoms: O_2  and  C_11
REMARK    2  A    between atoms: N_4  and  C_13
REMARK    3  A    between atoms: N_5  and  C_12
REMARK    4  A    between atoms: N_5  and  C_16
REMARK    5  A    between atoms: C_7  and  C_15
REMARK    6  A    between atoms: C_10  and  C_13
REMARK    7  A    between atoms: C_16  and  C_17
REMARK    8  A    between atoms: C_20  and  C_23
REMARK                            x       y       z     vdW  Elec       q    Type
REMARK                         _______ _______ _______ _____ _____    ______ ____
ROOT
ATOM      1  O   UNL     1      10.535   4.941   0.701  0.00  0.00    -0.371 OA
ATOM     10  C   UNL     1      11.945   4.671   0.638  0.00  0.00    +0.165 C 
ATOM     11  C   UNL     1      12.393   4.441   2.076  0.00  0.00    +0.164 C 
ATOM     12  C   UNL     1      11.498   5.415   2.820  0.00  0.00    +0.111 C 
ATOM     14  C   UNL     1      10.190   5.263   2.060  0.00  0.00    +0.181 C 
ENDROOT
BRANCH  11   2
ATOM      2  O   UNL     1      13.769   4.721   2.250  0.00  0.00    -0.388 OA
ATOM     26  H   UNL     1      14.175   3.976   2.723  0.00  0.00    +0.210 HD
ENDBRANCH  11   2
BRANCH  12   5
ATOM      5  N   UNL     1      11.366   5.120   4.237  0.00  0.00    -0.305 NA
ATOM     25  H   UNL     1      11.695   5.923   4.776  0.00  0.00    +0.123 HD
BRANCH   5  16
ATOM     16  C   UNL     1       9.977   4.853   4.591  0.00  0.00    +0.116 C 
BRANCH  16  17
ATOM     17  C   UNL     1       9.577   5.554   5.862  0.00  0.00    -0.032 A 
ATOM     18  C   UNL     1       9.867   4.978   7.099  0.00  0.00    +0.023 A 
ATOM     19  C   UNL     1       8.916   6.781   5.801  0.00  0.00    +0.005 A 
ATOM     20  C   UNL     1       9.497   5.629   8.275  0.00  0.00    +0.052 A 
ATOM     21  C   UNL     1       8.547   7.432   6.978  0.00  0.00    +0.002 A 
ATOM     22  C   UNL     1       8.837   6.856   8.215  0.00  0.00    +0.019 A 
BRANCH  20  23
ATOM      6  N   UNL     1      10.036   4.563  10.573  0.00  0.00    -0.191 NA
ATOM     23  C   UNL     1       9.795   5.041   9.542  0.00  0.00    +0.099 C 
ENDBRANCH  20  23
ENDBRANCH  16  17
ENDBRANCH   5  16
ENDBRANCH  12   5
BRANCH  10  13
ATOM     13  C   UNL     1      12.199   3.479  -0.266  0.00  0.00    +0.138 C 
BRANCH  13   4
ATOM      3  O   UNL     1      10.480   2.438  -2.368  0.00  0.00    -0.276 OA
ATOM      4  N   UNL     1      12.182   3.859  -1.649  0.00  0.00    -0.313 N 
ATOM     15  C   UNL     1      11.320   3.303  -2.585  0.00  0.00    +0.216 C 
ATOM     24  H   UNL     1      12.828   4.583  -1.949  0.00  0.00    +0.149 HD
BRANCH  15   7
ATOM      7  C   UNL     1      11.476   3.849  -3.965  0.00  0.00    +0.075 C 
ATOM      8  C   UNL     1      10.847   3.108  -5.099  0.00  0.00    +0.013 C 
ATOM      9  C   UNL     1      12.337   3.107  -4.932  0.00  0.00    +0.013 C 
ENDBRANCH  15   7
ENDBRANCH  13   4
ENDBRANCH  10  13
TORSDOF 8
ENDMDL
MODEL 6
REMARK VINA RESULT:      -5.8      1.571      2.163
REMARK  Name = 75536549
REMARK  8 active torsions:
REMARK  status: ('A' for Active; 'I' for Inactive)
REMARK    1  A    between atoms: O_2  and  C_11
REMARK    2  A    between atoms: N_4  and  C_13
REMARK    3  A    between atoms: N_5  and  C_12
REMARK    4  A    between atoms: N_5  and  C_16
REMARK    5  A    between atoms: C_7  and  C_15
REMARK    6  A    between atoms: C_10  and  C_13
REMARK    7  A    between atoms: C_16  and  C_17
REMARK    8  A    between atoms: C_20  and  C_23
REMARK                            x       y       z     vdW  Elec       q    Type
REMARK                         _______ _______ _______ _____ _____    ______ ____
ROOT
ATOM      1  O   UNL     1      11.904   7.706   4.613  0.00  0.00    -0.371 OA
ATOM     10  C   UNL     1      10.860   7.108   5.398  0.00  0.00    +0.165 C 
ATOM     11  C   UNL     1      10.839   5.633   5.017  0.00  0.00    +0.164 C 
ATOM     12  C   UNL     1      11.194   5.707   3.544  0.00  0.00    +0.111 C 
ATOM     14  C   UNL     1      12.243   6.808   3.542  0.00  0.00    +0.181 C 
ENDROOT
BRANCH  11   2
ATOM      2  O   UNL     1       9.572   5.048   5.245  0.00  0.00    -0.388 OA
ATOM     26  H   UNL     1       9.683   4.083   5.280  0.00  0.00    +0.210 HD
ENDBRANCH  11   2
BRANCH  12   5
ATOM      5  N   UNL     1      11.690   4.454   3.000  0.00  0.00    -0.305 NA
ATOM     25  H   UNL     1      11.635   3.733   3.721  0.00  0.00    +0.123 HD
BRANCH   5  16
ATOM     16  C   UNL     1      10.897   4.030   1.851  0.00  0.00    +0.116 C 
BRANCH  16  17
ATOM     17  C   UNL     1      11.704   4.035   0.580  0.00  0.00    -0.032 A 
ATOM     18  C   UNL     1      13.098   4.036   0.637  0.00  0.00    +0.023 A 
ATOM     19  C   UNL     1      11.056   4.037  -0.656  0.00  0.00    +0.005 A 
ATOM     20  C   UNL     1      13.844   4.039  -0.541  0.00  0.00    +0.052 A 
ATOM     21  C   UNL     1      11.803   4.040  -1.833  0.00  0.00    +0.002 A 
ATOM     22  C   UNL     1      13.197   4.042  -1.776  0.00  0.00    +0.019 A 
BRANCH  20  23
ATOM      6  N   UNL     1      16.432   4.039  -0.437  0.00  0.00    -0.191 NA
ATOM     23  C   UNL     1      15.271   4.039  -0.484  0.00  0.00    +0.099 C 
ENDBRANCH  20  23
ENDBRANCH  16  17
ENDBRANCH   5  16
ENDBRANCH  12   5
BRANCH  10  13
ATOM     13  C   UNL     1      11.128   7.343   6.874  0.00  0.00    +0.138 C 
BRANCH  13   4
ATOM      3  O   UNL     1       8.583   7.505   8.269  0.00  0.00    -0.276 OA
ATOM      4  N   UNL     1      10.511   6.334   7.685  0.00  0.00    -0.313 N 
ATOM     15  C   UNL     1       9.286   6.503   8.315  0.00  0.00    +0.216 C 
ATOM     24  H   UNL     1      10.996   5.447   7.786  0.00  0.00    +0.149 HD
BRANCH  15   7
ATOM      7  C   UNL     1       8.834   5.322   9.108  0.00  0.00    +0.075 C 
ATOM      8  C   UNL     1       9.739   4.787  10.168  0.00  0.00    +0.013 C 
ATOM      9  C   UNL     1       9.527   4.016   8.899  0.00  0.00    +0.013 C 
ENDBRANCH  15   7
ENDBRANCH  13   4
ENDBRANCH  10  13
TORSDOF 8
ENDMDL
MODEL 7
REMARK VINA RESULT:      -5.8     29.554     35.371
REMARK  Name = 75536549
REMARK  8 active torsions:
REMARK  status: ('A' for Active; 'I' for Inactive)
REMARK    1  A    between atoms: O_2  and  C_11
REMARK    2  A    between atoms: N_4  and  C_13
REMARK    3  A    between atoms: N_5  and  C_12
REMARK    4  A    between atoms: N_5  and  C_16
REMARK    5  A    between atoms: C_7  and  C_15
REMARK    6  A    between atoms: C_10  and  C_13
REMARK    7  A    between atoms: C_16  and  C_17
REMARK    8  A    between atoms: C_20  and  C_23
REMARK                            x       y       z     vdW  Elec       q    Type
REMARK                         _______ _______ _______ _____ _____    ______ ____
ROOT
ATOM      1  O   UNL     1     -17.195   5.464  23.324  0.00  0.00    -0.371 OA
ATOM     10  C   UNL     1     -15.779   5.441  23.083  0.00  0.00    +0.165 C 
ATOM     11  C   UNL     1     -15.231   4.282  23.906  0.00  0.00    +0.164 C 
ATOM     12  C   UNL     1     -16.133   4.337  25.125  0.00  0.00    +0.111 C 
ATOM     14  C   UNL     1     -17.474   4.673  24.492  0.00  0.00    +0.181 C 
ENDROOT
BRANCH  11   2
ATOM      2  O   UNL     1     -13.866   4.463  24.228  0.00  0.00    -0.388 OA
ATOM     26  H   UNL     1     -13.757   4.330  25.184  0.00  0.00    +0.210 HD
ENDBRANCH  11   2
BRANCH  12   5
ATOM      5  N   UNL     1     -16.161   3.099  25.886  0.00  0.00    -0.305 NA
ATOM     25  H   UNL     1     -15.206   2.753  25.995  0.00  0.00    +0.123 HD
BRANCH   5  16
ATOM     16  C   UNL     1     -16.740   3.308  27.208  0.00  0.00    +0.116 C 
BRANCH  16  17
ATOM     17  C   UNL     1     -16.013   2.525  28.269  0.00  0.00    -0.032 A 
ATOM     18  C   UNL     1     -15.124   3.169  29.128  0.00  0.00    +0.023 A 
ATOM     19  C   UNL     1     -16.232   1.152  28.392  0.00  0.00    +0.005 A 
ATOM     20  C   UNL     1     -14.452   2.442  30.110  0.00  0.00    +0.052 A 
ATOM     21  C   UNL     1     -15.561   0.425  29.375  0.00  0.00    +0.002 A 
ATOM     22  C   UNL     1     -14.670   1.070  30.234  0.00  0.00    +0.019 A 
BRANCH  20  23
ATOM      6  N   UNL     1     -12.801   3.637  31.708  0.00  0.00    -0.191 NA
ATOM     23  C   UNL     1     -13.542   3.101  30.992  0.00  0.00    +0.099 C 
ENDBRANCH  20  23
ENDBRANCH  16  17
ENDBRANCH   5  16
ENDBRANCH  12   5
BRANCH  10  13
ATOM     13  C   UNL     1     -15.513   5.300  21.596  0.00  0.00    +0.138 C 
BRANCH  13   4
ATOM      3  O   UNL     1     -12.627   5.543  21.843  0.00  0.00    -0.276 OA
ATOM      4  N   UNL     1     -14.681   6.361  21.109  0.00  0.00    -0.313 N 
ATOM     15  C   UNL     1     -13.304   6.392  21.276  0.00  0.00    +0.216 C 
ATOM     24  H   UNL     1     -15.130   7.121  20.605  0.00  0.00    +0.149 HD
BRANCH  15   7
ATOM      7  C   UNL     1     -12.639   7.592  20.689  0.00  0.00    +0.075 C 
ATOM      8  C   UNL     1     -12.651   7.758  19.205  0.00  0.00    +0.013 C 
ATOM      9  C   UNL     1     -11.378   7.400  19.912  0.00  0.00    +0.013 C 
ENDBRANCH  15   7
ENDBRANCH  13   4
ENDBRANCH  10  13
TORSDOF 8
ENDMDL
MODEL 8
REMARK VINA RESULT:      -5.8     27.699     32.363
REMARK  Name = 75536549
REMARK  8 active torsions:
REMARK  status: ('A' for Active; 'I' for Inactive)
REMARK    1  A    between atoms: O_2  and  C_11
REMARK    2  A    between atoms: N_4  and  C_13
REMARK    3  A    between atoms: N_5  and  C_12
REMARK    4  A    between atoms: N_5  and  C_16
REMARK    5  A    between atoms: C_7  and  C_15
REMARK    6  A    between atoms: C_10  and  C_13
REMARK    7  A    between atoms: C_16  and  C_17
REMARK    8  A    between atoms: C_20  and  C_23
REMARK                            x       y       z     vdW  Elec       q    Type
REMARK                         _______ _______ _______ _____ _____    ______ ____
ROOT
ATOM      1  O   UNL     1     -16.326   4.817  22.330  0.00  0.00    -0.371 OA
ATOM     10  C   UNL     1     -15.599   4.350  23.478  0.00  0.00    +0.165 C 
ATOM     11  C   UNL     1     -14.242   5.040  23.426  0.00  0.00    +0.164 C 
ATOM     12  C   UNL     1     -14.002   5.099  21.929  0.00  0.00    +0.111 C 
ATOM     14  C   UNL     1     -15.396   5.419  21.412  0.00  0.00    +0.181 C 
ENDROOT
BRANCH  11   2
ATOM      2  O   UNL     1     -13.249   4.300  24.110  0.00  0.00    -0.388 OA
ATOM     26  H   UNL     1     -13.550   3.379  24.184  0.00  0.00    +0.210 HD
ENDBRANCH  11   2
BRANCH  12   5
ATOM      5  N   UNL     1     -13.012   6.088  21.536  0.00  0.00    -0.305 NA
ATOM     25  H   UNL     1     -12.555   5.779  20.676  0.00  0.00    +0.123 HD
BRANCH   5  16
ATOM     16  C   UNL     1     -13.634   7.386  21.297  0.00  0.00    +0.116 C 
BRANCH  16  17
ATOM     17  C   UNL     1     -12.714   8.320  20.556  0.00  0.00    -0.032 A 
ATOM     18  C   UNL     1     -12.194   7.951  19.315  0.00  0.00    +0.023 A 
ATOM     19  C   UNL     1     -12.383   9.557  21.111  0.00  0.00    +0.005 A 
ATOM     20  C   UNL     1     -11.343   8.818  18.631  0.00  0.00    +0.052 A 
ATOM     21  C   UNL     1     -11.533  10.424  20.425  0.00  0.00    +0.002 A 
ATOM     22  C   UNL     1     -11.012  10.054  19.185  0.00  0.00    +0.019 A 
BRANCH  20  23
ATOM      6  N   UNL     1     -10.377   8.135  16.326  0.00  0.00    -0.191 NA
ATOM     23  C   UNL     1     -10.810   8.441  17.360  0.00  0.00    +0.099 C 
ENDBRANCH  20  23
ENDBRANCH  16  17
ENDBRANCH   5  16
ENDBRANCH  12   5
BRANCH  10  13
ATOM     13  C   UNL     1     -16.382   4.659  24.741  0.00  0.00    +0.138 C 
BRANCH  13   4
ATOM      3  O   UNL     1     -17.656   4.134  27.301  0.00  0.00    -0.276 OA
ATOM      4  N   UNL     1     -15.813   4.004  25.883  0.00  0.00    -0.313 N 
ATOM     15  C   UNL     1     -16.502   3.797  27.069  0.00  0.00    +0.216 C 
ATOM     24  H   UNL     1     -14.858   3.664  25.806  0.00  0.00    +0.149 HD
BRANCH  15   7
ATOM      7  C   UNL     1     -15.715   3.093  28.124  0.00  0.00    +0.075 C 
ATOM      8  C   UNL     1     -16.416   2.673  29.374  0.00  0.00    +0.013 C 
ATOM      9  C   UNL     1     -15.439   3.810  29.405  0.00  0.00    +0.013 C 
ENDBRANCH  15   7
ENDBRANCH  13   4
ENDBRANCH  10  13
TORSDOF 8
ENDMDL
MODEL 9
REMARK VINA RESULT:      -5.7     31.013     36.170
REMARK  Name = 75536549
REMARK  8 active torsions:
REMARK  status: ('A' for Active; 'I' for Inactive)
REMARK    1  A    between atoms: O_2  and  C_11
REMARK    2  A    between atoms: N_4  and  C_13
REMARK    3  A    between atoms: N_5  and  C_12
REMARK    4  A    between atoms: N_5  and  C_16
REMARK    5  A    between atoms: C_7  and  C_15
REMARK    6  A    between atoms: C_10  and  C_13
REMARK    7  A    between atoms: C_16  and  C_17
REMARK    8  A    between atoms: C_20  and  C_23
REMARK                            x       y       z     vdW  Elec       q    Type
REMARK                         _______ _______ _______ _____ _____    ______ ____
ROOT
ATOM      1  O   UNL     1     -16.755   2.055  24.232  0.00  0.00    -0.371 OA
ATOM     10  C   UNL     1     -16.747   3.437  23.838  0.00  0.00    +0.165 C 
ATOM     11  C   UNL     1     -16.063   4.193  24.969  0.00  0.00    +0.164 C 
ATOM     12  C   UNL     1     -16.534   3.403  26.176  0.00  0.00    +0.111 C 
ATOM     14  C   UNL     1     -16.482   1.980  25.643  0.00  0.00    +0.181 C 
ENDROOT
BRANCH  11   2
ATOM      2  O   UNL     1     -16.463   5.549  25.015  0.00  0.00    -0.388 OA
ATOM     26  H   UNL     1     -17.352   5.593  25.406  0.00  0.00    +0.210 HD
ENDBRANCH  11   2
BRANCH  12   5
ATOM      5  N   UNL     1     -15.708   3.594  27.357  0.00  0.00    -0.305 NA
ATOM     25  H   UNL     1     -15.295   4.527  27.327  0.00  0.00    +0.123 HD
BRANCH   5  16
ATOM     16  C   UNL     1     -16.499   3.469  28.576  0.00  0.00    +0.116 C 
BRANCH  16  17
ATOM     17  C   UNL     1     -15.804   2.624  29.611  0.00  0.00    -0.032 A 
ATOM     18  C   UNL     1     -15.081   1.496  29.223  0.00  0.00    +0.023 A 
ATOM     19  C   UNL     1     -15.882   2.973  30.960  0.00  0.00    +0.005 A 
ATOM     20  C   UNL     1     -14.437   0.716  30.182  0.00  0.00    +0.052 A 
ATOM     21  C   UNL     1     -15.237   2.192  31.919  0.00  0.00    +0.002 A 
ATOM     22  C   UNL     1     -14.515   1.064  31.531  0.00  0.00    +0.019 A 
BRANCH  20  23
ATOM      6  N   UNL     1     -13.094  -1.378  29.463  0.00  0.00    -0.191 NA
ATOM     23  C   UNL     1     -13.696  -0.439  29.785  0.00  0.00    +0.099 C 
ENDBRANCH  20  23
ENDBRANCH  16  17
ENDBRANCH   5  16
ENDBRANCH  12   5
BRANCH  10  13
ATOM     13  C   UNL     1     -16.040   3.586  22.503  0.00  0.00    +0.138 C 
BRANCH  13   4
ATOM      3  O   UNL     1     -15.563   5.853  20.747  0.00  0.00    -0.276 OA
ATOM      4  N   UNL     1     -14.974   4.541  22.580  0.00  0.00    -0.313 N 
ATOM     15  C   UNL     1     -14.826   5.597  21.692  0.00  0.00    +0.216 C 
ATOM     24  H   UNL     1     -14.302   4.441  23.336  0.00  0.00    +0.149 HD
BRANCH  15   7
ATOM      7  C   UNL     1     -13.644   6.468  21.961  0.00  0.00    +0.075 C 
ATOM      8  C   UNL     1     -13.201   7.416  20.896  0.00  0.00    +0.013 C 
ATOM      9  C   UNL     1     -12.379   6.203  21.214  0.00  0.00    +0.013 C 
ENDBRANCH  15   7
ENDBRANCH  13   4
ENDBRANCH  10  13
TORSDOF 8
ENDMDL
MODEL 10
REMARK VINA RESULT:      -5.7      1.880      2.287
REMARK  Name = 75536549
REMARK  8 active torsions:
REMARK  status: ('A' for Active; 'I' for Inactive)
REMARK    1  A    between atoms: O_2  and  C_11
REMARK    2  A    between atoms: N_4  and  C_13
REMARK    3  A    between atoms: N_5  and  C_12
REMARK    4  A    between atoms: N_5  and  C_16
REMARK    5  A    between atoms: C_7  and  C_15
REMARK    6  A    between atoms: C_10  and  C_13
REMARK    7  A    between atoms: C_16  and  C_17
REMARK    8  A    between atoms: C_20  and  C_23
REMARK                            x       y       z     vdW  Elec       q    Type
REMARK                         _______ _______ _______ _____ _____    ______ ____
ROOT
ATOM      1  O   UNL     1      12.871   6.873   3.512  0.00  0.00    -0.371 OA
ATOM     10  C   UNL     1      11.644   6.555   4.188  0.00  0.00    +0.165 C 
ATOM     11  C   UNL     1      11.311   5.120   3.802  0.00  0.00    +0.164 C 
ATOM     12  C   UNL     1      11.815   5.078   2.371  0.00  0.00    +0.111 C 
ATOM     14  C   UNL     1      13.090   5.899   2.476  0.00  0.00    +0.181 C 
ENDROOT
BRANCH  11   2
ATOM      2  O   UNL     1       9.925   4.855   3.901  0.00  0.00    -0.388 OA
ATOM     26  H   UNL     1       9.506   5.103   3.060  0.00  0.00    +0.210 HD
ENDBRANCH  11   2
BRANCH  12   5
ATOM      5  N   UNL     1      12.049   3.732   1.874  0.00  0.00    -0.305 NA
ATOM     25  H   UNL     1      11.306   3.485   1.217  0.00  0.00    +0.123 HD
BRANCH   5  16
ATOM     16  C   UNL     1      13.333   3.641   1.188  0.00  0.00    +0.116 C 
BRANCH  16  17
ATOM     17  C   UNL     1      13.168   3.610  -0.308  0.00  0.00    -0.032 A 
ATOM     18  C   UNL     1      12.024   3.046  -0.874  0.00  0.00    +0.023 A 
ATOM     19  C   UNL     1      14.161   4.147  -1.129  0.00  0.00    +0.005 A 
ATOM     20  C   UNL     1      11.873   3.019  -2.260  0.00  0.00    +0.052 A 
ATOM     21  C   UNL     1      14.008   4.120  -2.515  0.00  0.00    +0.002 A 
ATOM     22  C   UNL     1      12.865   3.555  -3.081  0.00  0.00    +0.019 A 
BRANCH  20  23
ATOM      6  N   UNL     1       9.750   1.975  -3.313  0.00  0.00    -0.191 NA
ATOM     23  C   UNL     1      10.702   2.443  -2.841  0.00  0.00    +0.099 C 
ENDBRANCH  20  23
ENDBRANCH  16  17
ENDBRANCH   5  16
ENDBRANCH  12   5
BRANCH  10  13
ATOM     13  C   UNL     1      11.817   6.750   5.683  0.00  0.00    +0.138 C 
BRANCH  13   4
ATOM      3  O   UNL     1      10.261   7.537   8.009  0.00  0.00    -0.276 OA
ATOM      4  N   UNL     1      10.888   5.948   6.425  0.00  0.00    -0.313 N 
ATOM     15  C   UNL     1      10.187   6.412   7.529  0.00  0.00    +0.216 C 
ATOM     24  H   UNL     1      10.730   4.994   6.112  0.00  0.00    +0.149 HD
BRANCH  15   7
ATOM      7  C   UNL     1       9.274   5.406   8.147  0.00  0.00    +0.075 C 
ATOM      8  C   UNL     1       9.520   4.995   9.561  0.00  0.00    +0.013 C 
ATOM      9  C   UNL     1       9.808   4.043   8.440  0.00  0.00    +0.013 C 
ENDBRANCH  15   7
ENDBRANCH  13   4
ENDBRANCH  10  13
TORSDOF 8
ENDMDL
