REMARK  Name = 75536239
REMARK  11 active torsions:
REMARK  status: ('A' for Active; 'I' for Inactive)
REMARK    1  A    between atoms: O_3  and  C_9
REMARK    2  A    between atoms: N_6  and  C_13
REMARK    3  A    between atoms: C_8  and  C_13
REMARK    4  A    between atoms: C_10  and  C_14
REMARK    5  A    between atoms: C_14  and  C_17
REMARK    6  A    between atoms: C_15  and  C_16
REMARK    7  A    between atoms: C_15  and  C_19
REMARK    8  A    between atoms: C_15  and  C_20
REMARK    9  A    between atoms: C_15  and  C_21
REMARK   10  A    between atoms: C_16  and  C_18
REMARK   11  A    between atoms: C_23  and  C_24
REMARK                            x       y       z     vdW  Elec       q    Type
REMARK                         _______ _______ _______ _____ _____    ______ ____
ROOT
ATOM      2  O   UNL     1       2.786  -0.815   0.756  0.00  0.00    -0.369 OA
ATOM      8  C   UNL     1       3.591   0.359   0.591  0.00  0.00    +0.164 C 
ATOM      9  C   UNL     1       5.068  -0.001   0.388  0.00  0.00    +0.145 C 
ATOM     10  C   UNL     1       2.886  -1.776  -0.298  0.00  0.00    +0.125 C 
ATOM     11  C   UNL     1       5.264  -1.067  -0.687  0.00  0.00    +0.036 C 
ATOM     12  C   UNL     1       4.329  -2.252  -0.457  0.00  0.00    +0.034 C 
ENDROOT
BRANCH   9   3
ATOM      3  O   UNL     1       5.590  -0.518   1.615  0.00  0.00    -0.389 OA
ATOM     31  H   UNL     1       6.536  -0.695   1.480  0.00  0.00    +0.210 HD
ENDBRANCH   9   3
BRANCH   8  13
ATOM     13  C   UNL     1       3.038   1.254  -0.516  0.00  0.00    +0.138 C 
BRANCH  13   6
ATOM      5  O   UNL     1       1.959   3.504   0.956  0.00  0.00    -0.276 OA
ATOM      6  N   UNL     1       1.645   1.570  -0.295  0.00  0.00    -0.313 N 
ATOM     18  C   UNL     1       1.222   2.674   0.426  0.00  0.00    +0.214 C 
ATOM     30  H   UNL     1       0.954   0.935  -0.683  0.00  0.00    +0.149 HD
BRANCH  18  16
ATOM     16  C   UNL     1      -0.291   2.777   0.522  0.00  0.00    +0.102 C 
BRANCH  16  15
ATOM     15  C   UNL     1      -0.952   3.632  -0.586  0.00  0.00    -0.029 C 
ATOM     19  C   UNL     1      -2.478   3.693  -0.402  0.00  0.00    +0.011 C 
ATOM     20  C   UNL     1      -0.392   5.064  -0.482  0.00  0.00    +0.011 C 
ATOM     21  C   UNL     1      -0.631   3.085  -1.986  0.00  0.00    +0.011 C 
ENDBRANCH  16  15
ENDBRANCH  18  16
ENDBRANCH  13   6
ENDBRANCH   8  13
BRANCH  10  14
ATOM     14  C   UNL     1       1.967  -2.939   0.052  0.00  0.00    +0.090 C 
BRANCH  14  17
ATOM      4  O   UNL     1      -1.320  -2.469  -1.351  0.00  0.00    -0.354 OA
ATOM      7  N   UNL     1       0.003  -2.887  -1.431  0.00  0.00    -0.083 NA
ATOM     17  C   UNL     1       0.524  -2.615  -0.231  0.00  0.00    +0.087 A 
ATOM     22  C   UNL     1      -0.413  -2.030   0.638  0.00  0.00    +0.076 A 
ATOM     23  C   UNL     1      -1.555  -1.960  -0.114  0.00  0.00    +0.167 A 
BRANCH  23  24
ATOM      1  F   UNL     1      -6.728  -0.126   0.797  0.00  0.00    -0.205 F 
ATOM     24  C   UNL     1      -2.888  -1.486   0.120  0.00  0.00    +0.020 A 
ATOM     25  C   UNL     1      -3.229  -0.948   1.361  0.00  0.00    +0.014 A 
ATOM     26  C   UNL     1      -3.845  -1.564  -0.892  0.00  0.00    +0.014 A 
ATOM     27  C   UNL     1      -4.526  -0.488   1.590  0.00  0.00    +0.039 A 
ATOM     28  C   UNL     1      -5.141  -1.105  -0.664  0.00  0.00    +0.039 A 
ATOM     29  C   UNL     1      -5.482  -0.567   0.577  0.00  0.00    +0.123 A 
ENDBRANCH  23  24
ENDBRANCH  14  17
ENDBRANCH  10  14
TORSDOF 8
