REMARK  Name = 44716951
REMARK  16 active torsions:
REMARK  status: ('A' for Active; 'I' for Inactive)
REMARK    1  A    between atoms: O_1  and  C_17
REMARK    2  A    between atoms: O_1  and  C_26
REMARK    3  A    between atoms: O_2  and  C_18
REMARK    4  A    between atoms: O_3  and  C_23
REMARK    5  A    between atoms: O_6  and  C_31
REMARK    6  A    between atoms: O_7  and  C_35
REMARK    7  A    between atoms: O_7  and  C_38
REMARK    8  A    between atoms: O_8  and  C_36
REMARK    9  A    between atoms: O_8  and  C_39
REMARK   10  A    between atoms: N_10  and  C_32
REMARK   11  A    between atoms: C_11  and  C_21
REMARK   12  A    between atoms: C_13  and  C_23
REMARK   13  A    between atoms: C_13  and  C_24
REMARK   14  A    between atoms: C_14  and  C_22
REMARK   15  A    between atoms: C_22  and  C_25
REMARK   16  A    between atoms: C_27  and  C_31
REMARK                            x       y       z     vdW  Elec       q    Type
REMARK                         _______ _______ _______ _____ _____    ______ ____
ROOT
ATOM     11  C   UNL     1      -2.164  -1.271   0.384  0.00  0.00    -0.023 C 
ATOM     12  C   UNL     1      -1.432  -2.156  -0.698  0.00  0.00    +0.007 C 
ATOM     13  C   UNL     1       0.105  -2.425  -0.470  0.00  0.00    +0.031 C 
ATOM     14  C   UNL     1      -3.577  -0.880  -0.218  0.00  0.00    +0.032 C 
ATOM     15  C   UNL     1      -1.331   0.020   0.607  0.00  0.00    +0.011 C 
ATOM     16  C   UNL     1      -2.263  -3.414  -1.035  0.00  0.00    +0.007 C 
ATOM     17  C   UNL     1       0.816  -1.069  -0.177  0.00  0.00    +0.186 C 
ATOM     18  C   UNL     1      -4.418  -2.102  -0.656  0.00  0.00    +0.119 C 
ATOM     19  C   UNL     1       0.140  -0.242   0.911  0.00  0.00    +0.046 C 
ATOM     20  C   UNL     1      -3.642  -3.038  -1.578  0.00  0.00    +0.032 C 
ATOM     21  C   UNL     1      -2.331  -1.976   1.752  0.00  0.00    +0.012 C 
ATOM     24  C   UNL     1       0.721  -2.999  -1.779  0.00  0.00    +0.017 C 
ENDROOT
BRANCH  18   2
ATOM      2  O   UNL     1      -4.893  -2.825   0.475  0.00  0.00    -0.391 OA
ATOM     40  H   UNL     1      -5.433  -3.565   0.150  0.00  0.00    +0.210 HD
ENDBRANCH  18   2
BRANCH  17   1
ATOM      1  O   UNL     1       2.174  -1.257   0.221  0.00  0.00    -0.446 OA
BRANCH   1  26
ATOM      5  O   UNL     1       2.711   0.762  -0.710  0.00  0.00    -0.226 OA
ATOM     10  N   UNL     1       4.308  -0.587   0.345  0.00  0.00    -0.251 N 
ATOM     26  C   UNL     1       3.047  -0.251  -0.109  0.00  0.00    +0.405 C 
ATOM     42  H   UNL     1       4.389  -1.479   0.827  0.00  0.00    +0.158 HD
BRANCH  10  32
ATOM     32  C   UNL     1       5.503   0.157   0.223  0.00  0.00    +0.043 A 
ATOM     33  C   UNL     1       6.694  -0.345   0.748  0.00  0.00    +0.069 A 
ATOM     34  C   UNL     1       5.492   1.394  -0.422  0.00  0.00    +0.069 A 
ATOM     35  C   UNL     1       6.672   2.128  -0.543  0.00  0.00    +0.125 A 
ATOM     36  C   UNL     1       7.873   0.390   0.628  0.00  0.00    +0.125 A 
ATOM     37  C   UNL     1       7.862   1.626  -0.018  0.00  0.00    +0.091 A 
BRANCH  35   7
ATOM      7  O   UNL     1       6.661   3.335  -1.172  0.00  0.00    -0.495 OA
ATOM     38  C   UNL     1       7.903   4.033  -1.260  0.00  0.00    +0.277 C 
ENDBRANCH  35   7
BRANCH  36   8
ATOM      8  O   UNL     1       9.035  -0.099   1.141  0.00  0.00    -0.495 OA
ATOM     39  C   UNL     1      10.204   0.704   0.983  0.00  0.00    +0.277 C 
ENDBRANCH  36   8
ENDBRANCH  10  32
ENDBRANCH   1  26
ENDBRANCH  17   1
BRANCH  14  22
ATOM     22  C   UNL     1      -4.425   0.045   0.670  0.00  0.00    +0.102 C 
BRANCH  22  25
ATOM      4  O   UNL     1      -5.473   0.599  -1.394  0.00  0.00    -0.276 OA
ATOM      9  N   UNL     1      -6.267   1.650   0.508  0.00  0.00    -0.296 N 
ATOM     25  C   UNL     1      -5.432   0.782  -0.176  0.00  0.00    +0.216 C 
ATOM     27  C   UNL     1      -7.362   2.370  -0.144  0.00  0.00    +0.101 C 
ATOM     28  C   UNL     1      -6.253   1.898   1.948  0.00  0.00    +0.108 C 
ATOM     29  C   UNL     1      -8.244   2.825   1.021  0.00  0.00    +0.026 C 
ATOM     30  C   UNL     1      -7.249   3.029   2.158  0.00  0.00    +0.021 C 
BRANCH  27  31
ATOM     31  C   UNL     1      -6.843   3.548  -0.968  0.00  0.00    +0.178 C 
BRANCH  31   6
ATOM      6  O   UNL     1      -6.441   3.065  -2.236  0.00  0.00    -0.393 OA
ATOM     43  H   UNL     1      -6.120   3.829  -2.745  0.00  0.00    +0.209 HD
ENDBRANCH  31   6
ENDBRANCH  27  31
ENDBRANCH  22  25
ENDBRANCH  14  22
BRANCH  13  23
ATOM     23  C   UNL     1       0.407  -3.467   0.626  0.00  0.00    +0.166 C 
BRANCH  23   3
ATOM      3  O   UNL     1       1.712  -3.956   0.412  0.00  0.00    -0.394 OA
ATOM     41  H   UNL     1       1.892  -4.615   1.104  0.00  0.00    +0.209 HD
ENDBRANCH  23   3
ENDBRANCH  13  23
TORSDOF 12
