REMARK  Name = 45360516
REMARK  11 active torsions:
REMARK  status: ('A' for Active; 'I' for Inactive)
REMARK    1  A    between atoms: O_2  and  C_24
REMARK    2  A    between atoms: O_5  and  C_38
REMARK    3  A    between atoms: O_5  and  C_39
REMARK    4  A    between atoms: N_6  and  C_15
REMARK    5  A    between atoms: N_8  and  C_17
REMARK    6  A    between atoms: C_10  and  C_12
REMARK    7  A    between atoms: C_11  and  C_18
REMARK    8  A    between atoms: C_12  and  C_15
REMARK    9  A    between atoms: C_18  and  C_24
REMARK   10  A    between atoms: C_23  and  C_27
REMARK   11  A    between atoms: C_27  and  C_30
REMARK                            x       y       z     vdW  Elec       q    Type
REMARK                         _______ _______ _______ _____ _____    ______ ____
ROOT
ATOM      1  O   UNL     1       3.620  -2.583  -0.961  0.00  0.00    -0.275 OA
ATOM      7  N   UNL     1       4.126  -0.713   0.320  0.00  0.00    -0.301 N 
ATOM     10  C   UNL     1       3.669   1.613   1.064  0.00  0.00    +0.011 C 
ATOM     11  C   UNL     1       4.832   2.092   0.159  0.00  0.00    +0.006 C 
ATOM     13  C   UNL     1       3.902   0.151   1.486  0.00  0.00    +0.111 C 
ATOM     14  C   UNL     1       5.063   1.132  -1.020  0.00  0.00    +0.023 C 
ATOM     16  C   UNL     1       5.239  -0.306  -0.538  0.00  0.00    +0.108 C 
ATOM     23  C   UNL     1       3.395  -1.859   0.012  0.00  0.00    +0.220 C 
ENDROOT
BRANCH  10  12
ATOM     12  C   UNL     1       2.281   1.769   0.430  0.00  0.00    +0.020 C 
BRANCH  12  15
ATOM     15  C   UNL     1       1.206   1.900   1.500  0.00  0.00    +0.085 C 
BRANCH  15   6
ATOM      6  N   UNL     1      -0.108   2.030   0.872  0.00  0.00    -0.302 NA
ATOM     17  C   UNL     1      -2.964   1.472   0.568  0.00  0.00    +0.095 C 
ATOM     19  C   UNL     1      -0.560   0.731   0.353  0.00  0.00    +0.086 C 
ATOM     20  C   UNL     1      -1.079   2.590   1.822  0.00  0.00    +0.086 C 
ATOM     21  C   UNL     1      -1.910   0.859  -0.354  0.00  0.00    +0.040 C 
ATOM     22  C   UNL     1      -2.446   2.782   1.164  0.00  0.00    +0.040 C 
BRANCH  17   8
ATOM      4  O   UNL     1      -3.540   3.205  -1.832  0.00  0.00    -0.247 OA
ATOM      8  N   UNL     1      -4.205   1.677  -0.136  0.00  0.00    -0.289 N 
ATOM      9  N   UNL     1      -5.756   2.408  -1.616  0.00  0.00    -0.306 N 
ATOM     25  C   UNL     1      -5.429   1.077   0.187  0.00  0.00    +0.070 A 
ATOM     26  C   UNL     1      -4.381   2.520  -1.265  0.00  0.00    +0.328 A 
ATOM     28  C   UNL     1      -6.378   1.530  -0.727  0.00  0.00    +0.067 A 
ATOM     29  C   UNL     1      -5.760   0.190   1.190  0.00  0.00    +0.028 A 
ATOM     31  C   UNL     1      -7.694   1.127  -0.687  0.00  0.00    +0.028 A 
ATOM     32  C   UNL     1      -7.092  -0.235   1.252  0.00  0.00    +0.002 A 
ATOM     33  C   UNL     1      -8.048   0.229   0.324  0.00  0.00    +0.002 A 
ATOM     40  H   UNL     1      -6.220   2.881  -2.381  0.00  0.00    +0.170 HD
ENDBRANCH  17   8
ENDBRANCH  15   6
ENDBRANCH  12  15
ENDBRANCH  10  12
BRANCH  11  18
ATOM     18  C   UNL     1       4.653   3.526  -0.341  0.00  0.00    +0.124 C 
BRANCH  18  24
ATOM      3  O   UNL     1       7.066   3.614  -0.679  0.00  0.00    -0.251 OA
ATOM     24  C   UNL     1       5.967   4.146  -0.730  0.00  0.00    +0.305 C 
BRANCH  24   2
ATOM      2  O   UNL     1       5.763   5.417  -1.162  0.00  0.00    -0.481 OA
ATOM     41  H   UNL     1       6.601   5.852  -1.425  0.00  0.00    +0.295 HD
ENDBRANCH  24   2
ENDBRANCH  18  24
ENDBRANCH  11  18
BRANCH  23  27
ATOM     27  C   UNL     1       2.262  -2.209   0.944  0.00  0.00    +0.131 C 
BRANCH  27  30
ATOM     30  C   UNL     1       1.598  -3.480   0.513  0.00  0.00    -0.038 A 
ATOM     34  C   UNL     1       0.525  -3.440  -0.377  0.00  0.00    +0.007 A 
ATOM     35  C   UNL     1       2.053  -4.705   1.003  0.00  0.00    +0.007 A 
ATOM     36  C   UNL     1      -0.093  -4.624  -0.778  0.00  0.00    +0.046 A 
ATOM     37  C   UNL     1       1.434  -5.889   0.602  0.00  0.00    +0.046 A 
ATOM     38  C   UNL     1       0.362  -5.849  -0.288  0.00  0.00    +0.120 A 
BRANCH  38   5
ATOM      5  O   UNL     1      -0.241  -7.004  -0.680  0.00  0.00    -0.495 OA
ATOM     39  C   UNL     1      -1.332  -6.890  -1.593  0.00  0.00    +0.277 C 
ENDBRANCH  38   5
ENDBRANCH  27  30
ENDBRANCH  23  27
TORSDOF 10
