REMARK  Name = 38031028
REMARK  12 active torsions:
REMARK  status: ('A' for Active; 'I' for Inactive)
REMARK    1  A    between atoms: N_3  and  C_13
REMARK    2  A    between atoms: N_3  and  C_19
REMARK    3  A    between atoms: C_6  and  C_10
REMARK    4  A    between atoms: C_7  and  C_13
REMARK    5  A    between atoms: C_9  and  C_14
REMARK    6  A    between atoms: C_10  and  C_15
REMARK    7  A    between atoms: C_10  and  C_16
REMARK    8  A    between atoms: C_11  and  C_17
REMARK    9  A    between atoms: C_14  and  C_18
REMARK   10  A    between atoms: C_19  and  C_20
REMARK   11  A    between atoms: C_19  and  C_21
REMARK   12  A    between atoms: C_22  and  C_23
REMARK                            x       y       z     vdW  Elec       q    Type
REMARK                         _______ _______ _______ _____ _____    ______ ____
ROOT
ATOM      6  C   UNL     1       1.850  -0.051  -1.162  0.00  0.00    +0.000 C 
ATOM      7  C   UNL     1       3.374   0.221  -1.122  0.00  0.00    +0.029 C 
ATOM      8  C   UNL     1       1.073   1.266  -1.307  0.00  0.00    +0.012 C 
ATOM      9  C   UNL     1       1.364   2.243  -0.152  0.00  0.00    +0.024 C 
ATOM     11  C   UNL     1       2.848   2.360   0.126  0.00  0.00    -0.073 C 
ATOM     12  C   UNL     1       3.733   1.454  -0.326  0.00  0.00    -0.023 C 
ATOM     17  C   UNL     1       3.299   3.568   0.900  0.00  0.00    +0.039 C 
ENDROOT
BRANCH   6  10
ATOM     10  C   UNL     1       1.472  -1.004  -2.301  0.00  0.00    -0.013 C 
ATOM     15  C   UNL     1       1.370  -0.242  -3.619  0.00  0.00    +0.007 C 
ATOM     16  C   UNL     1       0.162  -1.718  -1.986  0.00  0.00    +0.007 C 
ENDBRANCH   6  10
BRANCH   7  13
ATOM     13  C   UNL     1       4.138  -0.986  -0.565  0.00  0.00    +0.089 C 
BRANCH  13   3
ATOM      3  N   UNL     1       3.778  -1.225   0.822  0.00  0.00    -0.313 NA
ATOM     29  H   UNL     1       4.002  -0.400   1.378  0.00  0.00    +0.122 HD
BRANCH   3  19
ATOM     19  C   UNL     1       4.492  -2.378   1.358  0.00  0.00    +0.047 C 
ATOM     20  C   UNL     1       3.824  -3.672   0.902  0.00  0.00    +0.023 C 
ATOM     21  C   UNL     1       4.532  -2.288   2.880  0.00  0.00    +0.023 C 
ENDBRANCH   3  19
ENDBRANCH  13   3
ENDBRANCH   7  13
BRANCH   9  14
ATOM     14  C   UNL     1       0.597   1.845   1.114  0.00  0.00    +0.105 C 
BRANCH  14  18
ATOM      2  O   UNL     1      -1.413   0.514   0.738  0.00  0.00    -0.420 OA
ATOM      4  N   UNL     1      -1.762   2.724   0.727  0.00  0.00    -0.112 NA
ATOM      5  N   UNL     1      -2.975   2.099   0.504  0.00  0.00    -0.107 NA
ATOM     18  C   UNL     1      -0.880   1.761   0.858  0.00  0.00    +0.218 A 
ATOM     22  C   UNL     1      -2.723   0.811   0.519  0.00  0.00    +0.251 A 
BRANCH  22  23
ATOM      1  F   UNL     1      -5.469   1.129   0.054  0.00  0.00    -0.205 F 
ATOM     23  C   UNL     1      -3.599  -0.311   0.343  0.00  0.00    +0.074 A 
ATOM     24  C   UNL     1      -4.960  -0.110   0.114  0.00  0.00    +0.136 A 
ATOM     25  C   UNL     1      -3.086  -1.607   0.403  0.00  0.00    +0.016 A 
ATOM     26  C   UNL     1      -5.808  -1.205  -0.056  0.00  0.00    +0.039 A 
ATOM     27  C   UNL     1      -3.934  -2.701   0.233  0.00  0.00    +0.001 A 
ATOM     28  C   UNL     1      -5.295  -2.500   0.003  0.00  0.00    +0.003 A 
ENDBRANCH  22  23
ENDBRANCH  14  18
ENDBRANCH   9  14
TORSDOF 7
