MODEL 1
REMARK VINA RESULT:      -7.2      0.000      0.000
REMARK  Name = 26742374
REMARK  10 active torsions:
REMARK  status: ('A' for Active; 'I' for Inactive)
REMARK    1  A    between atoms: S_1  and  C_23
REMARK    2  A    between atoms: S_1  and  C_29
REMARK    3  A    between atoms: O_3  and  C_31
REMARK    4  A    between atoms: N_6  and  C_16
REMARK    5  A    between atoms: C_10  and  C_17
REMARK    6  A    between atoms: C_11  and  C_16
REMARK    7  A    between atoms: C_19  and  C_22
REMARK    8  A    between atoms: C_20  and  C_23
REMARK    9  A    between atoms: C_21  and  C_24
REMARK   10  A    between atoms: C_29  and  C_31
REMARK                            x       y       z     vdW  Elec       q    Type
REMARK                         _______ _______ _______ _____ _____    ______ ____
ROOT
ATOM      5  N   UNL     1      13.605  12.781  22.680  0.00  0.00    -0.297 NA
ATOM      9  C   UNL     1      11.504  11.375  22.056  0.00  0.00    +0.002 C 
ATOM     10  C   UNL     1      12.571  10.481  22.748  0.00  0.00    +0.055 C 
ATOM     11  C   UNL     1      13.238  13.018  21.258  0.00  0.00    +0.074 C 
ATOM     12  C   UNL     1      12.127  12.043  20.813  0.00  0.00    +0.024 C 
ATOM     13  C   UNL     1      11.155  12.502  23.050  0.00  0.00    +0.019 C 
ATOM     14  C   UNL     1      13.861  11.337  22.904  0.00  0.00    +0.094 C 
ATOM     15  C   UNL     1      12.452  13.184  23.520  0.00  0.00    +0.085 C 
ENDROOT
BRANCH  10  17
ATOM      7  N   UNL     1      11.819   8.251  22.084  0.00  0.00    -0.237 NA
ATOM      8  N   UNL     1      13.310   6.634  21.097  0.00  0.00    -0.232 NA
ATOM     17  C   UNL     1      12.857   9.110  22.152  0.00  0.00    +0.050 A 
ATOM     18  C   UNL     1      14.133   8.808  21.721  0.00  0.00    +0.052 A 
ATOM     19  C   UNL     1      14.302   7.543  21.197  0.00  0.00    +0.075 A 
ATOM     21  C   UNL     1      12.112   7.048  21.552  0.00  0.00    +0.127 A 
ATOM     24  C   UNL     1      10.991   6.070  21.461  0.00  0.00    +0.088 C 
BRANCH  19  22
ATOM     22  C   UNL     1      15.588   7.103  20.711  0.00  0.00    +0.000 A 
ATOM     25  C   UNL     1      16.740   7.362  21.454  0.00  0.00    +0.010 A 
ATOM     26  C   UNL     1      15.677   6.419  19.499  0.00  0.00    +0.010 A 
ATOM     27  C   UNL     1      17.982   6.936  20.984  0.00  0.00    +0.001 A 
ATOM     28  C   UNL     1      16.920   5.993  19.029  0.00  0.00    +0.001 A 
ATOM     30  C   UNL     1      18.073   6.252  19.771  0.00  0.00    +0.000 A 
ENDBRANCH  19  22
ENDBRANCH  10  17
BRANCH  11  16
ATOM     16  C   UNL     1      14.451  12.968  20.326  0.00  0.00    +0.123 C 
BRANCH  16   6
ATOM      2  O   UNL     1      15.412  10.521  19.117  0.00  0.00    -0.275 OA
ATOM      6  N   UNL     1      14.092  12.434  19.050  0.00  0.00    -0.313 N 
ATOM     20  C   UNL     1      14.603  11.243  18.538  0.00  0.00    +0.223 C 
ATOM     32  H   UNL     1      13.432  12.966  18.488  0.00  0.00    +0.149 HD
BRANCH  20  23
ATOM     23  C   UNL     1      14.082  10.905  17.162  0.00  0.00    +0.165 C 
BRANCH  23   1
ATOM      1  S   UNL     1      13.761   9.127  17.075  0.00  0.00    -0.140 S 
BRANCH   1  29
ATOM     29  C   UNL     1      12.154   9.182  16.248  0.00  0.00    +0.189 C 
BRANCH  29  31
ATOM      4  O   UNL     1      11.256   8.251  18.281  0.00  0.00    -0.250 OA
ATOM     31  C   UNL     1      11.139   8.452  17.079  0.00  0.00    +0.315 C 
BRANCH  31   3
ATOM      3  O   UNL     1      10.062   8.049  16.358  0.00  0.00    -0.480 OA
ATOM     33  H   UNL     1      10.310   7.415  15.653  0.00  0.00    +0.295 HD
ENDBRANCH  31   3
ENDBRANCH  29  31
ENDBRANCH   1  29
ENDBRANCH  23   1
ENDBRANCH  20  23
ENDBRANCH  16   6
ENDBRANCH  11  16
TORSDOF 9
ENDMDL
MODEL 2
REMARK VINA RESULT:      -6.7      1.771      3.765
REMARK  Name = 26742374
REMARK  10 active torsions:
REMARK  status: ('A' for Active; 'I' for Inactive)
REMARK    1  A    between atoms: S_1  and  C_23
REMARK    2  A    between atoms: S_1  and  C_29
REMARK    3  A    between atoms: O_3  and  C_31
REMARK    4  A    between atoms: N_6  and  C_16
REMARK    5  A    between atoms: C_10  and  C_17
REMARK    6  A    between atoms: C_11  and  C_16
REMARK    7  A    between atoms: C_19  and  C_22
REMARK    8  A    between atoms: C_20  and  C_23
REMARK    9  A    between atoms: C_21  and  C_24
REMARK   10  A    between atoms: C_29  and  C_31
REMARK                            x       y       z     vdW  Elec       q    Type
REMARK                         _______ _______ _______ _____ _____    ______ ____
ROOT
ATOM      5  N   UNL     1      10.991  12.537  22.578  0.00  0.00    -0.297 NA
ATOM      9  C   UNL     1      13.590  12.698  22.580  0.00  0.00    +0.002 C 
ATOM     10  C   UNL     1      13.052  12.599  21.125  0.00  0.00    +0.055 C 
ATOM     11  C   UNL     1      11.561  11.542  23.526  0.00  0.00    +0.074 C 
ATOM     12  C   UNL     1      13.097  11.480  23.390  0.00  0.00    +0.024 C 
ATOM     13  C   UNL     1      12.945  13.951  23.209  0.00  0.00    +0.019 C 
ATOM     14  C   UNL     1      11.527  12.304  21.215  0.00  0.00    +0.094 C 
ATOM     15  C   UNL     1      11.419  13.884  23.021  0.00  0.00    +0.085 C 
ENDROOT
BRANCH  10  17
ATOM      7  N   UNL     1      13.585  11.904  18.842  0.00  0.00    -0.237 NA
ATOM      8  N   UNL     1      15.015  10.021  18.373  0.00  0.00    -0.232 NA
ATOM     17  C   UNL     1      13.765  11.665  20.158  0.00  0.00    +0.050 A 
ATOM     18  C   UNL     1      14.544  10.638  20.651  0.00  0.00    +0.052 A 
ATOM     19  C   UNL     1      15.150   9.840  19.703  0.00  0.00    +0.075 A 
ATOM     21  C   UNL     1      14.230  11.056  18.018  0.00  0.00    +0.127 A 
ATOM     24  C   UNL     1      14.054  11.286  16.555  0.00  0.00    +0.088 C 
BRANCH  19  22
ATOM     22  C   UNL     1      15.990   8.731  20.089  0.00  0.00    +0.000 A 
ATOM     25  C   UNL     1      17.045   8.932  20.980  0.00  0.00    +0.010 A 
ATOM     26  C   UNL     1      15.746   7.459  19.572  0.00  0.00    +0.010 A 
ATOM     27  C   UNL     1      17.855   7.860  21.353  0.00  0.00    +0.001 A 
ATOM     28  C   UNL     1      16.557   6.388  19.945  0.00  0.00    +0.001 A 
ATOM     30  C   UNL     1      17.612   6.588  20.835  0.00  0.00    +0.000 A 
ENDBRANCH  19  22
ENDBRANCH  10  17
BRANCH  11  16
ATOM     16  C   UNL     1      10.917  10.162  23.380  0.00  0.00    +0.123 C 
BRANCH  16   6
ATOM      2  O   UNL     1      10.250   7.646  22.116  0.00  0.00    -0.275 OA
ATOM      6  N   UNL     1      11.816   9.243  22.754  0.00  0.00    -0.313 N 
ATOM     20  C   UNL     1      11.411   8.046  22.165  0.00  0.00    +0.223 C 
ATOM     32  H   UNL     1      12.804   9.482  22.752  0.00  0.00    +0.149 HD
BRANCH  20  23
ATOM     23  C   UNL     1      12.553   7.243  21.589  0.00  0.00    +0.165 C 
BRANCH  23   1
ATOM      1  S   UNL     1      12.051   6.578  19.984  0.00  0.00    -0.140 S 
BRANCH   1  29
ATOM     29  C   UNL     1      12.014   8.125  19.048  0.00  0.00    +0.189 C 
BRANCH  29  31
ATOM      4  O   UNL     1      13.184   7.631  17.001  0.00  0.00    -0.250 OA
ATOM     31  C   UNL     1      12.124   7.825  17.582  0.00  0.00    +0.315 C 
BRANCH  31   3
ATOM      3  O   UNL     1      10.917   7.775  16.964  0.00  0.00    -0.480 OA
ATOM     33  H   UNL     1      10.900   8.316  16.147  0.00  0.00    +0.295 HD
ENDBRANCH  31   3
ENDBRANCH  29  31
ENDBRANCH   1  29
ENDBRANCH  23   1
ENDBRANCH  20  23
ENDBRANCH  16   6
ENDBRANCH  11  16
TORSDOF 9
ENDMDL
MODEL 3
REMARK VINA RESULT:      -6.6      1.572      2.021
REMARK  Name = 26742374
REMARK  10 active torsions:
REMARK  status: ('A' for Active; 'I' for Inactive)
REMARK    1  A    between atoms: S_1  and  C_23
REMARK    2  A    between atoms: S_1  and  C_29
REMARK    3  A    between atoms: O_3  and  C_31
REMARK    4  A    between atoms: N_6  and  C_16
REMARK    5  A    between atoms: C_10  and  C_17
REMARK    6  A    between atoms: C_11  and  C_16
REMARK    7  A    between atoms: C_19  and  C_22
REMARK    8  A    between atoms: C_20  and  C_23
REMARK    9  A    between atoms: C_21  and  C_24
REMARK   10  A    between atoms: C_29  and  C_31
REMARK                            x       y       z     vdW  Elec       q    Type
REMARK                         _______ _______ _______ _____ _____    ______ ____
ROOT
ATOM      5  N   UNL     1      13.110  12.182  23.518  0.00  0.00    -0.297 NA
ATOM      9  C   UNL     1      11.312  10.614  22.473  0.00  0.00    +0.002 C 
ATOM     10  C   UNL     1      12.678   9.880  22.581  0.00  0.00    +0.055 C 
ATOM     11  C   UNL     1      12.411  12.880  22.407  0.00  0.00    +0.074 C 
ATOM     12  C   UNL     1      11.490  11.903  21.644  0.00  0.00    +0.024 C 
ATOM     13  C   UNL     1      10.925  11.044  23.903  0.00  0.00    +0.019 C 
ATOM     14  C   UNL     1      13.736  10.933  23.019  0.00  0.00    +0.094 C 
ATOM     15  C   UNL     1      12.095  11.817  24.535  0.00  0.00    +0.085 C 
ENDROOT
BRANCH  10  17
ATOM      7  N   UNL     1      12.278   8.920  20.367  0.00  0.00    -0.237 NA
ATOM      8  N   UNL     1      13.927   7.576  19.234  0.00  0.00    -0.232 NA
ATOM     17  C   UNL     1      13.146   9.053  21.392  0.00  0.00    +0.050 A 
ATOM     18  C   UNL     1      14.403   8.484  21.411  0.00  0.00    +0.052 A 
ATOM     19  C   UNL     1      14.743   7.749  20.294  0.00  0.00    +0.075 A 
ATOM     21  C   UNL     1      12.728   8.180  19.335  0.00  0.00    +0.127 A 
ATOM     24  C   UNL     1      11.797   8.009  18.183  0.00  0.00    +0.088 C 
BRANCH  19  22
ATOM     22  C   UNL     1      16.030   7.103  20.189  0.00  0.00    +0.000 A 
ATOM     25  C   UNL     1      16.311   6.281  19.098  0.00  0.00    +0.010 A 
ATOM     26  C   UNL     1      16.991   7.303  21.180  0.00  0.00    +0.010 A 
ATOM     27  C   UNL     1      17.555   5.658  18.998  0.00  0.00    +0.001 A 
ATOM     28  C   UNL     1      18.235   6.679  21.079  0.00  0.00    +0.001 A 
ATOM     30  C   UNL     1      18.517   5.856  19.988  0.00  0.00    +0.000 A 
ENDBRANCH  19  22
ENDBRANCH  10  17
BRANCH  11  16
ATOM     16  C   UNL     1      13.381  13.602  21.469  0.00  0.00    +0.123 C 
BRANCH  16   6
ATOM      2  O   UNL     1      15.022  11.725  20.001  0.00  0.00    -0.275 OA
ATOM      6  N   UNL     1      13.203  13.169  20.118  0.00  0.00    -0.313 N 
ATOM     20  C   UNL     1      14.043  12.257  19.482  0.00  0.00    +0.223 C 
ATOM     32  H   UNL     1      12.422  13.561  19.600  0.00  0.00    +0.149 HD
BRANCH  20  23
ATOM     23  C   UNL     1      13.653  11.977  18.050  0.00  0.00    +0.165 C 
BRANCH  23   1
ATOM      1  S   UNL     1      14.863  10.847  17.322  0.00  0.00    -0.140 S 
BRANCH   1  29
ATOM     29  C   UNL     1      14.265  10.872  15.616  0.00  0.00    +0.189 C 
BRANCH  29  31
ATOM      4  O   UNL     1      13.702   8.560  15.243  0.00  0.00    -0.250 OA
ATOM     31  C   UNL     1      13.333   9.717  15.396  0.00  0.00    +0.315 C 
BRANCH  31   3
ATOM      3  O   UNL     1      12.027  10.088  15.400  0.00  0.00    -0.480 OA
ATOM     33  H   UNL     1      11.789  10.599  14.598  0.00  0.00    +0.295 HD
ENDBRANCH  31   3
ENDBRANCH  29  31
ENDBRANCH   1  29
ENDBRANCH  23   1
ENDBRANCH  20  23
ENDBRANCH  16   6
ENDBRANCH  11  16
TORSDOF 9
ENDMDL
MODEL 4
REMARK VINA RESULT:      -6.4     27.767     29.024
REMARK  Name = 26742374
REMARK  10 active torsions:
REMARK  status: ('A' for Active; 'I' for Inactive)
REMARK    1  A    between atoms: S_1  and  C_23
REMARK    2  A    between atoms: S_1  and  C_29
REMARK    3  A    between atoms: O_3  and  C_31
REMARK    4  A    between atoms: N_6  and  C_16
REMARK    5  A    between atoms: C_10  and  C_17
REMARK    6  A    between atoms: C_11  and  C_16
REMARK    7  A    between atoms: C_19  and  C_22
REMARK    8  A    between atoms: C_20  and  C_23
REMARK    9  A    between atoms: C_21  and  C_24
REMARK   10  A    between atoms: C_29  and  C_31
REMARK                            x       y       z     vdW  Elec       q    Type
REMARK                         _______ _______ _______ _____ _____    ______ ____
ROOT
ATOM      5  N   UNL     1      -6.325 -10.492  17.791  0.00  0.00    -0.297 NA
ATOM      9  C   UNL     1      -4.534 -12.361  17.513  0.00  0.00    +0.002 C 
ATOM     10  C   UNL     1      -4.149 -11.110  16.675  0.00  0.00    +0.055 C 
ATOM     11  C   UNL     1      -6.984 -11.782  17.456  0.00  0.00    +0.074 C 
ATOM     12  C   UNL     1      -5.933 -12.850  17.086  0.00  0.00    +0.024 C 
ATOM     13  C   UNL     1      -4.644 -11.897  18.980  0.00  0.00    +0.019 C 
ATOM     14  C   UNL     1      -5.354 -10.127  16.730  0.00  0.00    +0.094 C 
ATOM     15  C   UNL     1      -5.580 -10.678  19.059  0.00  0.00    +0.085 C 
ENDROOT
BRANCH  10  17
ATOM      7  N   UNL     1      -2.721 -12.292  15.080  0.00  0.00    -0.237 NA
ATOM      8  N   UNL     1      -2.694 -11.748  12.732  0.00  0.00    -0.232 NA
ATOM     17  C   UNL     1      -3.643 -11.323  15.256  0.00  0.00    +0.050 A 
ATOM     18  C   UNL     1      -4.131 -10.535  14.233  0.00  0.00    +0.052 A 
ATOM     19  C   UNL     1      -3.615 -10.795  12.980  0.00  0.00    +0.075 A 
ATOM     21  C   UNL     1      -2.297 -12.449  13.811  0.00  0.00    +0.127 A 
ATOM     24  C   UNL     1      -1.277 -13.511  13.576  0.00  0.00    +0.088 C 
BRANCH  19  22
ATOM     22  C   UNL     1      -4.044 -10.040  11.827  0.00  0.00    +0.000 A 
ATOM     25  C   UNL     1      -3.188  -9.889  10.735  0.00  0.00    +0.010 A 
ATOM     26  C   UNL     1      -5.314  -9.464  11.804  0.00  0.00    +0.010 A 
ATOM     27  C   UNL     1      -3.603  -9.161   9.620  0.00  0.00    +0.001 A 
ATOM     28  C   UNL     1      -5.728  -8.736  10.689  0.00  0.00    +0.001 A 
ATOM     30  C   UNL     1      -4.873  -8.584   9.597  0.00  0.00    +0.000 A 
ENDBRANCH  19  22
ENDBRANCH  10  17
BRANCH  11  16
ATOM     16  C   UNL     1      -8.050 -11.627  16.369  0.00  0.00    +0.123 C 
BRANCH  16   6
ATOM      2  O   UNL     1     -10.781 -11.812  17.308  0.00  0.00    -0.275 OA
ATOM      6  N   UNL     1      -8.936 -10.547  16.672  0.00  0.00    -0.313 N 
ATOM     20  C   UNL     1     -10.243 -10.722  17.122  0.00  0.00    +0.223 C 
ATOM     32  H   UNL     1      -8.585  -9.602  16.541  0.00  0.00    +0.149 HD
BRANCH  20  23
ATOM     23  C   UNL     1     -10.979  -9.424  17.354  0.00  0.00    +0.165 C 
BRANCH  23   1
ATOM      1  S   UNL     1      -9.856  -8.046  17.021  0.00  0.00    -0.140 S 
BRANCH   1  29
ATOM     29  C   UNL     1     -10.526  -7.530  15.423  0.00  0.00    +0.189 C 
BRANCH  29  31
ATOM      4  O   UNL     1     -11.619  -5.539  14.619  0.00  0.00    -0.250 OA
ATOM     31  C   UNL     1     -11.132  -6.163  15.553  0.00  0.00    +0.315 C 
BRANCH  31   3
ATOM      3  O   UNL     1     -11.099  -5.693  16.826  0.00  0.00    -0.480 OA
ATOM     33  H   UNL     1     -10.326  -6.035  17.322  0.00  0.00    +0.295 HD
ENDBRANCH  31   3
ENDBRANCH  29  31
ENDBRANCH   1  29
ENDBRANCH  23   1
ENDBRANCH  20  23
ENDBRANCH  16   6
ENDBRANCH  11  16
TORSDOF 9
ENDMDL
MODEL 5
REMARK VINA RESULT:      -6.4     27.939     29.318
REMARK  Name = 26742374
REMARK  10 active torsions:
REMARK  status: ('A' for Active; 'I' for Inactive)
REMARK    1  A    between atoms: S_1  and  C_23
REMARK    2  A    between atoms: S_1  and  C_29
REMARK    3  A    between atoms: O_3  and  C_31
REMARK    4  A    between atoms: N_6  and  C_16
REMARK    5  A    between atoms: C_10  and  C_17
REMARK    6  A    between atoms: C_11  and  C_16
REMARK    7  A    between atoms: C_19  and  C_22
REMARK    8  A    between atoms: C_20  and  C_23
REMARK    9  A    between atoms: C_21  and  C_24
REMARK   10  A    between atoms: C_29  and  C_31
REMARK                            x       y       z     vdW  Elec       q    Type
REMARK                         _______ _______ _______ _____ _____    ______ ____
ROOT
ATOM      5  N   UNL     1      -6.331 -10.516  17.847  0.00  0.00    -0.297 NA
ATOM      9  C   UNL     1      -4.512 -12.357  17.560  0.00  0.00    +0.002 C 
ATOM     10  C   UNL     1      -4.166 -11.111  16.697  0.00  0.00    +0.055 C 
ATOM     11  C   UNL     1      -6.974 -11.823  17.543  0.00  0.00    +0.074 C 
ATOM     12  C   UNL     1      -5.911 -12.877  17.167  0.00  0.00    +0.024 C 
ATOM     13  C   UNL     1      -4.602 -11.874  19.023  0.00  0.00    +0.019 C 
ATOM     14  C   UNL     1      -5.388 -10.150  16.762  0.00  0.00    +0.094 C 
ATOM     15  C   UNL     1      -5.558 -10.671  19.102  0.00  0.00    +0.085 C 
ENDROOT
BRANCH  10  17
ATOM      7  N   UNL     1      -2.786 -12.325  15.084  0.00  0.00    -0.237 NA
ATOM      8  N   UNL     1      -2.779 -11.783  12.735  0.00  0.00    -0.232 NA
ATOM     17  C   UNL     1      -3.684 -11.336  15.272  0.00  0.00    +0.050 A 
ATOM     18  C   UNL     1      -4.170 -10.538  14.255  0.00  0.00    +0.052 A 
ATOM     19  C   UNL     1      -3.676 -10.810  12.996  0.00  0.00    +0.075 A 
ATOM     21  C   UNL     1      -2.382 -12.491  13.810  0.00  0.00    +0.127 A 
ATOM     24  C   UNL     1      -1.388 -13.575  13.562  0.00  0.00    +0.088 C 
BRANCH  19  22
ATOM     22  C   UNL     1      -4.104 -10.047  11.847  0.00  0.00    +0.000 A 
ATOM     25  C   UNL     1      -5.372  -9.465  11.829  0.00  0.00    +0.010 A 
ATOM     26  C   UNL     1      -3.249  -9.892  10.756  0.00  0.00    +0.010 A 
ATOM     27  C   UNL     1      -5.784  -8.727  10.720  0.00  0.00    +0.001 A 
ATOM     28  C   UNL     1      -3.662  -9.154   9.647  0.00  0.00    +0.001 A 
ATOM     30  C   UNL     1      -4.929  -8.572   9.628  0.00  0.00    +0.000 A 
ENDBRANCH  19  22
ENDBRANCH  10  17
BRANCH  11  16
ATOM     16  C   UNL     1      -8.063 -11.703  16.475  0.00  0.00    +0.123 C 
BRANCH  16   6
ATOM      2  O   UNL     1      -8.984  -9.155  15.458  0.00  0.00    -0.275 OA
ATOM      6  N   UNL     1      -9.164 -10.927  16.954  0.00  0.00    -0.313 N 
ATOM     20  C   UNL     1      -9.544  -9.703  16.405  0.00  0.00    +0.223 C 
ATOM     32  H   UNL     1      -9.687 -11.294  17.744  0.00  0.00    +0.149 HD
BRANCH  20  23
ATOM     23  C   UNL     1     -10.727  -9.073  17.100  0.00  0.00    +0.165 C 
BRANCH  23   1
ATOM      1  S   UNL     1     -11.768 -10.383  17.788  0.00  0.00    -0.140 S 
BRANCH   1  29
ATOM     29  C   UNL     1     -11.569  -9.993  19.543  0.00  0.00    +0.189 C 
BRANCH  29  31
ATOM      4  O   UNL     1      -9.348 -10.789  20.030  0.00  0.00    -0.250 OA
ATOM     31  C   UNL     1     -10.559 -10.923  20.149  0.00  0.00    +0.315 C 
BRANCH  31   3
ATOM      3  O   UNL     1     -11.131 -11.927  20.862  0.00  0.00    -0.480 OA
ATOM     33  H   UNL     1     -10.561 -12.723  20.894  0.00  0.00    +0.295 HD
ENDBRANCH  31   3
ENDBRANCH  29  31
ENDBRANCH   1  29
ENDBRANCH  23   1
ENDBRANCH  20  23
ENDBRANCH  16   6
ENDBRANCH  11  16
TORSDOF 9
ENDMDL
MODEL 6
REMARK VINA RESULT:      -6.3     13.917     17.481
REMARK  Name = 26742374
REMARK  10 active torsions:
REMARK  status: ('A' for Active; 'I' for Inactive)
REMARK    1  A    between atoms: S_1  and  C_23
REMARK    2  A    between atoms: S_1  and  C_29
REMARK    3  A    between atoms: O_3  and  C_31
REMARK    4  A    between atoms: N_6  and  C_16
REMARK    5  A    between atoms: C_10  and  C_17
REMARK    6  A    between atoms: C_11  and  C_16
REMARK    7  A    between atoms: C_19  and  C_22
REMARK    8  A    between atoms: C_20  and  C_23
REMARK    9  A    between atoms: C_21  and  C_24
REMARK   10  A    between atoms: C_29  and  C_31
REMARK                            x       y       z     vdW  Elec       q    Type
REMARK                         _______ _______ _______ _____ _____    ______ ____
ROOT
ATOM      5  N   UNL     1      10.604   5.530   7.787  0.00  0.00    -0.297 NA
ATOM      9  C   UNL     1       9.382   7.550   6.690  0.00  0.00    +0.002 C 
ATOM     10  C   UNL     1       9.261   6.288   5.791  0.00  0.00    +0.055 C 
ATOM     11  C   UNL     1      11.501   6.716   7.766  0.00  0.00    +0.074 C 
ATOM     12  C   UNL     1      10.873   7.858   6.939  0.00  0.00    +0.024 C 
ATOM     13  C   UNL     1       8.760   7.186   8.054  0.00  0.00    +0.019 C 
ATOM     14  C   UNL     1      10.177   5.192   6.407  0.00  0.00    +0.094 C 
ATOM     15  C   UNL     1       9.398   5.885   8.572  0.00  0.00    +0.085 C 
ENDROOT
BRANCH  10  17
ATOM      7  N   UNL     1       8.860   7.488   3.698  0.00  0.00    -0.237 NA
ATOM      8  N   UNL     1       9.832   6.784   1.608  0.00  0.00    -0.232 NA
ATOM     17  C   UNL     1       9.480   6.448   4.294  0.00  0.00    +0.050 A 
ATOM     18  C   UNL     1      10.280   5.546   3.622  0.00  0.00    +0.052 A 
ATOM     19  C   UNL     1      10.420   5.766   2.267  0.00  0.00    +0.075 A 
ATOM     21  C   UNL     1       9.076   7.595   2.373  0.00  0.00    +0.127 A 
ATOM     24  C   UNL     1       8.406   8.732   1.678  0.00  0.00    +0.088 C 
BRANCH  19  22
ATOM     22  C   UNL     1      11.230   4.893   1.451  0.00  0.00    +0.000 A 
ATOM     25  C   UNL     1      12.157   4.039   2.049  0.00  0.00    +0.010 A 
ATOM     26  C   UNL     1      11.085   4.904   0.064  0.00  0.00    +0.010 A 
ATOM     27  C   UNL     1      12.938   3.195   1.260  0.00  0.00    +0.001 A 
ATOM     28  C   UNL     1      11.868   4.061  -0.725  0.00  0.00    +0.001 A 
ATOM     30  C   UNL     1      12.794   3.206  -0.127  0.00  0.00    +0.000 A 
ENDBRANCH  19  22
ENDBRANCH  10  17
BRANCH  11  16
ATOM     16  C   UNL     1      12.912   6.372   7.288  0.00  0.00    +0.123 C 
BRANCH  16   6
ATOM      2  O   UNL     1      15.430   7.602   6.563  0.00  0.00    -0.275 OA
ATOM      6  N   UNL     1      13.221   7.060   6.073  0.00  0.00    -0.313 N 
ATOM     20  C   UNL     1      14.466   7.627   5.801  0.00  0.00    +0.223 C 
ATOM     32  H   UNL     1      12.483   7.143   5.380  0.00  0.00    +0.149 HD
BRANCH  20  23
ATOM     23  C   UNL     1      14.533   8.314   4.458  0.00  0.00    +0.165 C 
BRANCH  23   1
ATOM      1  S   UNL     1      13.900   7.188   3.191  0.00  0.00    -0.140 S 
BRANCH   1  29
ATOM     29  C   UNL     1      15.370   7.106   2.142  0.00  0.00    +0.189 C 
BRANCH  29  31
ATOM      4  O   UNL     1      14.265   6.551   0.075  0.00  0.00    -0.250 OA
ATOM     31  C   UNL     1      15.079   6.256   0.940  0.00  0.00    +0.315 C 
BRANCH  31   3
ATOM      3  O   UNL     1      15.829   5.125   0.902  0.00  0.00    -0.480 OA
ATOM     33  H   UNL     1      16.360   5.011   1.718  0.00  0.00    +0.295 HD
ENDBRANCH  31   3
ENDBRANCH  29  31
ENDBRANCH   1  29
ENDBRANCH  23   1
ENDBRANCH  20  23
ENDBRANCH  16   6
ENDBRANCH  11  16
TORSDOF 9
ENDMDL
MODEL 7
REMARK VINA RESULT:      -6.2     16.621     20.906
REMARK  Name = 26742374
REMARK  10 active torsions:
REMARK  status: ('A' for Active; 'I' for Inactive)
REMARK    1  A    between atoms: S_1  and  C_23
REMARK    2  A    between atoms: S_1  and  C_29
REMARK    3  A    between atoms: O_3  and  C_31
REMARK    4  A    between atoms: N_6  and  C_16
REMARK    5  A    between atoms: C_10  and  C_17
REMARK    6  A    between atoms: C_11  and  C_16
REMARK    7  A    between atoms: C_19  and  C_22
REMARK    8  A    between atoms: C_20  and  C_23
REMARK    9  A    between atoms: C_21  and  C_24
REMARK   10  A    between atoms: C_29  and  C_31
REMARK                            x       y       z     vdW  Elec       q    Type
REMARK                         _______ _______ _______ _____ _____    ______ ____
ROOT
ATOM      5  N   UNL     1      13.107   5.838   1.712  0.00  0.00    -0.297 NA
ATOM      9  C   UNL     1      12.544   3.484   0.752  0.00  0.00    +0.002 C 
ATOM     10  C   UNL     1      12.428   4.566  -0.358  0.00  0.00    +0.055 C 
ATOM     11  C   UNL     1      12.112   5.159   2.583  0.00  0.00    +0.074 C 
ATOM     12  C   UNL     1      11.612   3.855   1.925  0.00  0.00    +0.024 C 
ATOM     13  C   UNL     1      13.991   3.546   1.285  0.00  0.00    +0.019 C 
ATOM     14  C   UNL     1      12.578   5.953   0.331  0.00  0.00    +0.094 C 
ATOM     15  C   UNL     1      14.327   4.997   1.673  0.00  0.00    +0.085 C 
ENDROOT
BRANCH  10  17
ATOM      7  N   UNL     1      11.065   3.378  -2.004  0.00  0.00    -0.237 NA
ATOM      8  N   UNL     1       9.095   4.359  -2.988  0.00  0.00    -0.232 NA
ATOM     17  C   UNL     1      11.228   4.512  -1.292  0.00  0.00    +0.050 A 
ATOM     18  C   UNL     1      10.379   5.597  -1.373  0.00  0.00    +0.052 A 
ATOM     19  C   UNL     1       9.320   5.462  -2.247  0.00  0.00    +0.075 A 
ATOM     21  C   UNL     1       9.993   3.369  -2.821  0.00  0.00    +0.127 A 
ATOM     24  C   UNL     1       9.780   2.133  -3.626  0.00  0.00    +0.088 C 
BRANCH  19  22
ATOM     22  C   UNL     1       8.360   6.526  -2.423  0.00  0.00    +0.000 A 
ATOM     25  C   UNL     1       8.578   7.769  -1.828  0.00  0.00    +0.010 A 
ATOM     26  C   UNL     1       7.216   6.311  -3.191  0.00  0.00    +0.010 A 
ATOM     27  C   UNL     1       7.651   8.796  -2.000  0.00  0.00    +0.001 A 
ATOM     28  C   UNL     1       6.288   7.339  -3.362  0.00  0.00    +0.001 A 
ATOM     30  C   UNL     1       6.505   8.581  -2.767  0.00  0.00    +0.000 A 
ENDBRANCH  19  22
ENDBRANCH  10  17
BRANCH  11  16
ATOM     16  C   UNL     1      10.956   6.080   2.976  0.00  0.00    +0.123 C 
BRANCH  16   6
ATOM      2  O   UNL     1      10.166   4.500   5.269  0.00  0.00    -0.275 OA
ATOM      6  N   UNL     1      11.044   6.450   4.355  0.00  0.00    -0.313 N 
ATOM     20  C   UNL     1      10.639   5.626   5.404  0.00  0.00    +0.223 C 
ATOM     32  H   UNL     1      11.416   7.371   4.570  0.00  0.00    +0.149 HD
BRANCH  20  23
ATOM     23  C   UNL     1      10.818   6.255   6.765  0.00  0.00    +0.165 C 
BRANCH  23   1
ATOM      1  S   UNL     1       9.282   6.071   7.702  0.00  0.00    -0.140 S 
BRANCH   1  29
ATOM     29  C   UNL     1       9.654   4.505   8.527  0.00  0.00    +0.189 C 
BRANCH  29  31
ATOM      4  O   UNL     1      10.381   4.452  10.824  0.00  0.00    -0.250 OA
ATOM     31  C   UNL     1       9.493   4.672  10.011  0.00  0.00    +0.315 C 
BRANCH  31   3
ATOM      3  O   UNL     1       8.256   5.109  10.359  0.00  0.00    -0.480 OA
ATOM     33  H   UNL     1       7.550   4.526  10.010  0.00  0.00    +0.295 HD
ENDBRANCH  31   3
ENDBRANCH  29  31
ENDBRANCH   1  29
ENDBRANCH  23   1
ENDBRANCH  20  23
ENDBRANCH  16   6
ENDBRANCH  11  16
TORSDOF 9
ENDMDL
MODEL 8
REMARK VINA RESULT:      -6.1     13.317     16.860
REMARK  Name = 26742374
REMARK  10 active torsions:
REMARK  status: ('A' for Active; 'I' for Inactive)
REMARK    1  A    between atoms: S_1  and  C_23
REMARK    2  A    between atoms: S_1  and  C_29
REMARK    3  A    between atoms: O_3  and  C_31
REMARK    4  A    between atoms: N_6  and  C_16
REMARK    5  A    between atoms: C_10  and  C_17
REMARK    6  A    between atoms: C_11  and  C_16
REMARK    7  A    between atoms: C_19  and  C_22
REMARK    8  A    between atoms: C_20  and  C_23
REMARK    9  A    between atoms: C_21  and  C_24
REMARK   10  A    between atoms: C_29  and  C_31
REMARK                            x       y       z     vdW  Elec       q    Type
REMARK                         _______ _______ _______ _____ _____    ______ ____
ROOT
ATOM      5  N   UNL     1      13.916   9.936   5.935  0.00  0.00    -0.297 NA
ATOM      9  C   UNL     1      14.079   7.350   5.679  0.00  0.00    +0.002 C 
ATOM     10  C   UNL     1      13.675   8.006   4.329  0.00  0.00    +0.055 C 
ATOM     11  C   UNL     1      13.145   9.269   7.017  0.00  0.00    +0.074 C 
ATOM     12  C   UNL     1      13.057   7.748   6.765  0.00  0.00    +0.024 C 
ATOM     13  C   UNL     1      15.435   7.965   6.084  0.00  0.00    +0.019 C 
ATOM     14  C   UNL     1      13.403   9.512   4.610  0.00  0.00    +0.094 C 
ATOM     15  C   UNL     1      15.328   9.499   6.048  0.00  0.00    +0.085 C 
ENDROOT
BRANCH  10  17
ATOM      7  N   UNL     1      11.298   7.714   3.837  0.00  0.00    -0.237 NA
ATOM      8  N   UNL     1      10.518   6.228   2.106  0.00  0.00    -0.232 NA
ATOM     17  C   UNL     1      12.560   7.360   3.520  0.00  0.00    +0.050 A 
ATOM     18  C   UNL     1      12.877   6.459   2.523  0.00  0.00    +0.052 A 
ATOM     19  C   UNL     1      11.804   5.919   1.843  0.00  0.00    +0.075 A 
ATOM     21  C   UNL     1      10.339   7.119   3.100  0.00  0.00    +0.127 A 
ATOM     24  C   UNL     1       8.930   7.484   3.422  0.00  0.00    +0.088 C 
BRANCH  19  22
ATOM     22  C   UNL     1      12.001   4.964   0.778  0.00  0.00    +0.000 A 
ATOM     25  C   UNL     1      11.007   4.778  -0.183  0.00  0.00    +0.010 A 
ATOM     26  C   UNL     1      13.184   4.230   0.712  0.00  0.00    +0.010 A 
ATOM     27  C   UNL     1      11.198   3.856  -1.213  0.00  0.00    +0.001 A 
ATOM     28  C   UNL     1      13.374   3.307  -0.317  0.00  0.00    +0.001 A 
ATOM     30  C   UNL     1      12.381   3.120  -1.280  0.00  0.00    +0.000 A 
ENDBRANCH  19  22
ENDBRANCH  10  17
BRANCH  11  16
ATOM     16  C   UNL     1      11.763   9.895   7.220  0.00  0.00    +0.123 C 
BRANCH  16   6
ATOM      2  O   UNL     1       9.201   9.618   8.536  0.00  0.00    -0.275 OA
ATOM      6  N   UNL     1      10.728   8.959   6.910  0.00  0.00    -0.313 N 
ATOM     20  C   UNL     1       9.516   8.891   7.596  0.00  0.00    +0.223 C 
ATOM     32  H   UNL     1      10.899   8.306   6.151  0.00  0.00    +0.149 HD
BRANCH  20  23
ATOM     23  C   UNL     1       8.598   7.805   7.089  0.00  0.00    +0.165 C 
BRANCH  23   1
ATOM      1  S   UNL     1       9.541   6.270   6.921  0.00  0.00    -0.140 S 
BRANCH   1  29
ATOM     29  C   UNL     1       9.973   6.026   8.660  0.00  0.00    +0.189 C 
BRANCH  29  31
ATOM      4  O   UNL     1       8.865   4.336   9.970  0.00  0.00    -0.250 OA
ATOM     31  C   UNL     1       9.638   4.621   9.066  0.00  0.00    +0.315 C 
BRANCH  31   3
ATOM      3  O   UNL     1      10.275   3.690   8.310  0.00  0.00    -0.480 OA
ATOM     33  H   UNL     1       9.686   3.306   7.628  0.00  0.00    +0.295 HD
ENDBRANCH  31   3
ENDBRANCH  29  31
ENDBRANCH   1  29
ENDBRANCH  23   1
ENDBRANCH  20  23
ENDBRANCH  16   6
ENDBRANCH  11  16
TORSDOF 9
ENDMDL
MODEL 9
REMARK VINA RESULT:      -6.1     25.734     29.118
REMARK  Name = 26742374
REMARK  10 active torsions:
REMARK  status: ('A' for Active; 'I' for Inactive)
REMARK    1  A    between atoms: S_1  and  C_23
REMARK    2  A    between atoms: S_1  and  C_29
REMARK    3  A    between atoms: O_3  and  C_31
REMARK    4  A    between atoms: N_6  and  C_16
REMARK    5  A    between atoms: C_10  and  C_17
REMARK    6  A    between atoms: C_11  and  C_16
REMARK    7  A    between atoms: C_19  and  C_22
REMARK    8  A    between atoms: C_20  and  C_23
REMARK    9  A    between atoms: C_21  and  C_24
REMARK   10  A    between atoms: C_29  and  C_31
REMARK                            x       y       z     vdW  Elec       q    Type
REMARK                         _______ _______ _______ _____ _____    ______ ____
ROOT
ATOM      5  N   UNL     1      -6.040 -11.501  10.951  0.00  0.00    -0.297 NA
ATOM      9  C   UNL     1      -3.496 -11.107  11.339  0.00  0.00    +0.002 C 
ATOM     10  C   UNL     1      -4.125 -11.836  12.558  0.00  0.00    +0.055 C 
ATOM     11  C   UNL     1      -5.699 -10.080  10.676  0.00  0.00    +0.074 C 
ATOM     12  C   UNL     1      -4.244  -9.779  11.097  0.00  0.00    +0.024 C 
ATOM     13  C   UNL     1      -3.748 -12.001  10.107  0.00  0.00    +0.019 C 
ATOM     14  C   UNL     1      -5.666 -11.853  12.343  0.00  0.00    +0.094 C 
ATOM     15  C   UNL     1      -5.246 -12.347  10.029  0.00  0.00    +0.085 C 
ENDROOT
BRANCH  10  17
ATOM      7  N   UNL     1      -2.457 -11.002  14.140  0.00  0.00    -0.237 NA
ATOM      8  N   UNL     1      -2.998 -10.514  16.438  0.00  0.00    -0.232 NA
ATOM     17  C   UNL     1      -3.743 -11.365  13.954  0.00  0.00    +0.050 A 
ATOM     18  C   UNL     1      -4.701 -11.331  14.947  0.00  0.00    +0.052 A 
ATOM     19  C   UNL     1      -4.266 -10.893  16.181  0.00  0.00    +0.075 A 
ATOM     21  C   UNL     1      -2.158 -10.592  15.388  0.00  0.00    +0.127 A 
ATOM     24  C   UNL     1      -0.745 -10.184  15.634  0.00  0.00    +0.088 C 
BRANCH  19  22
ATOM     22  C   UNL     1      -5.170 -10.811  17.304  0.00  0.00    +0.000 A 
ATOM     25  C   UNL     1      -4.788 -11.322  18.545  0.00  0.00    +0.010 A 
ATOM     26  C   UNL     1      -6.424 -10.221  17.147  0.00  0.00    +0.010 A 
ATOM     27  C   UNL     1      -5.662 -11.241  19.630  0.00  0.00    +0.001 A 
ATOM     28  C   UNL     1      -7.297 -10.142  18.232  0.00  0.00    +0.001 A 
ATOM     30  C   UNL     1      -6.916 -10.652  19.474  0.00  0.00    +0.000 A 
ENDBRANCH  19  22
ENDBRANCH  10  17
BRANCH  11  16
ATOM     16  C   UNL     1      -6.692  -9.107  11.315  0.00  0.00    +0.123 C 
BRANCH  16   6
ATOM      2  O   UNL     1      -6.895  -7.618   8.842  0.00  0.00    -0.275 OA
ATOM      6  N   UNL     1      -7.851  -8.948  10.493  0.00  0.00    -0.313 N 
ATOM     20  C   UNL     1      -7.865  -8.210   9.311  0.00  0.00    +0.223 C 
ATOM     32  H   UNL     1      -8.709  -9.396  10.802  0.00  0.00    +0.149 HD
BRANCH  20  23
ATOM     23  C   UNL     1      -9.216  -8.180   8.636  0.00  0.00    +0.165 C 
BRANCH  23   1
ATOM      1  S   UNL     1      -9.422  -6.586   7.807  0.00  0.00    -0.140 S 
BRANCH   1  29
ATOM     29  C   UNL     1      -9.725  -7.191   6.130  0.00  0.00    +0.189 C 
BRANCH  29  31
ATOM      4  O   UNL     1      -8.690  -9.180   5.250  0.00  0.00    -0.250 OA
ATOM     31  C   UNL     1      -8.572  -8.045   5.690  0.00  0.00    +0.315 C 
BRANCH  31   3
ATOM      3  O   UNL     1      -7.375  -7.417   5.819  0.00  0.00    -0.480 OA
ATOM     33  H   UNL     1      -6.713  -7.979   6.273  0.00  0.00    +0.295 HD
ENDBRANCH  31   3
ENDBRANCH  29  31
ENDBRANCH   1  29
ENDBRANCH  23   1
ENDBRANCH  20  23
ENDBRANCH  16   6
ENDBRANCH  11  16
TORSDOF 9
ENDMDL
MODEL 10
REMARK VINA RESULT:      -6.1     12.596     16.467
REMARK  Name = 26742374
REMARK  10 active torsions:
REMARK  status: ('A' for Active; 'I' for Inactive)
REMARK    1  A    between atoms: S_1  and  C_23
REMARK    2  A    between atoms: S_1  and  C_29
REMARK    3  A    between atoms: O_3  and  C_31
REMARK    4  A    between atoms: N_6  and  C_16
REMARK    5  A    between atoms: C_10  and  C_17
REMARK    6  A    between atoms: C_11  and  C_16
REMARK    7  A    between atoms: C_19  and  C_22
REMARK    8  A    between atoms: C_20  and  C_23
REMARK    9  A    between atoms: C_21  and  C_24
REMARK   10  A    between atoms: C_29  and  C_31
REMARK                            x       y       z     vdW  Elec       q    Type
REMARK                         _______ _______ _______ _____ _____    ______ ____
ROOT
ATOM      5  N   UNL     1      10.773   7.219   7.717  0.00  0.00    -0.297 NA
ATOM      9  C   UNL     1       9.155   5.595   6.481  0.00  0.00    +0.002 C 
ATOM     10  C   UNL     1      10.434   5.840   5.632  0.00  0.00    +0.055 C 
ATOM     11  C   UNL     1       9.401   7.793   7.686  0.00  0.00    +0.074 C 
ATOM     12  C   UNL     1       8.477   6.948   6.784  0.00  0.00    +0.024 C 
ATOM     13  C   UNL     1       9.623   5.010   7.830  0.00  0.00    +0.019 C 
ATOM     14  C   UNL     1      11.247   6.965   6.334  0.00  0.00    +0.094 C 
ATOM     15  C   UNL     1      10.707   5.922   8.431  0.00  0.00    +0.085 C 
ENDROOT
BRANCH  10  17
ATOM      7  N   UNL     1       9.511   7.151   3.786  0.00  0.00    -0.237 NA
ATOM      8  N   UNL     1       9.933   6.593   1.478  0.00  0.00    -0.232 NA
ATOM     17  C   UNL     1      10.269   6.093   4.141  0.00  0.00    +0.050 A 
ATOM     18  C   UNL     1      10.882   5.250   3.235  0.00  0.00    +0.052 A 
ATOM     19  C   UNL     1      10.676   5.552   1.905  0.00  0.00    +0.075 A 
ATOM     21  C   UNL     1       9.387   7.340   2.457  0.00  0.00    +0.127 A 
ATOM     24  C   UNL     1       8.556   8.500   2.025  0.00  0.00    +0.088 C 
BRANCH  19  22
ATOM     22  C   UNL     1      11.262   4.748   0.859  0.00  0.00    +0.000 A 
ATOM     25  C   UNL     1      10.659   4.690  -0.398  0.00  0.00    +0.010 A 
ATOM     26  C   UNL     1      12.432   4.030   1.105  0.00  0.00    +0.010 A 
ATOM     27  C   UNL     1      11.227   3.914  -1.408  0.00  0.00    +0.001 A 
ATOM     28  C   UNL     1      12.999   3.254   0.094  0.00  0.00    +0.001 A 
ATOM     30  C   UNL     1      12.397   3.195  -1.163  0.00  0.00    +0.000 A 
ENDBRANCH  19  22
ENDBRANCH  10  17
BRANCH  11  16
ATOM     16  C   UNL     1       9.396   9.270   7.286  0.00  0.00    +0.123 C 
BRANCH  16   6
ATOM      2  O   UNL     1      11.975  10.470   7.820  0.00  0.00    -0.275 OA
ATOM      6  N   UNL     1       9.752  10.101   8.394  0.00  0.00    -0.313 N 
ATOM     20  C   UNL     1      11.023  10.641   8.578  0.00  0.00    +0.223 C 
ATOM     32  H   UNL     1       9.032  10.294   9.085  0.00  0.00    +0.149 HD
BRANCH  20  23
ATOM     23  C   UNL     1      11.149  11.468   9.836  0.00  0.00    +0.165 C 
BRANCH  23   1
ATOM      1  S   UNL     1       9.522  11.605  10.613  0.00  0.00    -0.140 S 
BRANCH   1  29
ATOM     29  C   UNL     1      10.057  12.030  12.288  0.00  0.00    +0.189 C 
BRANCH  29  31
ATOM      4  O   UNL     1       8.788  14.076  12.381  0.00  0.00    -0.250 OA
ATOM     31  C   UNL     1       9.086  13.004  12.890  0.00  0.00    +0.315 C 
BRANCH  31   3
ATOM      3  O   UNL     1       8.557  12.561  14.059  0.00  0.00    -0.480 OA
ATOM     33  H   UNL     1       8.730  11.607  14.202  0.00  0.00    +0.295 HD
ENDBRANCH  31   3
ENDBRANCH  29  31
ENDBRANCH   1  29
ENDBRANCH  23   1
ENDBRANCH  20  23
ENDBRANCH  16   6
ENDBRANCH  11  16
TORSDOF 9
ENDMDL
