MODEL 1
REMARK VINA RESULT:      -7.3      0.000      0.000
REMARK  Name = 11867500
REMARK  8 active torsions:
REMARK  status: ('A' for Active; 'I' for Inactive)
REMARK    1  A    between atoms: O_3  and  C_14
REMARK    2  A    between atoms: O_3  and  C_24
REMARK    3  A    between atoms: N_5  and  C_13
REMARK    4  A    between atoms: N_6  and  C_17
REMARK    5  A    between atoms: N_10  and  C_30
REMARK    6  A    between atoms: N_10  and  C_31
REMARK    7  A    between atoms: N_10  and  C_32
REMARK    8  A    between atoms: C_20  and  C_25
REMARK                            x       y       z     vdW  Elec       q    Type
REMARK                         _______ _______ _______ _____ _____    ______ ____
ROOT
ATOM      1  O   UNL     1      13.387   8.887  15.176  0.00  0.00    -0.368 OA
ATOM      2  O   UNL     1      15.128  10.907  16.739  0.00  0.00    -0.368 OA
ATOM     11  C   UNL     1      13.995  10.099  17.128  0.00  0.00    +0.177 C 
ATOM     12  C   UNL     1      13.057  10.060  15.938  0.00  0.00    +0.192 C 
ATOM     13  C   UNL     1      14.438   8.659  17.310  0.00  0.00    +0.168 C 
ATOM     14  C   UNL     1      13.409  11.326  15.195  0.00  0.00    +0.235 C 
ATOM     15  C   UNL     1      14.344   8.097  15.896  0.00  0.00    +0.190 C 
ATOM     16  C   UNL     1      14.901  11.421  15.420  0.00  0.00    +0.207 C 
ENDROOT
BRANCH  13   5
ATOM      5  N   UNL     1      13.647   7.953  18.320  0.00  0.00    -0.217 N 
ATOM      7  N   UNL     1      12.315   7.897  18.223  0.00  0.00    -0.043 NA
ATOM      8  N   UNL     1      13.009   6.812  20.043  0.00  0.00    -0.108 NA
ATOM      9  N   UNL     1      11.928   7.196  19.281  0.00  0.00    -0.023 NA
ATOM     20  C   UNL     1      14.064   7.293  19.427  0.00  0.00    +0.182 A 
BRANCH  20  25
ATOM     25  C   UNL     1      15.440   7.159  19.833  0.00  0.00    +0.021 A 
ATOM     26  C   UNL     1      16.277   6.252  19.181  0.00  0.00    +0.013 A 
ATOM     27  C   UNL     1      15.939   7.937  20.880  0.00  0.00    +0.013 A 
ATOM     28  C   UNL     1      17.608   6.124  19.575  0.00  0.00    +0.024 A 
ATOM     29  C   UNL     1      17.270   7.808  21.274  0.00  0.00    +0.024 A 
ATOM     30  C   UNL     1      18.105   6.902  20.621  0.00  0.00    +0.029 A 
BRANCH  30  10
ATOM     10  N   UNL     1      19.452   6.772  21.019  0.00  0.00    -0.336 N 
ATOM     31  C   UNL     1      20.089   7.808  21.806  0.00  0.00    +0.129 C 
ATOM     32  C   UNL     1      20.222   5.605  20.633  0.00  0.00    +0.129 C 
ENDBRANCH  30  10
ENDBRANCH  20  25
ENDBRANCH  13   5
BRANCH  14   3
ATOM      3  O   UNL     1      13.080  11.285  13.824  0.00  0.00    -0.442 OA
BRANCH   3  24
ATOM      4  O   UNL     1      12.740  13.555  13.746  0.00  0.00    -0.226 OA
ATOM      6  N   UNL     1      11.736  12.115  12.230  0.00  0.00    -0.278 N 
ATOM     24  C   UNL     1      12.538  12.428  13.308  0.00  0.00    +0.401 C 
ATOM     33  H   UNL     1      11.622  11.131  12.003  0.00  0.00    +0.152 HD
BRANCH   6  17
ATOM     17  C   UNL     1      11.012  13.098  11.456  0.00  0.00    +0.076 C 
ATOM     18  C   UNL     1       9.631  13.368  12.062  0.00  0.00    +0.022 C 
ATOM     19  C   UNL     1      10.900  12.670   9.989  0.00  0.00    +0.022 C 
ATOM     21  C   UNL     1       8.665  12.200  11.862  0.00  0.00    +0.002 C 
ATOM     22  C   UNL     1       9.932  11.503   9.791  0.00  0.00    +0.002 C 
ATOM     23  C   UNL     1       8.562  11.801  10.393  0.00  0.00    +0.000 C 
ENDBRANCH   6  17
ENDBRANCH   3  24
ENDBRANCH  14   3
TORSDOF 6
ENDMDL
MODEL 2
REMARK VINA RESULT:      -6.9     27.584     29.400
REMARK  Name = 11867500
REMARK  8 active torsions:
REMARK  status: ('A' for Active; 'I' for Inactive)
REMARK    1  A    between atoms: O_3  and  C_14
REMARK    2  A    between atoms: O_3  and  C_24
REMARK    3  A    between atoms: N_5  and  C_13
REMARK    4  A    between atoms: N_6  and  C_17
REMARK    5  A    between atoms: N_10  and  C_30
REMARK    6  A    between atoms: N_10  and  C_31
REMARK    7  A    between atoms: N_10  and  C_32
REMARK    8  A    between atoms: C_20  and  C_25
REMARK                            x       y       z     vdW  Elec       q    Type
REMARK                         _______ _______ _______ _____ _____    ______ ____
ROOT
ATOM      1  O   UNL     1      -9.952 -10.136  17.738  0.00  0.00    -0.368 OA
ATOM      2  O   UNL     1      -8.135  -9.709  15.274  0.00  0.00    -0.368 OA
ATOM     11  C   UNL     1      -7.873  -9.652  16.694  0.00  0.00    +0.177 C 
ATOM     12  C   UNL     1      -9.103  -9.048  17.342  0.00  0.00    +0.192 C 
ATOM     13  C   UNL     1      -7.802 -11.060  17.254  0.00  0.00    +0.168 C 
ATOM     14  C   UNL     1      -9.712  -8.245  16.216  0.00  0.00    +0.235 C 
ATOM     15  C   UNL     1      -9.264 -11.380  17.544  0.00  0.00    +0.190 C 
ATOM     16  C   UNL     1      -9.411  -9.109  15.013  0.00  0.00    +0.207 C 
ENDROOT
BRANCH  13   5
ATOM      5  N   UNL     1      -6.896 -11.163  18.400  0.00  0.00    -0.217 N 
ATOM      7  N   UNL     1      -7.363 -11.037  19.647  0.00  0.00    -0.043 NA
ATOM      8  N   UNL     1      -5.162 -11.394  19.672  0.00  0.00    -0.108 NA
ATOM      9  N   UNL     1      -6.296 -11.181  20.423  0.00  0.00    -0.023 NA
ATOM     20  C   UNL     1      -5.560 -11.379  18.420  0.00  0.00    +0.182 A 
BRANCH  20  25
ATOM     25  C   UNL     1      -4.741 -11.559  17.249  0.00  0.00    +0.021 A 
ATOM     26  C   UNL     1      -4.796 -12.756  16.533  0.00  0.00    +0.013 A 
ATOM     27  C   UNL     1      -3.888 -10.536  16.828  0.00  0.00    +0.013 A 
ATOM     28  C   UNL     1      -4.003 -12.928  15.399  0.00  0.00    +0.024 A 
ATOM     29  C   UNL     1      -3.095 -10.708  15.694  0.00  0.00    +0.024 A 
ATOM     30  C   UNL     1      -3.152 -11.905  14.979  0.00  0.00    +0.029 A 
BRANCH  30  10
ATOM     10  N   UNL     1      -2.350 -12.080  13.832  0.00  0.00    -0.336 N 
ATOM     31  C   UNL     1      -1.617 -13.314  13.631  0.00  0.00    +0.129 C 
ATOM     32  C   UNL     1      -2.238 -11.023  12.846  0.00  0.00    +0.129 C 
ENDBRANCH  30  10
ENDBRANCH  20  25
ENDBRANCH  13   5
BRANCH  14   3
ATOM      3  O   UNL     1     -11.094  -8.015  16.373  0.00  0.00    -0.442 OA
BRANCH   3  24
ATOM      4  O   UNL     1     -11.128  -5.727  16.572  0.00  0.00    -0.226 OA
ATOM      6  N   UNL     1     -12.477  -6.843  15.050  0.00  0.00    -0.278 N 
ATOM     24  C   UNL     1     -11.529  -6.761  16.048  0.00  0.00    +0.401 C 
ATOM     33  H   UNL     1     -12.749  -7.771  14.738  0.00  0.00    +0.152 HD
BRANCH   6  17
ATOM     17  C   UNL     1     -13.140  -5.693  14.476  0.00  0.00    +0.076 C 
ATOM     18  C   UNL     1     -14.604  -6.009  14.147  0.00  0.00    +0.022 C 
ATOM     19  C   UNL     1     -12.391  -5.185  13.240  0.00  0.00    +0.022 C 
ATOM     21  C   UNL     1     -14.745  -6.945  12.947  0.00  0.00    +0.002 C 
ATOM     22  C   UNL     1     -12.535  -6.122  12.041  0.00  0.00    +0.002 C 
ATOM     23  C   UNL     1     -14.000  -6.412  11.727  0.00  0.00    +0.000 C 
ENDBRANCH   6  17
ENDBRANCH   3  24
ENDBRANCH  14   3
TORSDOF 6
ENDMDL
MODEL 3
REMARK VINA RESULT:      -6.8     27.432     29.905
REMARK  Name = 11867500
REMARK  8 active torsions:
REMARK  status: ('A' for Active; 'I' for Inactive)
REMARK    1  A    between atoms: O_3  and  C_14
REMARK    2  A    between atoms: O_3  and  C_24
REMARK    3  A    between atoms: N_5  and  C_13
REMARK    4  A    between atoms: N_6  and  C_17
REMARK    5  A    between atoms: N_10  and  C_30
REMARK    6  A    between atoms: N_10  and  C_31
REMARK    7  A    between atoms: N_10  and  C_32
REMARK    8  A    between atoms: C_20  and  C_25
REMARK                            x       y       z     vdW  Elec       q    Type
REMARK                         _______ _______ _______ _____ _____    ______ ____
ROOT
ATOM      1  O   UNL     1      -6.157  -9.578  16.299  0.00  0.00    -0.368 OA
ATOM      2  O   UNL     1      -6.909 -12.380  15.230  0.00  0.00    -0.368 OA
ATOM     11  C   UNL     1      -6.986 -11.791  16.548  0.00  0.00    +0.177 C 
ATOM     12  C   UNL     1      -5.769 -10.901  16.702  0.00  0.00    +0.192 C 
ATOM     13  C   UNL     1      -8.165 -10.838  16.609  0.00  0.00    +0.168 C 
ATOM     14  C   UNL     1      -4.784 -11.514  15.734  0.00  0.00    +0.235 C 
ATOM     15  C   UNL     1      -7.573  -9.539  16.072  0.00  0.00    +0.190 C 
ATOM     16  C   UNL     1      -5.686 -11.963  14.608  0.00  0.00    +0.207 C 
ENDROOT
BRANCH  13   5
ATOM      5  N   UNL     1      -8.750 -10.755  17.949  0.00  0.00    -0.217 N 
ATOM      7  N   UNL     1      -8.248 -11.477  18.955  0.00  0.00    -0.043 NA
ATOM      8  N   UNL     1      -9.975 -10.255  19.660  0.00  0.00    -0.108 NA
ATOM      9  N   UNL     1      -9.001 -11.166  20.003  0.00  0.00    -0.023 NA
ATOM     20  C   UNL     1      -9.799 -10.014  18.381  0.00  0.00    +0.182 A 
BRANCH  20  25
ATOM     25  C   UNL     1     -10.570  -9.123  17.553  0.00  0.00    +0.021 A 
ATOM     26  C   UNL     1     -10.193  -7.786  17.422  0.00  0.00    +0.013 A 
ATOM     27  C   UNL     1     -11.699  -9.596  16.879  0.00  0.00    +0.013 A 
ATOM     28  C   UNL     1     -10.940  -6.924  16.620  0.00  0.00    +0.024 A 
ATOM     29  C   UNL     1     -12.446  -8.734  16.077  0.00  0.00    +0.024 A 
ATOM     30  C   UNL     1     -12.067  -7.398  15.947  0.00  0.00    +0.029 A 
BRANCH  30  10
ATOM     10  N   UNL     1     -12.823  -6.526  15.136  0.00  0.00    -0.336 N 
ATOM     31  C   UNL     1     -12.165  -5.512  14.338  0.00  0.00    +0.129 C 
ATOM     32  C   UNL     1     -14.269  -6.625  15.100  0.00  0.00    +0.129 C 
ENDBRANCH  30  10
ENDBRANCH  20  25
ENDBRANCH  13   5
BRANCH  14   3
ATOM      3  O   UNL     1      -3.793 -10.613  15.294  0.00  0.00    -0.442 OA
BRANCH   3  24
ATOM      4  O   UNL     1      -2.014 -11.926  14.673  0.00  0.00    -0.226 OA
ATOM      6  N   UNL     1      -3.117 -10.563  13.155  0.00  0.00    -0.278 N 
ATOM     24  C   UNL     1      -2.890 -11.113  14.399  0.00  0.00    +0.401 C 
ATOM     33  H   UNL     1      -3.852  -9.864  13.079  0.00  0.00    +0.152 HD
BRANCH   6  17
ATOM     17  C   UNL     1      -2.335 -10.881  11.981  0.00  0.00    +0.076 C 
ATOM     18  C   UNL     1      -2.131  -9.641  11.103  0.00  0.00    +0.022 C 
ATOM     19  C   UNL     1      -2.974 -12.024  11.186  0.00  0.00    +0.022 C 
ATOM     21  C   UNL     1      -3.411  -9.215  10.385  0.00  0.00    +0.002 C 
ATOM     22  C   UNL     1      -4.253 -11.595  10.468  0.00  0.00    +0.002 C 
ATOM     23  C   UNL     1      -4.021 -10.367   9.592  0.00  0.00    +0.000 C 
ENDBRANCH   6  17
ENDBRANCH   3  24
ENDBRANCH  14   3
TORSDOF 6
ENDMDL
MODEL 4
REMARK VINA RESULT:      -6.8     27.878     29.762
REMARK  Name = 11867500
REMARK  8 active torsions:
REMARK  status: ('A' for Active; 'I' for Inactive)
REMARK    1  A    between atoms: O_3  and  C_14
REMARK    2  A    between atoms: O_3  and  C_24
REMARK    3  A    between atoms: N_5  and  C_13
REMARK    4  A    between atoms: N_6  and  C_17
REMARK    5  A    between atoms: N_10  and  C_30
REMARK    6  A    between atoms: N_10  and  C_31
REMARK    7  A    between atoms: N_10  and  C_32
REMARK    8  A    between atoms: C_20  and  C_25
REMARK                            x       y       z     vdW  Elec       q    Type
REMARK                         _______ _______ _______ _____ _____    ______ ____
ROOT
ATOM      1  O   UNL     1     -11.503  -9.781  16.236  0.00  0.00    -0.368 OA
ATOM      2  O   UNL     1      -8.876  -9.617  14.616  0.00  0.00    -0.368 OA
ATOM     11  C   UNL     1      -9.154  -9.488  16.028  0.00  0.00    +0.177 C 
ATOM     12  C   UNL     1     -10.484  -8.772  16.149  0.00  0.00    +0.192 C 
ATOM     13  C   UNL     1      -9.406 -10.861  16.622  0.00  0.00    +0.168 C 
ATOM     14  C   UNL     1     -10.568  -8.005  14.850  0.00  0.00    +0.235 C 
ATOM     15  C   UNL     1     -10.892 -11.074  16.356  0.00  0.00    +0.190 C 
ATOM     16  C   UNL     1      -9.913  -8.958  13.877  0.00  0.00    +0.207 C 
ENDROOT
BRANCH  13   5
ATOM      5  N   UNL     1      -9.001 -10.948  18.027  0.00  0.00    -0.217 N 
ATOM      7  N   UNL     1      -9.910 -10.853  19.003  0.00  0.00    -0.043 NA
ATOM      8  N   UNL     1      -7.871 -11.138  19.861  0.00  0.00    -0.108 NA
ATOM      9  N   UNL     1      -9.213 -10.971  20.126  0.00  0.00    -0.023 NA
ATOM     20  C   UNL     1      -7.765 -11.120  18.552  0.00  0.00    +0.182 A 
BRANCH  20  25
ATOM     25  C   UNL     1      -6.557 -11.258  17.780  0.00  0.00    +0.021 A 
ATOM     26  C   UNL     1      -5.751 -10.145  17.537  0.00  0.00    +0.013 A 
ATOM     27  C   UNL     1      -6.190 -12.506  17.272  0.00  0.00    +0.013 A 
ATOM     28  C   UNL     1      -4.581 -10.279  16.789  0.00  0.00    +0.024 A 
ATOM     29  C   UNL     1      -5.020 -12.641  16.525  0.00  0.00    +0.024 A 
ATOM     30  C   UNL     1      -4.216 -11.527  16.283  0.00  0.00    +0.029 A 
BRANCH  30  10
ATOM     10  N   UNL     1      -3.033 -11.663  15.527  0.00  0.00    -0.336 N 
ATOM     31  C   UNL     1      -2.913 -12.711  14.533  0.00  0.00    +0.129 C 
ATOM     32  C   UNL     1      -1.916 -10.764  15.743  0.00  0.00    +0.129 C 
ENDBRANCH  30  10
ENDBRANCH  20  25
ENDBRANCH  13   5
BRANCH  14   3
ATOM      3  O   UNL     1     -11.887  -7.682  14.471  0.00  0.00    -0.442 OA
BRANCH   3  24
ATOM      4  O   UNL     1     -12.361  -5.892  15.830  0.00  0.00    -0.226 OA
ATOM      6  N   UNL     1     -12.562  -5.764  13.522  0.00  0.00    -0.278 N 
ATOM     24  C   UNL     1     -12.278  -6.396  14.715  0.00  0.00    +0.401 C 
ATOM     33  H   UNL     1     -12.493  -6.316  12.672  0.00  0.00    +0.152 HD
BRANCH   6  17
ATOM     17  C   UNL     1     -13.004  -4.390  13.427  0.00  0.00    +0.076 C 
ATOM     18  C   UNL     1     -14.503  -4.315  13.118  0.00  0.00    +0.022 C 
ATOM     19  C   UNL     1     -12.185  -3.619  12.387  0.00  0.00    +0.022 C 
ATOM     21  C   UNL     1     -14.828  -4.733  11.684  0.00  0.00    +0.002 C 
ATOM     22  C   UNL     1     -12.512  -4.038  10.954  0.00  0.00    +0.002 C 
ATOM     23  C   UNL     1     -14.008  -3.943  10.669  0.00  0.00    +0.000 C 
ENDBRANCH   6  17
ENDBRANCH   3  24
ENDBRANCH  14   3
TORSDOF 6
ENDMDL
MODEL 5
REMARK VINA RESULT:      -6.6     12.247     16.383
REMARK  Name = 11867500
REMARK  8 active torsions:
REMARK  status: ('A' for Active; 'I' for Inactive)
REMARK    1  A    between atoms: O_3  and  C_14
REMARK    2  A    between atoms: O_3  and  C_24
REMARK    3  A    between atoms: N_5  and  C_13
REMARK    4  A    between atoms: N_6  and  C_17
REMARK    5  A    between atoms: N_10  and  C_30
REMARK    6  A    between atoms: N_10  and  C_31
REMARK    7  A    between atoms: N_10  and  C_32
REMARK    8  A    between atoms: C_20  and  C_25
REMARK                            x       y       z     vdW  Elec       q    Type
REMARK                         _______ _______ _______ _____ _____    ______ ____
ROOT
ATOM      1  O   UNL     1      15.376   5.118   0.654  0.00  0.00    -0.368 OA
ATOM      2  O   UNL     1      14.378   6.696   3.118  0.00  0.00    -0.368 OA
ATOM     11  C   UNL     1      13.735   6.324   1.879  0.00  0.00    +0.177 C 
ATOM     12  C   UNL     1      14.787   6.421   0.793  0.00  0.00    +0.192 C 
ATOM     13  C   UNL     1      13.365   4.853   1.920  0.00  0.00    +0.168 C 
ATOM     14  C   UNL     1      15.767   7.417   1.367  0.00  0.00    +0.235 C 
ATOM     15  C   UNL     1      14.646   4.172   1.450  0.00  0.00    +0.190 C 
ATOM     16  C   UNL     1      15.730   7.084   2.841  0.00  0.00    +0.207 C 
ENDROOT
BRANCH  13   5
ATOM      5  N   UNL     1      12.169   4.552   1.131  0.00  0.00    -0.217 N 
ATOM      7  N   UNL     1      12.279   4.052  -0.104  0.00  0.00    -0.043 NA
ATOM      8  N   UNL     1      10.132   4.309   0.445  0.00  0.00    -0.108 NA
ATOM      9  N   UNL     1      11.027   3.903  -0.521  0.00  0.00    -0.023 NA
ATOM     20  C   UNL     1      10.865   4.707   1.460  0.00  0.00    +0.182 A 
BRANCH  20  25
ATOM     25  C   UNL     1      10.392   5.224   2.718  0.00  0.00    +0.021 A 
ATOM     26  C   UNL     1      10.478   4.444   3.873  0.00  0.00    +0.013 A 
ATOM     27  C   UNL     1       9.845   6.507   2.786  0.00  0.00    +0.013 A 
ATOM     28  C   UNL     1      10.021   4.946   5.091  0.00  0.00    +0.024 A 
ATOM     29  C   UNL     1       9.387   7.009   4.004  0.00  0.00    +0.024 A 
ATOM     30  C   UNL     1       9.475   6.228   5.157  0.00  0.00    +0.029 A 
BRANCH  30  10
ATOM     10  N   UNL     1       9.013   6.735   6.389  0.00  0.00    -0.336 N 
ATOM     31  C   UNL     1       8.192   7.929   6.430  0.00  0.00    +0.129 C 
ATOM     32  C   UNL     1       9.363   6.077   7.632  0.00  0.00    +0.129 C 
ENDBRANCH  30  10
ENDBRANCH  20  25
ENDBRANCH  13   5
BRANCH  14   3
ATOM      3  O   UNL     1      17.065   7.305   0.829  0.00  0.00    -0.442 OA
BRANCH   3  24
ATOM      4  O   UNL     1      17.774   9.463   1.167  0.00  0.00    -0.226 OA
ATOM      6  N   UNL     1      19.096   7.640   1.723  0.00  0.00    -0.278 N 
ATOM     24  C   UNL     1      17.962   8.253   1.234  0.00  0.00    +0.401 C 
ATOM     33  H   UNL     1      19.136   6.626   1.678  0.00  0.00    +0.152 HD
BRANCH   6  17
ATOM     17  C   UNL     1      20.241   8.361   2.234  0.00  0.00    +0.076 C 
ATOM     18  C   UNL     1      21.549   7.758   1.710  0.00  0.00    +0.022 C 
ATOM     19  C   UNL     1      20.225   8.404   3.766  0.00  0.00    +0.022 C 
ATOM     21  C   UNL     1      21.864   6.402   2.340  0.00  0.00    +0.002 C 
ATOM     22  C   UNL     1      20.542   7.047   4.394  0.00  0.00    +0.002 C 
ATOM     23  C   UNL     1      21.854   6.475   3.865  0.00  0.00    +0.000 C 
ENDBRANCH   6  17
ENDBRANCH   3  24
ENDBRANCH  14   3
TORSDOF 6
ENDMDL
MODEL 6
REMARK VINA RESULT:      -6.5     27.765     30.193
REMARK  Name = 11867500
REMARK  8 active torsions:
REMARK  status: ('A' for Active; 'I' for Inactive)
REMARK    1  A    between atoms: O_3  and  C_14
REMARK    2  A    between atoms: O_3  and  C_24
REMARK    3  A    between atoms: N_5  and  C_13
REMARK    4  A    between atoms: N_6  and  C_17
REMARK    5  A    between atoms: N_10  and  C_30
REMARK    6  A    between atoms: N_10  and  C_31
REMARK    7  A    between atoms: N_10  and  C_32
REMARK    8  A    between atoms: C_20  and  C_25
REMARK                            x       y       z     vdW  Elec       q    Type
REMARK                         _______ _______ _______ _____ _____    ______ ____
ROOT
ATOM      1  O   UNL     1      -5.184 -11.270  18.975  0.00  0.00    -0.368 OA
ATOM      2  O   UNL     1      -6.338  -9.709  16.570  0.00  0.00    -0.368 OA
ATOM     11  C   UNL     1      -6.798 -10.882  17.275  0.00  0.00    +0.177 C 
ATOM     12  C   UNL     1      -5.565 -11.679  17.652  0.00  0.00    +0.192 C 
ATOM     13  C   UNL     1      -7.405 -10.471  18.603  0.00  0.00    +0.168 C 
ATOM     14  C   UNL     1      -4.555 -11.238  16.619  0.00  0.00    +0.235 C 
ATOM     15  C   UNL     1      -6.190 -10.405  19.522  0.00  0.00    +0.190 C 
ATOM     16  C   UNL     1      -4.912  -9.782  16.429  0.00  0.00    +0.207 C 
ENDROOT
BRANCH  13   5
ATOM      5  N   UNL     1      -8.473 -11.375  19.037  0.00  0.00    -0.217 N 
ATOM      7  N   UNL     1      -8.229 -12.326  19.945  0.00  0.00    -0.043 NA
ATOM      8  N   UNL     1     -10.362 -12.395  19.297  0.00  0.00    -0.108 NA
ATOM      9  N   UNL     1      -9.391 -12.948  20.102  0.00  0.00    -0.023 NA
ATOM     20  C   UNL     1      -9.768 -11.421  18.646  0.00  0.00    +0.182 A 
BRANCH  20  25
ATOM     25  C   UNL     1     -10.365 -10.537  17.678  0.00  0.00    +0.021 A 
ATOM     26  C   UNL     1     -10.434 -10.913  16.335  0.00  0.00    +0.013 A 
ATOM     27  C   UNL     1     -10.874  -9.300  18.080  0.00  0.00    +0.013 A 
ATOM     28  C   UNL     1     -11.012 -10.057  15.399  0.00  0.00    +0.024 A 
ATOM     29  C   UNL     1     -11.452  -8.443  17.144  0.00  0.00    +0.024 A 
ATOM     30  C   UNL     1     -11.521  -8.821  15.803  0.00  0.00    +0.029 A 
BRANCH  30  10
ATOM     10  N   UNL     1     -12.105  -7.956  14.855  0.00  0.00    -0.336 N 
ATOM     31  C   UNL     1     -11.986  -8.231  13.437  0.00  0.00    +0.129 C 
ATOM     32  C   UNL     1     -12.822  -6.772  15.286  0.00  0.00    +0.129 C 
ENDBRANCH  30  10
ENDBRANCH  20  25
ENDBRANCH  13   5
BRANCH  14   3
ATOM      3  O   UNL     1      -3.218 -11.408  17.030  0.00  0.00    -0.442 OA
BRANCH   3  24
ATOM      4  O   UNL     1      -1.369 -10.408  16.105  0.00  0.00    -0.226 OA
ATOM      6  N   UNL     1      -2.489 -12.136  15.036  0.00  0.00    -0.278 N 
ATOM     24  C   UNL     1      -2.271 -11.238  16.060  0.00  0.00    +0.401 C 
ATOM     33  H   UNL     1      -3.303 -12.739  15.109  0.00  0.00    +0.152 HD
BRANCH   6  17
ATOM     17  C   UNL     1      -1.662 -12.220  13.853  0.00  0.00    +0.076 C 
ATOM     18  C   UNL     1      -2.142 -11.240  12.776  0.00  0.00    +0.022 C 
ATOM     19  C   UNL     1      -1.614 -13.654  13.315  0.00  0.00    +0.022 C 
ATOM     21  C   UNL     1      -3.460 -11.673  12.135  0.00  0.00    +0.002 C 
ATOM     22  C   UNL     1      -2.933 -14.084  12.673  0.00  0.00    +0.002 C 
ATOM     23  C   UNL     1      -3.382 -13.099  11.598  0.00  0.00    +0.000 C 
ENDBRANCH   6  17
ENDBRANCH   3  24
ENDBRANCH  14   3
TORSDOF 6
ENDMDL
MODEL 7
REMARK VINA RESULT:      -6.5     26.753     29.035
REMARK  Name = 11867500
REMARK  8 active torsions:
REMARK  status: ('A' for Active; 'I' for Inactive)
REMARK    1  A    between atoms: O_3  and  C_14
REMARK    2  A    between atoms: O_3  and  C_24
REMARK    3  A    between atoms: N_5  and  C_13
REMARK    4  A    between atoms: N_6  and  C_17
REMARK    5  A    between atoms: N_10  and  C_30
REMARK    6  A    between atoms: N_10  and  C_31
REMARK    7  A    between atoms: N_10  and  C_32
REMARK    8  A    between atoms: C_20  and  C_25
REMARK                            x       y       z     vdW  Elec       q    Type
REMARK                         _______ _______ _______ _____ _____    ______ ____
ROOT
ATOM      1  O   UNL     1      -5.215 -11.113  17.014  0.00  0.00    -0.368 OA
ATOM      2  O   UNL     1      -6.782 -10.617  14.396  0.00  0.00    -0.368 OA
ATOM     11  C   UNL     1      -5.510 -10.125  14.873  0.00  0.00    +0.177 C 
ATOM     12  C   UNL     1      -5.656  -9.909  16.367  0.00  0.00    +0.192 C 
ATOM     13  C   UNL     1      -4.464 -11.216  14.748  0.00  0.00    +0.168 C 
ATOM     14  C   UNL     1      -7.143  -9.701  16.529  0.00  0.00    +0.235 C 
ATOM     15  C   UNL     1      -4.638 -11.999  16.044  0.00  0.00    +0.190 C 
ATOM     16  C   UNL     1      -7.709 -10.641  15.489  0.00  0.00    +0.207 C 
ENDROOT
BRANCH  13   5
ATOM      5  N   UNL     1      -3.121 -10.682  14.513  0.00  0.00    -0.217 N 
ATOM      7  N   UNL     1      -2.325 -10.369  15.541  0.00  0.00    -0.043 NA
ATOM      8  N   UNL     1      -1.298  -9.953  13.606  0.00  0.00    -0.108 NA
ATOM      9  N   UNL     1      -1.207  -9.924  14.980  0.00  0.00    -0.023 NA
ATOM     20  C   UNL     1      -2.493 -10.427  13.340  0.00  0.00    +0.182 A 
BRANCH  20  25
ATOM     25  C   UNL     1      -3.067 -10.650  12.038  0.00  0.00    +0.021 A 
ATOM     26  C   UNL     1      -3.147 -11.943  11.520  0.00  0.00    +0.013 A 
ATOM     27  C   UNL     1      -3.543  -9.571  11.290  0.00  0.00    +0.013 A 
ATOM     28  C   UNL     1      -3.703 -12.157  10.259  0.00  0.00    +0.024 A 
ATOM     29  C   UNL     1      -4.099  -9.785  10.029  0.00  0.00    +0.024 A 
ATOM     30  C   UNL     1      -4.179 -11.078   9.513  0.00  0.00    +0.029 A 
BRANCH  30  10
ATOM     10  N   UNL     1      -4.741 -11.295   8.238  0.00  0.00    -0.336 N 
ATOM     31  C   UNL     1      -4.679 -12.606   7.622  0.00  0.00    +0.129 C 
ATOM     32  C   UNL     1      -5.376 -10.207   7.521  0.00  0.00    +0.129 C 
ENDBRANCH  30  10
ENDBRANCH  20  25
ENDBRANCH  13   5
BRANCH  14   3
ATOM      3  O   UNL     1      -7.615  -9.995  17.824  0.00  0.00    -0.442 OA
BRANCH   3  24
ATOM      4  O   UNL     1      -9.646 -10.608  18.704  0.00  0.00    -0.226 OA
ATOM      6  N   UNL     1      -9.424  -8.771  17.305  0.00  0.00    -0.278 N 
ATOM     24  C   UNL     1      -8.962  -9.862  18.011  0.00  0.00    +0.401 C 
ATOM     33  H   UNL     1      -8.752  -8.266  16.733  0.00  0.00    +0.152 HD
BRANCH   6  17
ATOM     17  C   UNL     1     -10.807  -8.352  17.289  0.00  0.00    +0.076 C 
ATOM     18  C   UNL     1     -11.613  -9.153  16.260  0.00  0.00    +0.022 C 
ATOM     19  C   UNL     1     -10.924  -6.845  17.033  0.00  0.00    +0.022 C 
ATOM     21  C   UNL     1     -11.268  -8.771  14.820  0.00  0.00    +0.002 C 
ATOM     22  C   UNL     1     -10.580  -6.467  15.592  0.00  0.00    +0.002 C 
ATOM     23  C   UNL     1     -11.403  -7.269  14.589  0.00  0.00    +0.000 C 
ENDBRANCH   6  17
ENDBRANCH   3  24
ENDBRANCH  14   3
TORSDOF 6
ENDMDL
MODEL 8
REMARK VINA RESULT:      -6.5     11.029     14.886
REMARK  Name = 11867500
REMARK  8 active torsions:
REMARK  status: ('A' for Active; 'I' for Inactive)
REMARK    1  A    between atoms: O_3  and  C_14
REMARK    2  A    between atoms: O_3  and  C_24
REMARK    3  A    between atoms: N_5  and  C_13
REMARK    4  A    between atoms: N_6  and  C_17
REMARK    5  A    between atoms: N_10  and  C_30
REMARK    6  A    between atoms: N_10  and  C_31
REMARK    7  A    between atoms: N_10  and  C_32
REMARK    8  A    between atoms: C_20  and  C_25
REMARK                            x       y       z     vdW  Elec       q    Type
REMARK                         _______ _______ _______ _____ _____    ______ ____
ROOT
ATOM      1  O   UNL     1      13.093   8.755   6.902  0.00  0.00    -0.368 OA
ATOM      2  O   UNL     1      13.597   8.188   3.905  0.00  0.00    -0.368 OA
ATOM     11  C   UNL     1      13.150   7.345   4.990  0.00  0.00    +0.177 C 
ATOM     12  C   UNL     1      13.907   7.783   6.227  0.00  0.00    +0.192 C 
ATOM     13  C   UNL     1      11.698   7.652   5.305  0.00  0.00    +0.168 C 
ATOM     14  C   UNL     1      15.156   8.407   5.649  0.00  0.00    +0.235 C 
ATOM     15  C   UNL     1      11.805   8.825   6.272  0.00  0.00    +0.190 C 
ATOM     16  C   UNL     1      14.631   9.056   4.389  0.00  0.00    +0.207 C 
ENDROOT
BRANCH  13   5
ATOM      5  N   UNL     1      10.975   6.484   5.813  0.00  0.00    -0.217 N 
ATOM      7  N   UNL     1      10.776   6.327   7.126  0.00  0.00    -0.043 NA
ATOM      8  N   UNL     1       9.879   4.628   5.994  0.00  0.00    -0.108 NA
ATOM      9  N   UNL     1      10.102   5.188   7.232  0.00  0.00    -0.023 NA
ATOM     20  C   UNL     1      10.429   5.450   5.130  0.00  0.00    +0.182 A 
BRANCH  20  25
ATOM     25  C   UNL     1      10.463   5.305   3.697  0.00  0.00    +0.021 A 
ATOM     26  C   UNL     1       9.923   6.299   2.880  0.00  0.00    +0.013 A 
ATOM     27  C   UNL     1      11.036   4.168   3.123  0.00  0.00    +0.013 A 
ATOM     28  C   UNL     1       9.958   6.158   1.493  0.00  0.00    +0.024 A 
ATOM     29  C   UNL     1      11.070   4.026   1.736  0.00  0.00    +0.024 A 
ATOM     30  C   UNL     1      10.531   5.021   0.920  0.00  0.00    +0.029 A 
BRANCH  30  10
ATOM     10  N   UNL     1      10.565   4.879  -0.482  0.00  0.00    -0.336 N 
ATOM     31  C   UNL     1       9.633   5.611  -1.317  0.00  0.00    +0.129 C 
ATOM     32  C   UNL     1      11.523   3.989  -1.107  0.00  0.00    +0.129 C 
ENDBRANCH  30  10
ENDBRANCH  20  25
ENDBRANCH  13   5
BRANCH  14   3
ATOM      3  O   UNL     1      15.771   9.338   6.510  0.00  0.00    -0.442 OA
BRANCH   3  24
ATOM      4  O   UNL     1      16.791  11.211   5.655  0.00  0.00    -0.226 OA
ATOM      6  N   UNL     1      17.920   9.196   5.879  0.00  0.00    -0.278 N 
ATOM     24  C   UNL     1      16.826  10.029   5.983  0.00  0.00    +0.401 C 
ATOM     33  H   UNL     1      17.795   8.224   6.146  0.00  0.00    +0.152 HD
BRANCH   6  17
ATOM     17  C   UNL     1      19.202   9.617   5.359  0.00  0.00    +0.076 C 
ATOM     18  C   UNL     1      19.590   8.798   4.122  0.00  0.00    +0.022 C 
ATOM     19  C   UNL     1      20.287   9.539   6.438  0.00  0.00    +0.022 C 
ATOM     21  C   UNL     1      19.973   7.359   4.469  0.00  0.00    +0.002 C 
ATOM     22  C   UNL     1      20.669   8.099   6.782  0.00  0.00    +0.002 C 
ATOM     23  C   UNL     1      21.062   7.309   5.537  0.00  0.00    +0.000 C 
ENDBRANCH   6  17
ENDBRANCH   3  24
ENDBRANCH  14   3
TORSDOF 6
ENDMDL
MODEL 9
REMARK VINA RESULT:      -6.5     10.901     14.687
REMARK  Name = 11867500
REMARK  8 active torsions:
REMARK  status: ('A' for Active; 'I' for Inactive)
REMARK    1  A    between atoms: O_3  and  C_14
REMARK    2  A    between atoms: O_3  and  C_24
REMARK    3  A    between atoms: N_5  and  C_13
REMARK    4  A    between atoms: N_6  and  C_17
REMARK    5  A    between atoms: N_10  and  C_30
REMARK    6  A    between atoms: N_10  and  C_31
REMARK    7  A    between atoms: N_10  and  C_32
REMARK    8  A    between atoms: C_20  and  C_25
REMARK                            x       y       z     vdW  Elec       q    Type
REMARK                         _______ _______ _______ _____ _____    ______ ____
ROOT
ATOM      1  O   UNL     1      14.175   7.128   5.851  0.00  0.00    -0.368 OA
ATOM      2  O   UNL     1      12.323   9.346   4.753  0.00  0.00    -0.368 OA
ATOM     11  C   UNL     1      12.068   7.985   5.165  0.00  0.00    +0.177 C 
ATOM     12  C   UNL     1      13.269   7.165   4.737  0.00  0.00    +0.192 C 
ATOM     13  C   UNL     1      12.072   7.904   6.680  0.00  0.00    +0.168 C 
ATOM     14  C   UNL     1      13.829   7.970   3.588  0.00  0.00    +0.235 C 
ATOM     15  C   UNL     1      13.551   7.715   7.001  0.00  0.00    +0.190 C 
ATOM     16  C   UNL     1      13.565   9.389   4.038  0.00  0.00    +0.207 C 
ENDROOT
BRANCH  13   5
ATOM      5  N   UNL     1      11.181   6.859   7.189  0.00  0.00    -0.217 N 
ATOM      7  N   UNL     1      11.622   5.965   8.080  0.00  0.00    -0.043 NA
ATOM      8  N   UNL     1       9.483   5.577   7.581  0.00  0.00    -0.108 NA
ATOM      9  N   UNL     1      10.577   5.182   8.319  0.00  0.00    -0.023 NA
ATOM     20  C   UNL     1       9.882   6.620   6.888  0.00  0.00    +0.182 A 
BRANCH  20  25
ATOM     25  C   UNL     1       9.099   7.395   5.961  0.00  0.00    +0.021 A 
ATOM     26  C   UNL     1       8.832   6.899   4.684  0.00  0.00    +0.013 A 
ATOM     27  C   UNL     1       8.605   8.646   6.338  0.00  0.00    +0.013 A 
ATOM     28  C   UNL     1       8.072   7.650   3.788  0.00  0.00    +0.024 A 
ATOM     29  C   UNL     1       7.845   9.397   5.442  0.00  0.00    +0.024 A 
ATOM     30  C   UNL     1       7.579   8.899   4.166  0.00  0.00    +0.029 A 
BRANCH  30  10
ATOM     10  N   UNL     1       6.811   9.659   3.259  0.00  0.00    -0.336 N 
ATOM     31  C   UNL     1       5.649  10.393   3.717  0.00  0.00    +0.129 C 
ATOM     32  C   UNL     1       7.167   9.704   1.854  0.00  0.00    +0.129 C 
ENDBRANCH  30  10
ENDBRANCH  20  25
ENDBRANCH  13   5
BRANCH  14   3
ATOM      3  O   UNL     1      15.198   7.734   3.350  0.00  0.00    -0.442 OA
BRANCH   3  24
ATOM      4  O   UNL     1      16.107   7.797   1.241  0.00  0.00    -0.226 OA
ATOM      6  N   UNL     1      15.039   5.905   2.058  0.00  0.00    -0.278 N 
ATOM     24  C   UNL     1      15.506   7.201   2.130  0.00  0.00    +0.401 C 
ATOM     33  H   UNL     1      14.517   5.552   2.855  0.00  0.00    +0.152 HD
BRANCH   6  17
ATOM     17  C   UNL     1      15.202   5.057   0.899  0.00  0.00    +0.076 C 
ATOM     18  C   UNL     1      14.252   5.478  -0.229  0.00  0.00    +0.022 C 
ATOM     19  C   UNL     1      15.009   3.582   1.264  0.00  0.00    +0.022 C 
ATOM     21  C   UNL     1      12.794   5.132   0.075  0.00  0.00    +0.002 C 
ATOM     22  C   UNL     1      13.550   3.238   1.565  0.00  0.00    +0.002 C 
ATOM     23  C   UNL     1      12.627   3.656   0.424  0.00  0.00    +0.000 C 
ENDBRANCH   6  17
ENDBRANCH   3  24
ENDBRANCH  14   3
TORSDOF 6
ENDMDL
MODEL 10
REMARK VINA RESULT:      -6.3     27.121     29.380
REMARK  Name = 11867500
REMARK  8 active torsions:
REMARK  status: ('A' for Active; 'I' for Inactive)
REMARK    1  A    between atoms: O_3  and  C_14
REMARK    2  A    between atoms: O_3  and  C_24
REMARK    3  A    between atoms: N_5  and  C_13
REMARK    4  A    between atoms: N_6  and  C_17
REMARK    5  A    between atoms: N_10  and  C_30
REMARK    6  A    between atoms: N_10  and  C_31
REMARK    7  A    between atoms: N_10  and  C_32
REMARK    8  A    between atoms: C_20  and  C_25
REMARK                            x       y       z     vdW  Elec       q    Type
REMARK                         _______ _______ _______ _____ _____    ______ ____
ROOT
ATOM      1  O   UNL     1      -4.862  -9.935  15.691  0.00  0.00    -0.368 OA
ATOM      2  O   UNL     1      -5.089 -12.987  15.254  0.00  0.00    -0.368 OA
ATOM     11  C   UNL     1      -5.025 -12.181  16.451  0.00  0.00    +0.177 C 
ATOM     12  C   UNL     1      -4.072 -11.039  16.161  0.00  0.00    +0.192 C 
ATOM     13  C   UNL     1      -6.365 -11.507  16.682  0.00  0.00    +0.168 C 
ATOM     14  C   UNL     1      -3.198 -11.606  15.066  0.00  0.00    +0.235 C 
ATOM     15  C   UNL     1      -6.255 -10.244  15.835  0.00  0.00    +0.190 C 
ATOM     16  C   UNL     1      -4.179 -12.451  14.285  0.00  0.00    +0.207 C 
ENDROOT
BRANCH  13   5
ATOM      5  N   UNL     1      -6.646 -11.288  18.102  0.00  0.00    -0.217 N 
ATOM      7  N   UNL     1      -5.767 -11.670  19.035  0.00  0.00    -0.043 NA
ATOM      8  N   UNL     1      -7.555 -10.736  19.985  0.00  0.00    -0.108 NA
ATOM      9  N   UNL     1      -6.329 -11.328  20.188  0.00  0.00    -0.023 NA
ATOM     20  C   UNL     1      -7.730 -10.722  18.684  0.00  0.00    +0.182 A 
BRANCH  20  25
ATOM     25  C   UNL     1      -8.867 -10.202  17.968  0.00  0.00    +0.021 A 
ATOM     26  C   UNL     1      -9.934 -11.042  17.645  0.00  0.00    +0.013 A 
ATOM     27  C   UNL     1      -8.903  -8.857  17.595  0.00  0.00    +0.013 A 
ATOM     28  C   UNL     1     -11.035 -10.537  16.952  0.00  0.00    +0.024 A 
ATOM     29  C   UNL     1     -10.003  -8.353  16.902  0.00  0.00    +0.024 A 
ATOM     30  C   UNL     1     -11.069  -9.193  16.580  0.00  0.00    +0.029 A 
BRANCH  30  10
ATOM     10  N   UNL     1     -12.182  -8.683  15.880  0.00  0.00    -0.336 N 
ATOM     31  C   UNL     1     -12.026  -7.575  14.960  0.00  0.00    +0.129 C 
ATOM     32  C   UNL     1     -13.500  -9.253  16.082  0.00  0.00    +0.129 C 
ENDBRANCH  30  10
ENDBRANCH  20  25
ENDBRANCH  13   5
BRANCH  14   3
ATOM      3  O   UNL     1      -2.590 -10.620  14.264  0.00  0.00    -0.442 OA
BRANCH   3  24
ATOM      4  O   UNL     1      -1.477 -11.778  12.622  0.00  0.00    -0.226 OA
ATOM      6  N   UNL     1      -3.196 -10.301  12.126  0.00  0.00    -0.278 N 
ATOM     24  C   UNL     1      -2.338 -10.977  12.969  0.00  0.00    +0.401 C 
ATOM     33  H   UNL     1      -3.833  -9.630  12.547  0.00  0.00    +0.152 HD
BRANCH   6  17
ATOM     17  C   UNL     1      -3.193 -10.453  10.688  0.00  0.00    +0.076 C 
ATOM     18  C   UNL     1      -3.277  -9.090   9.991  0.00  0.00    +0.022 C 
ATOM     19  C   UNL     1      -4.322 -11.381  10.229  0.00  0.00    +0.022 C 
ATOM     21  C   UNL     1      -4.657  -8.448  10.126  0.00  0.00    +0.002 C 
ATOM     22  C   UNL     1      -5.702 -10.735  10.363  0.00  0.00    +0.002 C 
ATOM     23  C   UNL     1      -5.763  -9.387   9.652  0.00  0.00    +0.000 C 
ENDBRANCH   6  17
ENDBRANCH   3  24
ENDBRANCH  14   3
TORSDOF 6
ENDMDL
