MODEL 1
REMARK VINA RESULT:      -7.0      0.000      0.000
REMARK  Name = 45783498
REMARK  9 active torsions:
REMARK  status: ('A' for Active; 'I' for Inactive)
REMARK    1  A    between atoms: O_3  and  C_30
REMARK    2  A    between atoms: O_3  and  C_31
REMARK    3  A    between atoms: N_4  and  C_13
REMARK    4  A    between atoms: N_8  and  C_28
REMARK    5  A    between atoms: N_8  and  C_29
REMARK    6  A    between atoms: C_9  and  C_14
REMARK    7  A    between atoms: C_13  and  C_15
REMARK    8  A    between atoms: C_18  and  C_20
REMARK    9  A    between atoms: C_29  and  C_30
REMARK                            x       y       z     vdW  Elec       q    Type
REMARK                         _______ _______ _______ _____ _____    ______ ____
ROOT
ATOM      1  O   UNL     1     -15.083   3.891  24.373  0.00  0.00    -0.336 OA
ATOM      5  N   UNL     1     -15.799   4.515  22.345  0.00  0.00    -0.190 NA
ATOM      6  N   UNL     1     -14.075   4.703  23.839  0.00  0.00    -0.056 NA
ATOM     14  C   UNL     1     -16.060   3.832  23.431  0.00  0.00    +0.245 A 
ATOM     18  C   UNL     1     -14.571   5.032  22.642  0.00  0.00    +0.204 A 
ENDROOT
BRANCH  18  20
ATOM      7  N   UNL     1     -13.939   7.576  20.004  0.00  0.00    -0.240 NA
ATOM     20  C   UNL     1     -13.865   5.874  21.719  0.00  0.00    +0.041 A 
ATOM     25  C   UNL     1     -12.478   5.829  21.625  0.00  0.00    +0.016 A 
ATOM     26  C   UNL     1     -14.543   6.757  20.895  0.00  0.00    +0.124 A 
ATOM     27  C   UNL     1     -11.821   6.655  20.721  0.00  0.00    +0.044 A 
ATOM     28  C   UNL     1     -12.591   7.504  19.941  0.00  0.00    +0.119 A 
BRANCH  28   8
ATOM      8  N   UNL     1     -11.906   8.341  19.025  0.00  0.00    -0.327 N 
ATOM     32  H   UNL     1     -11.442   9.153  19.416  0.00  0.00    +0.148 HD
BRANCH   8  29
ATOM     29  C   UNL     1     -11.862   8.077  17.624  0.00  0.00    +0.131 C 
BRANCH  29  30
ATOM     30  C   UNL     1     -10.457   8.308  17.095  0.00  0.00    +0.178 C 
BRANCH  30   3
ATOM      3  O   UNL     1     -10.075   9.657  17.335  0.00  0.00    -0.381 OA
ATOM     31  C   UNL     1     -10.344  10.482  16.210  0.00  0.00    +0.194 C 
ENDBRANCH  30   3
ENDBRANCH  29  30
ENDBRANCH   8  29
ENDBRANCH  28   8
ENDBRANCH  18  20
BRANCH  14   9
ATOM      4  N   UNL     1     -17.419   2.771  25.226  0.00  0.00    -0.284 NA
ATOM      9  C   UNL     1     -17.279   3.002  23.774  0.00  0.00    +0.146 C 
ATOM     10  C   UNL     1     -18.597   3.682  23.358  0.00  0.00    +0.030 C 
ATOM     11  C   UNL     1     -19.435   3.735  24.628  0.00  0.00    +0.017 C 
ATOM     12  C   UNL     1     -18.852   2.631  25.486  0.00  0.00    +0.085 C 
BRANCH   4  13
ATOM     13  C   UNL     1     -16.660   1.619  25.698  0.00  0.00    +0.159 C 
BRANCH  13  15
ATOM      2  O   UNL     1     -16.081   0.673  27.863  0.00  0.00    -0.458 OA
ATOM     15  C   UNL     1     -16.188   1.802  27.116  0.00  0.00    +0.120 A 
ATOM     16  C   UNL     1     -15.827   2.908  27.850  0.00  0.00    +0.054 A 
ATOM     17  C   UNL     1     -15.472   2.434  29.140  0.00  0.00    +0.020 A 
ATOM     19  C   UNL     1     -15.645   1.055  29.097  0.00  0.00    +0.135 A 
ATOM     21  C   UNL     1     -15.024   3.018  30.339  0.00  0.00    +0.011 A 
ATOM     22  C   UNL     1     -15.401   0.203  30.172  0.00  0.00    +0.047 A 
ATOM     23  C   UNL     1     -14.772   2.187  31.438  0.00  0.00    +0.001 A 
ATOM     24  C   UNL     1     -14.958   0.805  31.354  0.00  0.00    +0.004 A 
ENDBRANCH  13  15
ENDBRANCH   4  13
ENDBRANCH  14   9
TORSDOF 8
ENDMDL
MODEL 2
REMARK VINA RESULT:      -7.0     27.191     31.507
REMARK  Name = 45783498
REMARK  9 active torsions:
REMARK  status: ('A' for Active; 'I' for Inactive)
REMARK    1  A    between atoms: O_3  and  C_30
REMARK    2  A    between atoms: O_3  and  C_31
REMARK    3  A    between atoms: N_4  and  C_13
REMARK    4  A    between atoms: N_8  and  C_28
REMARK    5  A    between atoms: N_8  and  C_29
REMARK    6  A    between atoms: C_9  and  C_14
REMARK    7  A    between atoms: C_13  and  C_15
REMARK    8  A    between atoms: C_18  and  C_20
REMARK    9  A    between atoms: C_29  and  C_30
REMARK                            x       y       z     vdW  Elec       q    Type
REMARK                         _______ _______ _______ _____ _____    ______ ____
ROOT
ATOM      1  O   UNL     1      14.257   6.830  20.733  0.00  0.00    -0.336 OA
ATOM      5  N   UNL     1      15.913   7.338  19.315  0.00  0.00    -0.190 NA
ATOM      6  N   UNL     1      15.446   6.701  21.463  0.00  0.00    -0.056 NA
ATOM     14  C   UNL     1      14.621   7.207  19.480  0.00  0.00    +0.245 A 
ATOM     18  C   UNL     1      16.377   7.019  20.558  0.00  0.00    +0.204 A 
ENDROOT
BRANCH  18  20
ATOM      7  N   UNL     1      19.632   8.028  22.047  0.00  0.00    -0.240 NA
ATOM     20  C   UNL     1      17.779   7.023  20.863  0.00  0.00    +0.041 A 
ATOM     25  C   UNL     1      18.636   6.078  20.309  0.00  0.00    +0.016 A 
ATOM     26  C   UNL     1      18.321   7.968  21.718  0.00  0.00    +0.124 A 
ATOM     27  C   UNL     1      19.990   6.107  20.622  0.00  0.00    +0.044 A 
ATOM     28  C   UNL     1      20.433   7.094  21.489  0.00  0.00    +0.119 A 
BRANCH  28   8
ATOM      8  N   UNL     1      21.816   7.109  21.799  0.00  0.00    -0.327 N 
ATOM     32  H   UNL     1      22.252   8.022  21.870  0.00  0.00    +0.148 HD
BRANCH   8  29
ATOM     29  C   UNL     1      22.574   5.918  22.001  0.00  0.00    +0.131 C 
BRANCH  29  30
ATOM     30  C   UNL     1      22.609   5.568  23.478  0.00  0.00    +0.178 C 
BRANCH  30   3
ATOM      3  O   UNL     1      21.965   4.317  23.684  0.00  0.00    -0.381 OA
ATOM     31  C   UNL     1      22.836   3.229  23.406  0.00  0.00    +0.194 C 
ENDBRANCH  30   3
ENDBRANCH  29  30
ENDBRANCH   8  29
ENDBRANCH  28   8
ENDBRANCH  18  20
BRANCH  14   9
ATOM      4  N   UNL     1      12.632   8.558  18.839  0.00  0.00    -0.284 NA
ATOM      9  C   UNL     1      13.499   7.416  18.485  0.00  0.00    +0.146 C 
ATOM     10  C   UNL     1      14.012   7.739  17.070  0.00  0.00    +0.030 C 
ATOM     11  C   UNL     1      13.333   9.048  16.689  0.00  0.00    +0.017 C 
ATOM     12  C   UNL     1      12.107   9.085  17.579  0.00  0.00    +0.085 C 
BRANCH   4  13
ATOM     13  C   UNL     1      11.568   8.203  19.771  0.00  0.00    +0.159 C 
BRANCH  13  15
ATOM      2  O   UNL     1      11.754  10.500  20.552  0.00  0.00    -0.458 OA
ATOM     15  C   UNL     1      11.422   9.222  20.870  0.00  0.00    +0.120 A 
ATOM     16  C   UNL     1      11.010   9.137  22.180  0.00  0.00    +0.054 A 
ATOM     17  C   UNL     1      11.090  10.451  22.710  0.00  0.00    +0.020 A 
ATOM     19  C   UNL     1      11.553  11.251  21.671  0.00  0.00    +0.135 A 
ATOM     21  C   UNL     1      10.825  11.052  23.954  0.00  0.00    +0.011 A 
ATOM     22  C   UNL     1      11.772  12.623  21.779  0.00  0.00    +0.047 A 
ATOM     23  C   UNL     1      11.037  12.430  24.093  0.00  0.00    +0.001 A 
ATOM     24  C   UNL     1      11.502  13.199  23.024  0.00  0.00    +0.004 A 
ENDBRANCH  13  15
ENDBRANCH   4  13
ENDBRANCH  14   9
TORSDOF 8
ENDMDL
MODEL 3
REMARK VINA RESULT:      -7.0      1.903      2.518
REMARK  Name = 45783498
REMARK  9 active torsions:
REMARK  status: ('A' for Active; 'I' for Inactive)
REMARK    1  A    between atoms: O_3  and  C_30
REMARK    2  A    between atoms: O_3  and  C_31
REMARK    3  A    between atoms: N_4  and  C_13
REMARK    4  A    between atoms: N_8  and  C_28
REMARK    5  A    between atoms: N_8  and  C_29
REMARK    6  A    between atoms: C_9  and  C_14
REMARK    7  A    between atoms: C_13  and  C_15
REMARK    8  A    between atoms: C_18  and  C_20
REMARK    9  A    between atoms: C_29  and  C_30
REMARK                            x       y       z     vdW  Elec       q    Type
REMARK                         _______ _______ _______ _____ _____    ______ ____
ROOT
ATOM      1  O   UNL     1     -16.715   2.366  23.875  0.00  0.00    -0.336 OA
ATOM      5  N   UNL     1     -15.330   3.992  24.547  0.00  0.00    -0.190 NA
ATOM      6  N   UNL     1     -16.331   3.054  22.716  0.00  0.00    -0.056 NA
ATOM     14  C   UNL     1     -16.082   2.983  24.907  0.00  0.00    +0.245 A 
ATOM     18  C   UNL     1     -15.514   3.997  23.195  0.00  0.00    +0.204 A 
ENDROOT
BRANCH  18  20
ATOM      7  N   UNL     1     -15.053   6.655  20.635  0.00  0.00    -0.240 NA
ATOM     20  C   UNL     1     -14.869   4.960  22.350  0.00  0.00    +0.041 A 
ATOM     25  C   UNL     1     -13.492   5.148  22.399  0.00  0.00    +0.016 A 
ATOM     26  C   UNL     1     -15.598   5.731  21.459  0.00  0.00    +0.124 A 
ATOM     27  C   UNL     1     -12.894   6.088  21.568  0.00  0.00    +0.044 A 
ATOM     28  C   UNL     1     -13.712   6.809  20.711  0.00  0.00    +0.119 A 
BRANCH  28   8
ATOM      8  N   UNL     1     -13.088   7.765  19.871  0.00  0.00    -0.327 N 
ATOM     32  H   UNL     1     -13.424   7.813  18.916  0.00  0.00    +0.148 HD
BRANCH   8  29
ATOM     29  C   UNL     1     -12.039   8.619  20.322  0.00  0.00    +0.131 C 
BRANCH  29  30
ATOM     30  C   UNL     1     -10.976   8.751  19.244  0.00  0.00    +0.178 C 
BRANCH  30   3
ATOM      3  O   UNL     1     -11.304   7.906  18.149  0.00  0.00    -0.381 OA
ATOM     31  C   UNL     1     -10.491   8.180  17.017  0.00  0.00    +0.194 C 
ENDBRANCH  30   3
ENDBRANCH  29  30
ENDBRANCH   8  29
ENDBRANCH  28   8
ENDBRANCH  18  20
BRANCH  14   9
ATOM      4  N   UNL     1     -17.419   3.126  27.000  0.00  0.00    -0.284 NA
ATOM      9  C   UNL     1     -16.336   2.418  26.289  0.00  0.00    +0.146 C 
ATOM     10  C   UNL     1     -16.786   0.947  26.256  0.00  0.00    +0.030 C 
ATOM     11  C   UNL     1     -18.100   0.915  27.025  0.00  0.00    +0.017 C 
ATOM     12  C   UNL     1     -18.029   2.148  27.902  0.00  0.00    +0.085 C 
BRANCH   4  13
ATOM     13  C   UNL     1     -16.959   4.314  27.709  0.00  0.00    +0.159 C 
BRANCH  13  15
ATOM      2  O   UNL     1     -15.075   3.590  29.067  0.00  0.00    -0.458 OA
ATOM     15  C   UNL     1     -16.378   3.974  29.056  0.00  0.00    +0.120 A 
ATOM     16  C   UNL     1     -16.900   3.965  30.328  0.00  0.00    +0.054 A 
ATOM     17  C   UNL     1     -15.850   3.549  31.189  0.00  0.00    +0.020 A 
ATOM     19  C   UNL     1     -14.750   3.330  30.366  0.00  0.00    +0.135 A 
ATOM     21  C   UNL     1     -15.708   3.331  32.571  0.00  0.00    +0.011 A 
ATOM     22  C   UNL     1     -13.504   2.909  30.823  0.00  0.00    +0.047 A 
ATOM     23  C   UNL     1     -14.466   2.905  33.060  0.00  0.00    +0.001 A 
ATOM     24  C   UNL     1     -13.385   2.698  32.200  0.00  0.00    +0.004 A 
ENDBRANCH  13  15
ENDBRANCH   4  13
ENDBRANCH  14   9
TORSDOF 8
ENDMDL
MODEL 4
REMARK VINA RESULT:      -6.9     27.243     31.508
REMARK  Name = 45783498
REMARK  9 active torsions:
REMARK  status: ('A' for Active; 'I' for Inactive)
REMARK    1  A    between atoms: O_3  and  C_30
REMARK    2  A    between atoms: O_3  and  C_31
REMARK    3  A    between atoms: N_4  and  C_13
REMARK    4  A    between atoms: N_8  and  C_28
REMARK    5  A    between atoms: N_8  and  C_29
REMARK    6  A    between atoms: C_9  and  C_14
REMARK    7  A    between atoms: C_13  and  C_15
REMARK    8  A    between atoms: C_18  and  C_20
REMARK    9  A    between atoms: C_29  and  C_30
REMARK                            x       y       z     vdW  Elec       q    Type
REMARK                         _______ _______ _______ _____ _____    ______ ____
ROOT
ATOM      1  O   UNL     1      14.504   6.763  19.710  0.00  0.00    -0.336 OA
ATOM      5  N   UNL     1      15.785   7.398  21.434  0.00  0.00    -0.190 NA
ATOM      6  N   UNL     1      15.783   6.254  19.452  0.00  0.00    -0.056 NA
ATOM     14  C   UNL     1      14.592   7.423  20.895  0.00  0.00    +0.245 A 
ATOM     18  C   UNL     1      16.481   6.670  20.514  0.00  0.00    +0.204 A 
ENDROOT
BRANCH  18  20
ATOM      7  N   UNL     1      19.950   6.809  21.846  0.00  0.00    -0.240 NA
ATOM     20  C   UNL     1      17.875   6.376  20.683  0.00  0.00    +0.041 A 
ATOM     25  C   UNL     1      18.507   5.419  19.896  0.00  0.00    +0.016 A 
ATOM     26  C   UNL     1      18.634   7.037  21.635  0.00  0.00    +0.124 A 
ATOM     27  C   UNL     1      19.859   5.157  20.082  0.00  0.00    +0.044 A 
ATOM     28  C   UNL     1      20.529   5.872  21.062  0.00  0.00    +0.119 A 
BRANCH  28   8
ATOM      8  N   UNL     1      21.908   5.592  21.241  0.00  0.00    -0.327 N 
ATOM     32  H   UNL     1      22.485   6.359  21.568  0.00  0.00    +0.148 HD
BRANCH   8  29
ATOM     29  C   UNL     1      22.474   4.310  20.976  0.00  0.00    +0.131 C 
BRANCH  29  30
ATOM     30  C   UNL     1      22.336   3.419  22.198  0.00  0.00    +0.178 C 
BRANCH  30   3
ATOM      3  O   UNL     1      23.286   2.363  22.125  0.00  0.00    -0.381 OA
ATOM     31  C   UNL     1      23.793   2.208  20.807  0.00  0.00    +0.194 C 
ENDBRANCH  30   3
ENDBRANCH  29  30
ENDBRANCH   8  29
ENDBRANCH  28   8
ENDBRANCH  18  20
BRANCH  14   9
ATOM      4  N   UNL     1      12.799   9.096  20.475  0.00  0.00    -0.284 NA
ATOM      9  C   UNL     1      13.322   8.072  21.402  0.00  0.00    +0.146 C 
ATOM     10  C   UNL     1      12.167   7.069  21.568  0.00  0.00    +0.030 C 
ATOM     11  C   UNL     1      11.019   7.642  20.748  0.00  0.00    +0.017 C 
ATOM     12  C   UNL     1      11.347   9.119  20.661  0.00  0.00    +0.085 C 
BRANCH   4  13
ATOM     13  C   UNL     1      13.398  10.410  20.673  0.00  0.00    +0.159 C 
BRANCH  13  15
ATOM      2  O   UNL     1      12.662  10.998  22.916  0.00  0.00    -0.458 OA
ATOM     15  C   UNL     1      12.571  11.272  21.589  0.00  0.00    +0.120 A 
ATOM     16  C   UNL     1      11.706  12.318  21.366  0.00  0.00    +0.054 A 
ATOM     17  C   UNL     1      11.229  12.721  22.640  0.00  0.00    +0.020 A 
ATOM     19  C   UNL     1      11.845  11.879  23.559  0.00  0.00    +0.135 A 
ATOM     21  C   UNL     1      10.343  13.704  23.119  0.00  0.00    +0.011 A 
ATOM     22  C   UNL     1      11.645  11.945  24.937  0.00  0.00    +0.047 A 
ATOM     23  C   UNL     1      10.121  13.794  24.499  0.00  0.00    +0.001 A 
ATOM     24  C   UNL     1      10.761  12.928  25.390  0.00  0.00    +0.004 A 
ENDBRANCH  13  15
ENDBRANCH   4  13
ENDBRANCH  14   9
TORSDOF 8
ENDMDL
MODEL 5
REMARK VINA RESULT:      -6.8     17.628     18.488
REMARK  Name = 45783498
REMARK  9 active torsions:
REMARK  status: ('A' for Active; 'I' for Inactive)
REMARK    1  A    between atoms: O_3  and  C_30
REMARK    2  A    between atoms: O_3  and  C_31
REMARK    3  A    between atoms: N_4  and  C_13
REMARK    4  A    between atoms: N_8  and  C_28
REMARK    5  A    between atoms: N_8  and  C_29
REMARK    6  A    between atoms: C_9  and  C_14
REMARK    7  A    between atoms: C_13  and  C_15
REMARK    8  A    between atoms: C_18  and  C_20
REMARK    9  A    between atoms: C_29  and  C_30
REMARK                            x       y       z     vdW  Elec       q    Type
REMARK                         _______ _______ _______ _____ _____    ______ ____
ROOT
ATOM      1  O   UNL     1      -9.357 -11.178  20.296  0.00  0.00    -0.336 OA
ATOM      5  N   UNL     1      -9.152 -10.796  18.099  0.00  0.00    -0.190 NA
ATOM      6  N   UNL     1      -7.984 -11.053  20.050  0.00  0.00    -0.056 NA
ATOM     14  C   UNL     1      -9.972 -11.014  19.096  0.00  0.00    +0.245 A 
ATOM     18  C   UNL     1      -7.944 -10.828  18.733  0.00  0.00    +0.204 A 
ENDROOT
BRANCH  18  20
ATOM      7  N   UNL     1      -5.542  -9.634  16.157  0.00  0.00    -0.240 NA
ATOM     20  C   UNL     1      -6.714 -10.635  18.020  0.00  0.00    +0.041 A 
ATOM     25  C   UNL     1      -5.532 -11.222  18.458  0.00  0.00    +0.016 A 
ATOM     26  C   UNL     1      -6.667  -9.857  16.875  0.00  0.00    +0.124 A 
ATOM     27  C   UNL     1      -4.356 -11.017  17.747  0.00  0.00    +0.044 A 
ATOM     28  C   UNL     1      -4.414 -10.222  16.613  0.00  0.00    +0.119 A 
BRANCH  28   8
ATOM      8  N   UNL     1      -3.205 -10.021  15.900  0.00  0.00    -0.327 N 
ATOM     32  H   UNL     1      -3.117  -9.144  15.399  0.00  0.00    +0.148 HD
BRANCH   8  29
ATOM     29  C   UNL     1      -2.159 -10.989  15.870  0.00  0.00    +0.131 C 
BRANCH  29  30
ATOM     30  C   UNL     1      -2.154 -11.709  14.532  0.00  0.00    +0.178 C 
BRANCH  30   3
ATOM      3  O   UNL     1      -2.579 -10.815  13.511  0.00  0.00    -0.381 OA
ATOM     31  C   UNL     1      -1.976 -11.124  12.263  0.00  0.00    +0.194 C 
ENDBRANCH  30   3
ENDBRANCH  29  30
ENDBRANCH   8  29
ENDBRANCH  28   8
ENDBRANCH  18  20
BRANCH  14   9
ATOM      4  N   UNL     1     -12.016 -11.737  20.319  0.00  0.00    -0.284 NA
ATOM      9  C   UNL     1     -11.484 -11.105  19.095  0.00  0.00    +0.146 C 
ATOM     10  C   UNL     1     -12.162  -9.724  19.042  0.00  0.00    +0.030 C 
ATOM     11  C   UNL     1     -13.101  -9.695  20.241  0.00  0.00    +0.017 C 
ATOM     12  C   UNL     1     -13.343 -11.161  20.539  0.00  0.00    +0.085 C 
BRANCH   4  13
ATOM     13  C   UNL     1     -12.055 -13.193  20.242  0.00  0.00    +0.159 C 
BRANCH  13  15
ATOM      2  O   UNL     1     -10.358 -14.289  21.595  0.00  0.00    -0.458 OA
ATOM     15  C   UNL     1     -11.636 -13.835  21.537  0.00  0.00    +0.120 A 
ATOM     16  C   UNL     1     -12.292 -14.072  22.723  0.00  0.00    +0.054 A 
ATOM     17  C   UNL     1     -11.357 -14.716  23.575  0.00  0.00    +0.020 A 
ATOM     19  C   UNL     1     -10.185 -14.828  22.836  0.00  0.00    +0.135 A 
ATOM     21  C   UNL     1     -11.373 -15.219  24.888  0.00  0.00    +0.011 A 
ATOM     22  C   UNL     1      -9.011 -15.408  23.313  0.00  0.00    +0.047 A 
ATOM     23  C   UNL     1     -10.208 -15.810  25.396  0.00  0.00    +0.001 A 
ATOM     24  C   UNL     1      -9.050 -15.902  24.621  0.00  0.00    +0.004 A 
ENDBRANCH  13  15
ENDBRANCH   4  13
ENDBRANCH  14   9
TORSDOF 8
ENDMDL
MODEL 6
REMARK VINA RESULT:      -6.7      2.408     10.345
REMARK  Name = 45783498
REMARK  9 active torsions:
REMARK  status: ('A' for Active; 'I' for Inactive)
REMARK    1  A    between atoms: O_3  and  C_30
REMARK    2  A    between atoms: O_3  and  C_31
REMARK    3  A    between atoms: N_4  and  C_13
REMARK    4  A    between atoms: N_8  and  C_28
REMARK    5  A    between atoms: N_8  and  C_29
REMARK    6  A    between atoms: C_9  and  C_14
REMARK    7  A    between atoms: C_13  and  C_15
REMARK    8  A    between atoms: C_18  and  C_20
REMARK    9  A    between atoms: C_29  and  C_30
REMARK                            x       y       z     vdW  Elec       q    Type
REMARK                         _______ _______ _______ _____ _____    ______ ____
ROOT
ATOM      1  O   UNL     1     -17.996   5.002  24.050  0.00  0.00    -0.336 OA
ATOM      5  N   UNL     1     -15.949   4.343  24.674  0.00  0.00    -0.190 NA
ATOM      6  N   UNL     1     -18.180   4.150  25.147  0.00  0.00    -0.056 NA
ATOM     14  C   UNL     1     -16.656   5.061  23.838  0.00  0.00    +0.245 A 
ATOM     18  C   UNL     1     -16.927   3.804  25.458  0.00  0.00    +0.204 A 
ENDROOT
BRANCH  18  20
ATOM      7  N   UNL     1     -16.556   0.666  27.420  0.00  0.00    -0.240 NA
ATOM     20  C   UNL     1     -16.619   2.919  26.545  0.00  0.00    +0.041 A 
ATOM     25  C   UNL     1     -16.104   3.406  27.742  0.00  0.00    +0.016 A 
ATOM     26  C   UNL     1     -16.825   1.554  26.435  0.00  0.00    +0.124 A 
ATOM     27  C   UNL     1     -15.817   2.525  28.778  0.00  0.00    +0.044 A 
ATOM     28  C   UNL     1     -16.058   1.177  28.568  0.00  0.00    +0.119 A 
BRANCH  28   8
ATOM      8  N   UNL     1     -15.758   0.291  29.633  0.00  0.00    -0.327 N 
ATOM     32  H   UNL     1     -16.545  -0.041  30.178  0.00  0.00    +0.148 HD
BRANCH   8  29
ATOM     29  C   UNL     1     -14.427  -0.119  29.942  0.00  0.00    +0.131 C 
BRANCH  29  30
ATOM     30  C   UNL     1     -13.940   0.594  31.191  0.00  0.00    +0.178 C 
BRANCH  30   3
ATOM      3  O   UNL     1     -15.056   1.077  31.928  0.00  0.00    -0.381 OA
ATOM     31  C   UNL     1     -14.674   1.528  33.219  0.00  0.00    +0.194 C 
ENDBRANCH  30   3
ENDBRANCH  29  30
ENDBRANCH   8  29
ENDBRANCH  28   8
ENDBRANCH  18  20
BRANCH  14   9
ATOM      4  N   UNL     1     -15.337   5.200  21.732  0.00  0.00    -0.284 NA
ATOM      9  C   UNL     1     -16.191   5.932  22.689  0.00  0.00    +0.146 C 
ATOM     10  C   UNL     1     -17.359   6.467  21.840  0.00  0.00    +0.030 C 
ATOM     11  C   UNL     1     -17.043   6.040  20.413  0.00  0.00    +0.017 C 
ATOM     12  C   UNL     1     -15.542   5.833  20.428  0.00  0.00    +0.085 C 
BRANCH   4  13
ATOM     13  C   UNL     1     -13.931   5.180  22.117  0.00  0.00    +0.159 C 
BRANCH  13  15
ATOM      2  O   UNL     1     -13.544   7.577  21.964  0.00  0.00    -0.458 OA
ATOM     15  C   UNL     1     -13.173   6.344  21.534  0.00  0.00    +0.120 A 
ATOM     16  C   UNL     1     -12.146   6.432  20.623  0.00  0.00    +0.054 A 
ATOM     17  C   UNL     1     -11.859   7.815  20.478  0.00  0.00    +0.020 A 
ATOM     19  C   UNL     1     -12.745   8.476  21.322  0.00  0.00    +0.135 A 
ATOM     21  C   UNL     1     -10.950   8.580  19.726  0.00  0.00    +0.011 A 
ATOM     22  C   UNL     1     -12.792   9.860  21.477  0.00  0.00    +0.047 A 
ATOM     23  C   UNL     1     -10.974   9.975  19.859  0.00  0.00    +0.001 A 
ATOM     24  C   UNL     1     -11.879  10.601  20.719  0.00  0.00    +0.004 A 
ENDBRANCH  13  15
ENDBRANCH   4  13
ENDBRANCH  14   9
TORSDOF 8
ENDMDL
MODEL 7
REMARK VINA RESULT:      -6.7     29.706     33.605
REMARK  Name = 45783498
REMARK  9 active torsions:
REMARK  status: ('A' for Active; 'I' for Inactive)
REMARK    1  A    between atoms: O_3  and  C_30
REMARK    2  A    between atoms: O_3  and  C_31
REMARK    3  A    between atoms: N_4  and  C_13
REMARK    4  A    between atoms: N_8  and  C_28
REMARK    5  A    between atoms: N_8  and  C_29
REMARK    6  A    between atoms: C_9  and  C_14
REMARK    7  A    between atoms: C_13  and  C_15
REMARK    8  A    between atoms: C_18  and  C_20
REMARK    9  A    between atoms: C_29  and  C_30
REMARK                            x       y       z     vdW  Elec       q    Type
REMARK                         _______ _______ _______ _____ _____    ______ ____
ROOT
ATOM      1  O   UNL     1      19.812   7.701  21.575  0.00  0.00    -0.336 OA
ATOM      5  N   UNL     1      18.702   5.928  20.778  0.00  0.00    -0.190 NA
ATOM      6  N   UNL     1      18.495   8.129  21.368  0.00  0.00    -0.056 NA
ATOM     14  C   UNL     1      19.849   6.395  21.203  0.00  0.00    +0.245 A 
ATOM     18  C   UNL     1      17.903   7.027  20.898  0.00  0.00    +0.204 A 
ENDROOT
BRANCH  18  20
ATOM      7  N   UNL     1      14.830   6.617  18.842  0.00  0.00    -0.240 NA
ATOM     20  C   UNL     1      16.514   6.992  20.536  0.00  0.00    +0.041 A 
ATOM     25  C   UNL     1      15.524   7.283  21.468  0.00  0.00    +0.016 A 
ATOM     26  C   UNL     1      16.120   6.668  19.249  0.00  0.00    +0.124 A 
ATOM     27  C   UNL     1      14.187   7.242  21.088  0.00  0.00    +0.044 A 
ATOM     28  C   UNL     1      13.896   6.906  19.775  0.00  0.00    +0.119 A 
BRANCH  28   8
ATOM      8  N   UNL     1      12.528   6.867  19.404  0.00  0.00    -0.327 N 
ATOM     32  H   UNL     1      12.070   5.965  19.465  0.00  0.00    +0.148 HD
BRANCH   8  29
ATOM     29  C   UNL     1      11.817   8.021  18.962  0.00  0.00    +0.131 C 
BRANCH  29  30
ATOM     30  C   UNL     1      10.998   8.596  20.104  0.00  0.00    +0.178 C 
BRANCH  30   3
ATOM      3  O   UNL     1      10.547   7.540  20.944  0.00  0.00    -0.381 OA
ATOM     31  C   UNL     1      10.634   7.893  22.317  0.00  0.00    +0.194 C 
ENDBRANCH  30   3
ENDBRANCH  29  30
ENDBRANCH   8  29
ENDBRANCH  28   8
ENDBRANCH  18  20
BRANCH  14   9
ATOM      4  N   UNL     1      21.529   5.390  22.739  0.00  0.00    -0.284 NA
ATOM      9  C   UNL     1      21.183   5.693  21.336  0.00  0.00    +0.146 C 
ATOM     10  C   UNL     1      21.209   4.327  20.625  0.00  0.00    +0.030 C 
ATOM     11  C   UNL     1      21.637   3.330  21.693  0.00  0.00    +0.017 C 
ATOM     12  C   UNL     1      22.361   4.187  22.711  0.00  0.00    +0.085 C 
BRANCH   4  13
ATOM     13  C   UNL     1      22.189   6.499  23.419  0.00  0.00    +0.159 C 
BRANCH  13  15
ATOM      2  O   UNL     1      21.728   5.743  25.684  0.00  0.00    -0.458 OA
ATOM     15  C   UNL     1      21.603   6.750  24.783  0.00  0.00    +0.120 A 
ATOM     16  C   UNL     1      20.940   7.821  25.337  0.00  0.00    +0.054 A 
ATOM     17  C   UNL     1      20.634   7.454  26.673  0.00  0.00    +0.020 A 
ATOM     19  C   UNL     1      21.139   6.168  26.837  0.00  0.00    +0.135 A 
ATOM     21  C   UNL     1      19.986   8.065  27.761  0.00  0.00    +0.011 A 
ATOM     22  C   UNL     1      21.046   5.437  28.020  0.00  0.00    +0.047 A 
ATOM     23  C   UNL     1      19.876   7.354  28.964  0.00  0.00    +0.001 A 
ATOM     24  C   UNL     1      20.397   6.064  29.088  0.00  0.00    +0.004 A 
ENDBRANCH  13  15
ENDBRANCH   4  13
ENDBRANCH  14   9
TORSDOF 8
ENDMDL
MODEL 8
REMARK VINA RESULT:      -6.6     17.615     19.487
REMARK  Name = 45783498
REMARK  9 active torsions:
REMARK  status: ('A' for Active; 'I' for Inactive)
REMARK    1  A    between atoms: O_3  and  C_30
REMARK    2  A    between atoms: O_3  and  C_31
REMARK    3  A    between atoms: N_4  and  C_13
REMARK    4  A    between atoms: N_8  and  C_28
REMARK    5  A    between atoms: N_8  and  C_29
REMARK    6  A    between atoms: C_9  and  C_14
REMARK    7  A    between atoms: C_13  and  C_15
REMARK    8  A    between atoms: C_18  and  C_20
REMARK    9  A    between atoms: C_29  and  C_30
REMARK                            x       y       z     vdW  Elec       q    Type
REMARK                         _______ _______ _______ _____ _____    ______ ____
ROOT
ATOM      1  O   UNL     1      -8.963 -11.907  16.484  0.00  0.00    -0.336 OA
ATOM      5  N   UNL     1      -8.092  -9.848  16.373  0.00  0.00    -0.190 NA
ATOM      6  N   UNL     1     -10.006 -11.066  16.075  0.00  0.00    -0.056 NA
ATOM     14  C   UNL     1      -7.873 -11.111  16.637  0.00  0.00    +0.245 A 
ATOM     18  C   UNL     1      -9.413  -9.869  16.032  0.00  0.00    +0.204 A 
ENDROOT
BRANCH  18  20
ATOM      7  N   UNL     1     -11.600  -7.552  14.114  0.00  0.00    -0.240 NA
ATOM     20  C   UNL     1     -10.113  -8.674  15.654  0.00  0.00    +0.041 A 
ATOM     25  C   UNL     1     -10.007  -7.513  16.411  0.00  0.00    +0.016 A 
ATOM     26  C   UNL     1     -10.914  -8.643  14.525  0.00  0.00    +0.124 A 
ATOM     27  C   UNL     1     -10.696  -6.370  16.021  0.00  0.00    +0.044 A 
ATOM     28  C   UNL     1     -11.472  -6.442  14.875  0.00  0.00    +0.119 A 
BRANCH  28   8
ATOM      8  N   UNL     1     -12.170  -5.269  14.491  0.00  0.00    -0.327 N 
ATOM     32  H   UNL     1     -11.644  -4.403  14.516  0.00  0.00    +0.148 HD
BRANCH   8  29
ATOM     29  C   UNL     1     -13.539  -5.283  14.091  0.00  0.00    +0.131 C 
BRANCH  29  30
ATOM     30  C   UNL     1     -13.762  -4.289  12.964  0.00  0.00    +0.178 C 
BRANCH  30   3
ATOM      3  O   UNL     1     -12.629  -3.436  12.853  0.00  0.00    -0.381 OA
ATOM     31  C   UNL     1     -12.125  -3.408  11.525  0.00  0.00    +0.194 C 
ENDBRANCH  30   3
ENDBRANCH  29  30
ENDBRANCH   8  29
ENDBRANCH  28   8
ENDBRANCH  18  20
BRANCH  14   9
ATOM      4  N   UNL     1      -5.422 -11.365  16.294  0.00  0.00    -0.284 NA
ATOM      9  C   UNL     1      -6.596 -11.793  17.081  0.00  0.00    +0.146 C 
ATOM     10  C   UNL     1      -6.227 -11.472  18.540  0.00  0.00    +0.030 C 
ATOM     11  C   UNL     1      -4.807 -10.925  18.481  0.00  0.00    +0.017 C 
ATOM     12  C   UNL     1      -4.264 -11.484  17.182  0.00  0.00    +0.085 C 
BRANCH   4  13
ATOM     13  C   UNL     1      -5.249 -12.125  15.062  0.00  0.00    +0.159 C 
BRANCH  13  15
ATOM      2  O   UNL     1      -3.929 -11.309  13.189  0.00  0.00    -0.458 OA
ATOM     15  C   UNL     1      -5.104 -11.225  13.864  0.00  0.00    +0.120 A 
ATOM     16  C   UNL     1      -5.936 -10.297  13.281  0.00  0.00    +0.054 A 
ATOM     17  C   UNL     1      -5.229  -9.770  12.168  0.00  0.00    +0.020 A 
ATOM     19  C   UNL     1      -4.002 -10.424  12.155  0.00  0.00    +0.135 A 
ATOM     21  C   UNL     1      -5.491  -8.813  11.171  0.00  0.00    +0.011 A 
ATOM     22  C   UNL     1      -3.004 -10.194  11.210  0.00  0.00    +0.047 A 
ATOM     23  C   UNL     1      -4.506  -8.559  10.208  0.00  0.00    +0.001 A 
ATOM     24  C   UNL     1      -3.285  -9.238  10.229  0.00  0.00    +0.004 A 
ENDBRANCH  13  15
ENDBRANCH   4  13
ENDBRANCH  14   9
TORSDOF 8
ENDMDL
MODEL 9
REMARK VINA RESULT:      -6.6     26.964     29.960
REMARK  Name = 45783498
REMARK  9 active torsions:
REMARK  status: ('A' for Active; 'I' for Inactive)
REMARK    1  A    between atoms: O_3  and  C_30
REMARK    2  A    between atoms: O_3  and  C_31
REMARK    3  A    between atoms: N_4  and  C_13
REMARK    4  A    between atoms: N_8  and  C_28
REMARK    5  A    between atoms: N_8  and  C_29
REMARK    6  A    between atoms: C_9  and  C_14
REMARK    7  A    between atoms: C_13  and  C_15
REMARK    8  A    between atoms: C_18  and  C_20
REMARK    9  A    between atoms: C_29  and  C_30
REMARK                            x       y       z     vdW  Elec       q    Type
REMARK                         _______ _______ _______ _____ _____    ______ ____
ROOT
ATOM      1  O   UNL     1      11.942   6.964  21.470  0.00  0.00    -0.336 OA
ATOM      5  N   UNL     1      13.092   8.881  21.340  0.00  0.00    -0.190 NA
ATOM      6  N   UNL     1      11.141   7.939  22.077  0.00  0.00    -0.056 NA
ATOM     14  C   UNL     1      13.071   7.601  21.065  0.00  0.00    +0.245 A 
ATOM     18  C   UNL     1      11.887   9.042  21.960  0.00  0.00    +0.204 A 
ENDROOT
BRANCH  18  20
ATOM      7  N   UNL     1      10.515  11.626  24.256  0.00  0.00    -0.240 NA
ATOM     20  C   UNL     1      11.458  10.319  22.453  0.00  0.00    +0.041 A 
ATOM     25  C   UNL     1      11.554  11.461  21.666  0.00  0.00    +0.016 A 
ATOM     26  C   UNL     1      10.937  10.454  23.730  0.00  0.00    +0.124 A 
ATOM     27  C   UNL     1      11.130  12.685  22.170  0.00  0.00    +0.044 A 
ATOM     28  C   UNL     1      10.623  12.714  23.460  0.00  0.00    +0.119 A 
BRANCH  28   8
ATOM      8  N   UNL     1      10.197  13.969  23.961  0.00  0.00    -0.327 N 
ATOM     32  H   UNL     1       9.198  14.090  24.084  0.00  0.00    +0.148 HD
BRANCH   8  29
ATOM     29  C   UNL     1      11.106  15.022  24.277  0.00  0.00    +0.131 C 
BRANCH  29  30
ATOM     30  C   UNL     1      11.960  14.630  25.470  0.00  0.00    +0.178 C 
BRANCH  30   3
ATOM      3  O   UNL     1      13.309  14.459  25.052  0.00  0.00    -0.381 OA
ATOM     31  C   UNL     1      13.752  13.125  25.254  0.00  0.00    +0.194 C 
ENDBRANCH  30   3
ENDBRANCH  29  30
ENDBRANCH   8  29
ENDBRANCH  28   8
ENDBRANCH  18  20
BRANCH  14   9
ATOM      4  N   UNL     1      14.796   7.472  19.276  0.00  0.00    -0.284 NA
ATOM      9  C   UNL     1      14.113   6.751  20.369  0.00  0.00    +0.146 C 
ATOM     10  C   UNL     1      15.247   6.309  21.312  0.00  0.00    +0.030 C 
ATOM     11  C   UNL     1      16.530   6.772  20.638  0.00  0.00    +0.017 C 
ATOM     12  C   UNL     1      16.140   6.901  19.179  0.00  0.00    +0.085 C 
BRANCH   4  13
ATOM     13  C   UNL     1      14.078   7.405  18.008  0.00  0.00    +0.159 C 
BRANCH  13  15
ATOM      2  O   UNL     1      14.314   9.826  18.034  0.00  0.00    -0.458 OA
ATOM     15  C   UNL     1      14.112   8.719  17.274  0.00  0.00    +0.120 A 
ATOM     16  C   UNL     1      13.975   9.056  15.947  0.00  0.00    +0.054 A 
ATOM     17  C   UNL     1      14.102  10.468  15.878  0.00  0.00    +0.020 A 
ATOM     19  C   UNL     1      14.308  10.894  17.186  0.00  0.00    +0.135 A 
ATOM     21  C   UNL     1      14.064  11.433  14.856  0.00  0.00    +0.011 A 
ATOM     22  C   UNL     1      14.483  12.225  17.556  0.00  0.00    +0.047 A 
ATOM     23  C   UNL     1      14.236  12.781  15.198  0.00  0.00    +0.001 A 
ATOM     24  C   UNL     1      14.441  13.168  16.524  0.00  0.00    +0.004 A 
ENDBRANCH  13  15
ENDBRANCH   4  13
ENDBRANCH  14   9
TORSDOF 8
ENDMDL
MODEL 10
REMARK VINA RESULT:      -6.6      6.084     10.403
REMARK  Name = 45783498
REMARK  9 active torsions:
REMARK  status: ('A' for Active; 'I' for Inactive)
REMARK    1  A    between atoms: O_3  and  C_30
REMARK    2  A    between atoms: O_3  and  C_31
REMARK    3  A    between atoms: N_4  and  C_13
REMARK    4  A    between atoms: N_8  and  C_28
REMARK    5  A    between atoms: N_8  and  C_29
REMARK    6  A    between atoms: C_9  and  C_14
REMARK    7  A    between atoms: C_13  and  C_15
REMARK    8  A    between atoms: C_18  and  C_20
REMARK    9  A    between atoms: C_29  and  C_30
REMARK                            x       y       z     vdW  Elec       q    Type
REMARK                         _______ _______ _______ _____ _____    ______ ____
ROOT
ATOM      1  O   UNL     1     -12.090  11.924  19.160  0.00  0.00    -0.336 OA
ATOM      5  N   UNL     1     -11.227  10.357  20.506  0.00  0.00    -0.190 NA
ATOM      6  N   UNL     1     -12.774  12.038  20.377  0.00  0.00    -0.056 NA
ATOM     14  C   UNL     1     -11.199  10.911  19.321  0.00  0.00    +0.245 A 
ATOM     18  C   UNL     1     -12.207  11.082  21.119  0.00  0.00    +0.204 A 
ENDROOT
BRANCH  18  20
ATOM      7  N   UNL     1     -12.284  11.249  24.833  0.00  0.00    -0.240 NA
ATOM     20  C   UNL     1     -12.600  10.823  22.475  0.00  0.00    +0.041 A 
ATOM     25  C   UNL     1     -13.632   9.937  22.765  0.00  0.00    +0.016 A 
ATOM     26  C   UNL     1     -11.964  11.447  23.534  0.00  0.00    +0.124 A 
ATOM     27  C   UNL     1     -13.990   9.705  24.088  0.00  0.00    +0.044 A 
ATOM     28  C   UNL     1     -13.291  10.380  25.076  0.00  0.00    +0.119 A 
BRANCH  28   8
ATOM      8  N   UNL     1     -13.669  10.134  26.420  0.00  0.00    -0.327 N 
ATOM     32  H   UNL     1     -14.437   9.488  26.561  0.00  0.00    +0.148 HD
BRANCH   8  29
ATOM     29  C   UNL     1     -13.021  10.755  27.529  0.00  0.00    +0.131 C 
BRANCH  29  30
ATOM     30  C   UNL     1     -11.786   9.963  27.920  0.00  0.00    +0.178 C 
BRANCH  30   3
ATOM      3  O   UNL     1     -11.327  10.398  29.193  0.00  0.00    -0.381 OA
ATOM     31  C   UNL     1     -12.270  10.108  30.215  0.00  0.00    +0.194 C 
ENDBRANCH  30   3
ENDBRANCH  29  30
ENDBRANCH   8  29
ENDBRANCH  28   8
ENDBRANCH  18  20
BRANCH  14   9
ATOM      4  N   UNL     1     -10.949   9.606  17.217  0.00  0.00    -0.284 NA
ATOM      9  C   UNL     1     -10.324  10.586  18.128  0.00  0.00    +0.146 C 
ATOM     10  C   UNL     1     -10.042  11.815  17.245  0.00  0.00    +0.030 C 
ATOM     11  C   UNL     1     -10.484  11.411  15.846  0.00  0.00    +0.017 C 
ATOM     12  C   UNL     1     -10.432   9.897  15.879  0.00  0.00    +0.085 C 
BRANCH   4  13
ATOM     13  C   UNL     1     -10.708   8.223  17.610  0.00  0.00    +0.159 C 
BRANCH  13  15
ATOM      2  O   UNL     1     -12.967   8.114  18.507  0.00  0.00    -0.458 OA
ATOM     15  C   UNL     1     -11.665   7.769  18.680  0.00  0.00    +0.120 A 
ATOM     16  C   UNL     1     -11.502   7.052  19.843  0.00  0.00    +0.054 A 
ATOM     17  C   UNL     1     -12.789   6.945  20.431  0.00  0.00    +0.020 A 
ATOM     19  C   UNL     1     -13.655   7.614  19.572  0.00  0.00    +0.135 A 
ATOM     21  C   UNL     1     -13.318   6.358  21.594  0.00  0.00    +0.011 A 
ATOM     22  C   UNL     1     -15.025   7.742  19.787  0.00  0.00    +0.047 A 
ATOM     23  C   UNL     1     -14.693   6.470  21.838  0.00  0.00    +0.001 A 
ATOM     24  C   UNL     1     -15.529   7.151  20.950  0.00  0.00    +0.004 A 
ENDBRANCH  13  15
ENDBRANCH   4  13
ENDBRANCH  14   9
TORSDOF 8
ENDMDL
