MODEL 1
REMARK VINA RESULT:      -7.1      0.000      0.000
REMARK  Name = 38028961
REMARK  9 active torsions:
REMARK  status: ('A' for Active; 'I' for Inactive)
REMARK    1  A    between atoms: N_4  and  C_16
REMARK    2  A    between atoms: C_8  and  C_12
REMARK    3  A    between atoms: C_9  and  C_16
REMARK    4  A    between atoms: C_11  and  C_15
REMARK    5  A    between atoms: C_12  and  C_17
REMARK    6  A    between atoms: C_12  and  C_18
REMARK    7  A    between atoms: C_13  and  C_19
REMARK    8  A    between atoms: C_15  and  C_20
REMARK    9  A    between atoms: C_25  and  C_27
REMARK                            x       y       z     vdW  Elec       q    Type
REMARK                         _______ _______ _______ _____ _____    ______ ____
ROOT
ATOM      8  C   UNL     1      -2.902 -12.347  12.632  0.00  0.00    +0.000 C 
ATOM      9  C   UNL     1      -1.918 -11.161  12.464  0.00  0.00    +0.032 C 
ATOM     10  C   UNL     1      -3.459 -12.778  11.266  0.00  0.00    +0.012 C 
ATOM     11  C   UNL     1      -4.194 -11.630  10.548  0.00  0.00    +0.023 C 
ATOM     13  C   UNL     1      -3.393 -10.343  10.577  0.00  0.00    -0.073 C 
ATOM     14  C   UNL     1      -2.372 -10.157  11.431  0.00  0.00    -0.022 C 
ATOM     19  C   UNL     1      -3.766  -9.292   9.570  0.00  0.00    +0.039 C 
ENDROOT
BRANCH   8  12
ATOM     12  C   UNL     1      -2.240 -13.543  13.323  0.00  0.00    -0.013 C 
ATOM     17  C   UNL     1      -2.096 -14.708  12.348  0.00  0.00    +0.007 C 
ATOM     18  C   UNL     1      -3.045 -13.960  14.550  0.00  0.00    +0.007 C 
ENDBRANCH   8  12
BRANCH  11  15
ATOM     15  C   UNL     1      -5.594 -11.419  11.134  0.00  0.00    +0.103 C 
BRANCH  15  20
ATOM      1  O   UNL     1      -6.710 -12.754   9.520  0.00  0.00    -0.276 OA
ATOM      3  N   UNL     1      -7.467 -10.571   9.770  0.00  0.00    -0.298 N 
ATOM      5  N   UNL     1      -9.380  -8.468   9.225  0.00  0.00    -0.312 N 
ATOM      6  N   UNL     1      -9.889  -6.262   8.552  0.00  0.00    -0.240 NA
ATOM     20  C   UNL     1      -6.638 -11.653  10.069  0.00  0.00    +0.216 C 
ATOM     21  C   UNL     1      -7.386  -9.267  10.432  0.00  0.00    +0.126 C 
ATOM     22  C   UNL     1      -8.499 -10.717   8.747  0.00  0.00    +0.126 C 
ATOM     23  C   UNL     1      -8.002  -8.142   9.601  0.00  0.00    +0.125 C 
ATOM     24  C   UNL     1      -9.738  -9.880   9.062  0.00  0.00    +0.125 C 
ATOM     26  C   UNL     1     -10.319  -7.466   8.993  0.00  0.00    +0.121 A 
ATOM     28  C   UNL     1     -11.648  -7.773   9.235  0.00  0.00    +0.043 A 
ATOM     30  C   UNL     1     -12.597  -6.783   9.008  0.00  0.00    +0.005 A 
ATOM     31  C   UNL     1     -10.840  -5.325   8.342  0.00  0.00    +0.113 A 
ATOM     32  C   UNL     1     -12.193  -5.532   8.553  0.00  0.00    +0.020 A 
ENDBRANCH  15  20
ENDBRANCH  11  15
BRANCH   9  16
ATOM     16  C   UNL     1      -1.680 -10.448  13.800  0.00  0.00    +0.112 C 
BRANCH  16   4
ATOM      2  O   UNL     1      -2.012 -10.896  16.617  0.00  0.00    -0.269 OA
ATOM      4  N   UNL     1      -2.896 -10.343  14.543  0.00  0.00    -0.310 N 
ATOM     25  C   UNL     1      -2.970 -10.579  15.916  0.00  0.00    +0.262 C 
ATOM     36  H   UNL     1      -3.737 -10.045  14.057  0.00  0.00    +0.149 HD
BRANCH  25  27
ATOM      7  N   UNL     1      -5.261  -9.867  15.771  0.00  0.00    -0.250 NA
ATOM     27  C   UNL     1      -4.313 -10.455  16.536  0.00  0.00    +0.125 A 
ATOM     29  C   UNL     1      -4.536 -10.925  17.821  0.00  0.00    +0.033 A 
ATOM     33  C   UNL     1      -5.812 -10.785  18.353  0.00  0.00    +0.004 A 
ATOM     34  C   UNL     1      -6.489  -9.748  16.322  0.00  0.00    +0.111 A 
ATOM     35  C   UNL     1      -6.813 -10.185  17.596  0.00  0.00    +0.020 A 
ENDBRANCH  25  27
ENDBRANCH  16   4
ENDBRANCH   9  16
TORSDOF 6
ENDMDL
MODEL 2
REMARK VINA RESULT:      -7.0      4.352     10.446
REMARK  Name = 38028961
REMARK  9 active torsions:
REMARK  status: ('A' for Active; 'I' for Inactive)
REMARK    1  A    between atoms: N_4  and  C_16
REMARK    2  A    between atoms: C_8  and  C_12
REMARK    3  A    between atoms: C_9  and  C_16
REMARK    4  A    between atoms: C_11  and  C_15
REMARK    5  A    between atoms: C_12  and  C_17
REMARK    6  A    between atoms: C_12  and  C_18
REMARK    7  A    between atoms: C_13  and  C_19
REMARK    8  A    between atoms: C_15  and  C_20
REMARK    9  A    between atoms: C_25  and  C_27
REMARK                            x       y       z     vdW  Elec       q    Type
REMARK                         _______ _______ _______ _____ _____    ______ ____
ROOT
ATOM      8  C   UNL     1     -10.209  -8.893  16.020  0.00  0.00    +0.000 C 
ATOM      9  C   UNL     1     -11.478  -8.037  16.262  0.00  0.00    +0.032 C 
ATOM     10  C   UNL     1     -10.473 -10.360  16.393  0.00  0.00    +0.012 C 
ATOM     11  C   UNL     1     -10.897 -10.520  17.865  0.00  0.00    +0.023 C 
ATOM     13  C   UNL     1     -11.967  -9.520  18.255  0.00  0.00    -0.073 C 
ATOM     14  C   UNL     1     -12.221  -8.423  17.519  0.00  0.00    -0.022 C 
ATOM     19  C   UNL     1     -12.769  -9.832  19.487  0.00  0.00    +0.039 C 
ENDROOT
BRANCH   8  12
ATOM     12  C   UNL     1      -9.731  -8.805  14.567  0.00  0.00    -0.013 C 
ATOM     17  C   UNL     1     -10.858  -9.188  13.613  0.00  0.00    +0.007 C 
ATOM     18  C   UNL     1      -8.514  -9.699  14.353  0.00  0.00    +0.007 C 
ENDBRANCH   8  12
BRANCH  11  15
ATOM     15  C   UNL     1      -9.688 -10.424  18.802  0.00  0.00    +0.103 C 
BRANCH  15  20
ATOM      1  O   UNL     1      -9.383 -12.746  19.190  0.00  0.00    -0.276 OA
ATOM      3  N   UNL     1      -7.618 -11.616  18.186  0.00  0.00    -0.298 N 
ATOM      5  N   UNL     1      -5.052 -11.592  16.848  0.00  0.00    -0.312 N 
ATOM      6  N   UNL     1      -2.843 -10.783  16.628  0.00  0.00    -0.240 NA
ATOM     20  C   UNL     1      -8.893 -11.705  18.747  0.00  0.00    +0.216 C 
ATOM     21  C   UNL     1      -7.041 -10.380  17.650  0.00  0.00    +0.126 C 
ATOM     22  C   UNL     1      -6.784 -12.812  18.102  0.00  0.00    +0.126 C 
ATOM     23  C   UNL     1      -5.515 -10.418  17.591  0.00  0.00    +0.125 C 
ATOM     24  C   UNL     1      -5.886 -12.796  16.866  0.00  0.00    +0.125 C 
ATOM     26  C   UNL     1      -3.834 -11.582  16.171  0.00  0.00    +0.121 A 
ATOM     28  C   UNL     1      -3.719 -12.400  15.060  0.00  0.00    +0.043 A 
ATOM     30  C   UNL     1      -2.509 -12.400  14.374  0.00  0.00    +0.005 A 
ATOM     31  C   UNL     1      -1.682 -10.810  15.937  0.00  0.00    +0.113 A 
ATOM     32  C   UNL     1      -1.466 -11.593  14.815  0.00  0.00    +0.020 A 
ENDBRANCH  15  20
ENDBRANCH  11  15
BRANCH   9  16
ATOM     16  C   UNL     1     -11.136  -6.543  16.308  0.00  0.00    +0.112 C 
BRANCH  16   4
ATOM      2  O   UNL     1     -13.539  -5.814  14.915  0.00  0.00    -0.269 OA
ATOM      4  N   UNL     1     -11.224  -5.962  15.005  0.00  0.00    -0.310 N 
ATOM     25  C   UNL     1     -12.437  -5.637  14.400  0.00  0.00    +0.262 C 
ATOM     36  H   UNL     1     -10.362  -5.740  14.515  0.00  0.00    +0.149 HD
BRANCH  25  27
ATOM      7  N   UNL     1     -12.337  -3.715  12.961  0.00  0.00    -0.250 NA
ATOM     27  C   UNL     1     -12.360  -5.065  13.031  0.00  0.00    +0.125 A 
ATOM     29  C   UNL     1     -12.316  -5.900  11.926  0.00  0.00    +0.033 A 
ATOM     33  C   UNL     1     -12.243  -5.312  10.669  0.00  0.00    +0.004 A 
ATOM     34  C   UNL     1     -12.266  -3.179  11.722  0.00  0.00    +0.111 A 
ATOM     35  C   UNL     1     -12.218  -3.926  10.556  0.00  0.00    +0.020 A 
ENDBRANCH  25  27
ENDBRANCH  16   4
ENDBRANCH   9  16
TORSDOF 6
ENDMDL
MODEL 3
REMARK VINA RESULT:      -6.9      2.726      4.656
REMARK  Name = 38028961
REMARK  9 active torsions:
REMARK  status: ('A' for Active; 'I' for Inactive)
REMARK    1  A    between atoms: N_4  and  C_16
REMARK    2  A    between atoms: C_8  and  C_12
REMARK    3  A    between atoms: C_9  and  C_16
REMARK    4  A    between atoms: C_11  and  C_15
REMARK    5  A    between atoms: C_12  and  C_17
REMARK    6  A    between atoms: C_12  and  C_18
REMARK    7  A    between atoms: C_13  and  C_19
REMARK    8  A    between atoms: C_15  and  C_20
REMARK    9  A    between atoms: C_25  and  C_27
REMARK                            x       y       z     vdW  Elec       q    Type
REMARK                         _______ _______ _______ _____ _____    ______ ____
ROOT
ATOM      8  C   UNL     1      -4.965 -12.341  16.444  0.00  0.00    +0.000 C 
ATOM      9  C   UNL     1      -4.049 -11.863  17.600  0.00  0.00    +0.032 C 
ATOM     10  C   UNL     1      -4.121 -12.757  15.230  0.00  0.00    +0.012 C 
ATOM     11  C   UNL     1      -3.239 -11.606  14.710  0.00  0.00    +0.023 C 
ATOM     13  C   UNL     1      -2.504 -10.907  15.837  0.00  0.00    -0.073 C 
ATOM     14  C   UNL     1      -2.873 -11.044  17.123  0.00  0.00    -0.022 C 
ATOM     19  C   UNL     1      -1.308 -10.082  15.455  0.00  0.00    +0.039 C 
ENDROOT
BRANCH   8  12
ATOM     12  C   UNL     1      -5.864 -13.504  16.874  0.00  0.00    -0.013 C 
ATOM     17  C   UNL     1      -5.184 -14.838  16.584  0.00  0.00    +0.007 C 
ATOM     18  C   UNL     1      -7.215 -13.420  16.170  0.00  0.00    +0.007 C 
ENDBRANCH   8  12
BRANCH  11  15
ATOM     15  C   UNL     1      -4.061 -10.608  13.889  0.00  0.00    +0.103 C 
BRANCH  15  20
ATOM      1  O   UNL     1      -2.333 -10.874  12.283  0.00  0.00    -0.276 OA
ATOM      3  N   UNL     1      -4.315  -9.919  11.533  0.00  0.00    -0.298 N 
ATOM      5  N   UNL     1      -6.026  -8.961   9.404  0.00  0.00    -0.312 N 
ATOM      6  N   UNL     1      -7.401  -7.295   8.450  0.00  0.00    -0.240 NA
ATOM     20  C   UNL     1      -3.483 -10.485  12.500  0.00  0.00    +0.216 C 
ATOM     21  C   UNL     1      -5.685  -9.468  11.791  0.00  0.00    +0.126 C 
ATOM     22  C   UNL     1      -3.826  -9.762  10.166  0.00  0.00    +0.126 C 
ATOM     23  C   UNL     1      -6.172  -8.444  10.767  0.00  0.00    +0.125 C 
ATOM     24  C   UNL     1      -4.945  -9.914   9.138  0.00  0.00    +0.125 C 
ATOM     26  C   UNL     1      -6.864  -8.533   8.377  0.00  0.00    +0.121 A 
ATOM     28  C   UNL     1      -7.097  -9.419   7.338  0.00  0.00    +0.043 A 
ATOM     30  C   UNL     1      -7.932  -9.006   6.306  0.00  0.00    +0.005 A 
ATOM     31  C   UNL     1      -8.208  -6.928   7.430  0.00  0.00    +0.113 A 
ATOM     32  C   UNL     1      -8.503  -7.738   6.345  0.00  0.00    +0.020 A 
ENDBRANCH  15  20
ENDBRANCH  11  15
BRANCH   9  16
ATOM     16  C   UNL     1      -4.843 -11.061  18.638  0.00  0.00    +0.112 C 
BRANCH  16   4
ATOM      2  O   UNL     1      -7.488 -11.044  19.754  0.00  0.00    -0.269 OA
ATOM      4  N   UNL     1      -6.013 -10.488  18.050  0.00  0.00    -0.310 N 
ATOM     25  C   UNL     1      -7.265 -10.524  18.663  0.00  0.00    +0.262 C 
ATOM     36  H   UNL     1      -5.920  -9.998  17.165  0.00  0.00    +0.149 HD
BRANCH  25  27
ATOM      7  N   UNL     1      -9.614 -10.059  18.457  0.00  0.00    -0.250 NA
ATOM     27  C   UNL     1      -8.387  -9.908  17.910  0.00  0.00    +0.125 A 
ATOM     29  C   UNL     1      -8.144  -9.231  16.725  0.00  0.00    +0.033 A 
ATOM     33  C   UNL     1      -9.230  -8.672  16.061  0.00  0.00    +0.004 A 
ATOM     34  C   UNL     1     -10.645  -9.502  17.784  0.00  0.00    +0.111 A 
ATOM     35  C   UNL     1     -10.508  -8.806  16.594  0.00  0.00    +0.020 A 
ENDBRANCH  25  27
ENDBRANCH  16   4
ENDBRANCH   9  16
TORSDOF 6
ENDMDL
MODEL 4
REMARK VINA RESULT:      -6.9      3.533      6.895
REMARK  Name = 38028961
REMARK  9 active torsions:
REMARK  status: ('A' for Active; 'I' for Inactive)
REMARK    1  A    between atoms: N_4  and  C_16
REMARK    2  A    between atoms: C_8  and  C_12
REMARK    3  A    between atoms: C_9  and  C_16
REMARK    4  A    between atoms: C_11  and  C_15
REMARK    5  A    between atoms: C_12  and  C_17
REMARK    6  A    between atoms: C_12  and  C_18
REMARK    7  A    between atoms: C_13  and  C_19
REMARK    8  A    between atoms: C_15  and  C_20
REMARK    9  A    between atoms: C_25  and  C_27
REMARK                            x       y       z     vdW  Elec       q    Type
REMARK                         _______ _______ _______ _____ _____    ______ ____
ROOT
ATOM      8  C   UNL     1      -5.986 -13.376  16.383  0.00  0.00    +0.000 C 
ATOM      9  C   UNL     1      -7.129 -13.491  17.424  0.00  0.00    +0.032 C 
ATOM     10  C   UNL     1      -4.652 -13.076  17.084  0.00  0.00    +0.012 C 
ATOM     11  C   UNL     1      -4.703 -11.771  17.901  0.00  0.00    +0.023 C 
ATOM     13  C   UNL     1      -5.950 -11.692  18.758  0.00  0.00    -0.073 C 
ATOM     14  C   UNL     1      -7.019 -12.477  18.538  0.00  0.00    -0.022 C 
ATOM     19  C   UNL     1      -5.923 -10.718  19.903  0.00  0.00    +0.039 C 
ENDROOT
BRANCH   8  12
ATOM     12  C   UNL     1      -5.855 -14.647  15.539  0.00  0.00    -0.013 C 
ATOM     17  C   UNL     1      -5.523 -15.843  16.427  0.00  0.00    +0.007 C 
ATOM     18  C   UNL     1      -4.791 -14.462  14.462  0.00  0.00    +0.007 C 
ENDBRANCH   8  12
BRANCH  11  15
ATOM     15  C   UNL     1      -4.584 -10.544  16.990  0.00  0.00    +0.103 C 
BRANCH  15  20
ATOM      1  O   UNL     1      -2.258 -10.774  16.577  0.00  0.00    -0.276 OA
ATOM      3  N   UNL     1      -3.646 -10.715  14.714  0.00  0.00    -0.298 N 
ATOM      5  N   UNL     1      -4.090 -10.997  11.868  0.00  0.00    -0.312 N 
ATOM      6  N   UNL     1      -4.927 -10.180   9.816  0.00  0.00    -0.240 NA
ATOM     20  C   UNL     1      -3.385 -10.690  16.085  0.00  0.00    +0.216 C 
ATOM     21  C   UNL     1      -4.987 -10.627  14.132  0.00  0.00    +0.126 C 
ATOM     22  C   UNL     1      -2.537 -10.849  13.773  0.00  0.00    +0.126 C 
ATOM     23  C   UNL     1      -4.971 -10.154  12.679  0.00  0.00    +0.125 C 
ATOM     24  C   UNL     1      -2.940 -11.628  12.523  0.00  0.00    +0.125 C 
ATOM     26  C   UNL     1      -4.312 -11.168  10.503  0.00  0.00    +0.121 A 
ATOM     28  C   UNL     1      -3.884 -12.357   9.935  0.00  0.00    +0.043 A 
ATOM     30  C   UNL     1      -4.099 -12.542   8.574  0.00  0.00    +0.005 A 
ATOM     31  C   UNL     1      -5.119 -10.395   8.496  0.00  0.00    +0.113 A 
ATOM     32  C   UNL     1      -4.728 -11.547   7.833  0.00  0.00    +0.020 A 
ENDBRANCH  15  20
ENDBRANCH  11  15
BRANCH   9  16
ATOM     16  C   UNL     1      -8.502 -13.367  16.754  0.00  0.00    +0.112 C 
BRANCH  16   4
ATOM      2  O   UNL     1      -8.509 -11.439  14.626  0.00  0.00    -0.269 OA
ATOM      4  N   UNL     1      -8.980 -12.022  16.823  0.00  0.00    -0.310 N 
ATOM     25  C   UNL     1      -8.947 -11.148  15.737  0.00  0.00    +0.262 C 
ATOM     36  H   UNL     1      -9.399 -11.701  17.691  0.00  0.00    +0.149 HD
BRANCH  25  27
ATOM      7  N   UNL     1     -10.004  -9.155  14.908  0.00  0.00    -0.250 NA
ATOM     27  C   UNL     1      -9.457  -9.774  15.979  0.00  0.00    +0.125 A 
ATOM     29  C   UNL     1      -9.357  -9.203  17.237  0.00  0.00    +0.033 A 
ATOM     33  C   UNL     1      -9.851  -7.916  17.409  0.00  0.00    +0.004 A 
ATOM     34  C   UNL     1     -10.474  -7.904  15.113  0.00  0.00    +0.111 A 
ATOM     35  C   UNL     1     -10.421  -7.246  16.332  0.00  0.00    +0.020 A 
ENDBRANCH  25  27
ENDBRANCH  16   4
ENDBRANCH   9  16
TORSDOF 6
ENDMDL
MODEL 5
REMARK VINA RESULT:      -6.9     25.640     29.012
REMARK  Name = 38028961
REMARK  9 active torsions:
REMARK  status: ('A' for Active; 'I' for Inactive)
REMARK    1  A    between atoms: N_4  and  C_16
REMARK    2  A    between atoms: C_8  and  C_12
REMARK    3  A    between atoms: C_9  and  C_16
REMARK    4  A    between atoms: C_11  and  C_15
REMARK    5  A    between atoms: C_12  and  C_17
REMARK    6  A    between atoms: C_12  and  C_18
REMARK    7  A    between atoms: C_13  and  C_19
REMARK    8  A    between atoms: C_15  and  C_20
REMARK    9  A    between atoms: C_25  and  C_27
REMARK                            x       y       z     vdW  Elec       q    Type
REMARK                         _______ _______ _______ _____ _____    ______ ____
ROOT
ATOM      8  C   UNL     1      10.325   7.324   6.072  0.00  0.00    +0.000 C 
ATOM      9  C   UNL     1       9.457   7.937   4.944  0.00  0.00    +0.032 C 
ATOM     10  C   UNL     1      11.079   8.429   6.827  0.00  0.00    +0.012 C 
ATOM     11  C   UNL     1      11.993   9.250   5.898  0.00  0.00    +0.023 C 
ATOM     13  C   UNL     1      11.279   9.666   4.628  0.00  0.00    -0.073 C 
ATOM     14  C   UNL     1      10.139   9.076   4.224  0.00  0.00    -0.022 C 
ATOM     19  C   UNL     1      11.881  10.805   3.855  0.00  0.00    +0.039 C 
ENDROOT
BRANCH   8  12
ATOM     12  C   UNL     1       9.483   6.505   7.056  0.00  0.00    -0.013 C 
ATOM     17  C   UNL     1       8.825   7.420   8.084  0.00  0.00    +0.007 C 
ATOM     18  C   UNL     1      10.346   5.451   7.744  0.00  0.00    +0.007 C 
ENDBRANCH   8  12
BRANCH  11  15
ATOM     15  C   UNL     1      13.283   8.487   5.578  0.00  0.00    +0.103 C 
BRANCH  15  20
ATOM      1  O   UNL     1      14.328  10.196   6.852  0.00  0.00    -0.276 OA
ATOM      3  N   UNL     1      15.708   8.932   5.475  0.00  0.00    -0.298 N 
ATOM      5  N   UNL     1      18.332   8.140   4.546  0.00  0.00    -0.312 N 
ATOM      6  N   UNL     1      19.874   7.743   2.801  0.00  0.00    -0.240 NA
ATOM     20  C   UNL     1      14.480   9.287   6.034  0.00  0.00    +0.216 C 
ATOM     21  C   UNL     1      15.887   7.843   4.510  0.00  0.00    +0.126 C 
ATOM     22  C   UNL     1      16.912   9.661   5.861  0.00  0.00    +0.126 C 
ATOM     23  C   UNL     1      17.160   7.993   3.679  0.00  0.00    +0.125 C 
ATOM     24  C   UNL     1      18.149   8.765   5.858  0.00  0.00    +0.125 C 
ATOM     26  C   UNL     1      19.596   7.732   4.124  0.00  0.00    +0.121 A 
ATOM     28  C   UNL     1      20.493   7.334   5.101  0.00  0.00    +0.043 A 
ATOM     30  C   UNL     1      21.758   6.923   4.695  0.00  0.00    +0.005 A 
ATOM     31  C   UNL     1      21.113   7.338   2.443  0.00  0.00    +0.113 A 
ATOM     32  C   UNL     1      22.082   6.922   3.342  0.00  0.00    +0.020 A 
ENDBRANCH  15  20
ENDBRANCH  11  15
BRANCH   9  16
ATOM     16  C   UNL     1       9.038   6.868   3.927  0.00  0.00    +0.112 C 
BRANCH  16   4
ATOM      2  O   UNL     1      10.332   4.329   4.279  0.00  0.00    -0.269 OA
ATOM      4  N   UNL     1      10.172   6.382   3.206  0.00  0.00    -0.310 N 
ATOM     25  C   UNL     1      10.741   5.130   3.442  0.00  0.00    +0.262 C 
ATOM     36  H   UNL     1      10.557   6.957   2.463  0.00  0.00    +0.149 HD
BRANCH  25  27
ATOM      7  N   UNL     1      12.845   5.769   2.473  0.00  0.00    -0.250 NA
ATOM     27  C   UNL     1      11.933   4.783   2.627  0.00  0.00    +0.125 A 
ATOM     29  C   UNL     1      12.059   3.517   2.078  0.00  0.00    +0.033 A 
ATOM     33  C   UNL     1      13.195   3.244   1.325  0.00  0.00    +0.004 A 
ATOM     34  C   UNL     1      13.937   5.467   1.734  0.00  0.00    +0.111 A 
ATOM     35  C   UNL     1      14.157   4.233   1.145  0.00  0.00    +0.020 A 
ENDBRANCH  25  27
ENDBRANCH  16   4
ENDBRANCH   9  16
TORSDOF 6
ENDMDL
MODEL 6
REMARK VINA RESULT:      -6.9      3.278      5.341
REMARK  Name = 38028961
REMARK  9 active torsions:
REMARK  status: ('A' for Active; 'I' for Inactive)
REMARK    1  A    between atoms: N_4  and  C_16
REMARK    2  A    between atoms: C_8  and  C_12
REMARK    3  A    between atoms: C_9  and  C_16
REMARK    4  A    between atoms: C_11  and  C_15
REMARK    5  A    between atoms: C_12  and  C_17
REMARK    6  A    between atoms: C_12  and  C_18
REMARK    7  A    between atoms: C_13  and  C_19
REMARK    8  A    between atoms: C_15  and  C_20
REMARK    9  A    between atoms: C_25  and  C_27
REMARK                            x       y       z     vdW  Elec       q    Type
REMARK                         _______ _______ _______ _____ _____    ______ ____
ROOT
ATOM      8  C   UNL     1      -3.940 -11.733  12.545  0.00  0.00    +0.000 C 
ATOM      9  C   UNL     1      -2.641 -10.974  12.172  0.00  0.00    +0.032 C 
ATOM     10  C   UNL     1      -4.759 -12.044  11.282  0.00  0.00    +0.012 C 
ATOM     11  C   UNL     1      -5.143 -10.769  10.509  0.00  0.00    +0.023 C 
ATOM     13  C   UNL     1      -3.961  -9.837  10.335  0.00  0.00    -0.073 C 
ATOM     14  C   UNL     1      -2.846  -9.953  11.079  0.00  0.00    -0.022 C 
ATOM     19  C   UNL     1      -4.071  -8.798   9.256  0.00  0.00    +0.039 C 
ENDROOT
BRANCH   8  12
ATOM     12  C   UNL     1      -3.642 -13.031  13.303  0.00  0.00    -0.013 C 
ATOM     17  C   UNL     1      -2.821 -13.979  12.434  0.00  0.00    +0.007 C 
ATOM     18  C   UNL     1      -4.941 -13.696  13.748  0.00  0.00    +0.007 C 
ENDBRANCH   8  12
BRANCH  11  15
ATOM     15  C   UNL     1      -6.317 -10.048  11.181  0.00  0.00    +0.103 C 
BRANCH  15  20
ATOM      1  O   UNL     1      -7.875 -11.773  10.698  0.00  0.00    -0.276 OA
ATOM      3  N   UNL     1      -7.748 -11.072  12.911  0.00  0.00    -0.298 N 
ATOM      5  N   UNL     1      -8.425 -11.362  15.709  0.00  0.00    -0.312 N 
ATOM      6  N   UNL     1      -9.218 -10.467  17.747  0.00  0.00    -0.240 NA
ATOM     20  C   UNL     1      -7.382 -11.046  11.564  0.00  0.00    +0.216 C 
ATOM     21  C   UNL     1      -7.152 -10.215  13.939  0.00  0.00    +0.126 C 
ATOM     22  C   UNL     1      -8.775 -12.007  13.360  0.00  0.00    +0.126 C 
ATOM     23  C   UNL     1      -8.049 -10.054  15.166  0.00  0.00    +0.125 C 
ATOM     24  C   UNL     1      -8.521 -12.494  14.785  0.00  0.00    +0.125 C 
ATOM     26  C   UNL     1      -8.721 -11.522  17.061  0.00  0.00    +0.121 A 
ATOM     28  C   UNL     1      -8.482 -12.766  17.620  0.00  0.00    +0.043 A 
ATOM     30  C   UNL     1      -8.772 -12.941  18.969  0.00  0.00    +0.005 A 
ATOM     31  C   UNL     1      -9.488 -10.674  19.055  0.00  0.00    +0.113 A 
ATOM     32  C   UNL     1      -9.285 -11.880  19.707  0.00  0.00    +0.020 A 
ENDBRANCH  15  20
ENDBRANCH  11  15
BRANCH   9  16
ATOM     16  C   UNL     1      -2.029 -10.291  13.401  0.00  0.00    +0.112 C 
BRANCH  16   4
ATOM      2  O   UNL     1      -1.263 -10.994  16.078  0.00  0.00    -0.269 OA
ATOM      4  N   UNL     1      -2.895 -10.411  14.532  0.00  0.00    -0.310 N 
ATOM     25  C   UNL     1      -2.438 -10.759  15.803  0.00  0.00    +0.262 C 
ATOM     36  H   UNL     1      -3.880 -10.195  14.413  0.00  0.00    +0.149 HD
BRANCH  25  27
ATOM      7  N   UNL     1      -3.160 -11.687  17.899  0.00  0.00    -0.250 NA
ATOM     27  C   UNL     1      -3.468 -10.869  16.868  0.00  0.00    +0.125 A 
ATOM     29  C   UNL     1      -4.654 -10.160  16.767  0.00  0.00    +0.033 A 
ATOM     33  C   UNL     1      -5.583 -10.298  17.792  0.00  0.00    +0.004 A 
ATOM     34  C   UNL     1      -4.087 -11.796  18.877  0.00  0.00    +0.111 A 
ATOM     35  C   UNL     1      -5.302 -11.130  18.870  0.00  0.00    +0.020 A 
ENDBRANCH  25  27
ENDBRANCH  16   4
ENDBRANCH   9  16
TORSDOF 6
ENDMDL
MODEL 7
REMARK VINA RESULT:      -6.8     18.560     21.696
REMARK  Name = 38028961
REMARK  9 active torsions:
REMARK  status: ('A' for Active; 'I' for Inactive)
REMARK    1  A    between atoms: N_4  and  C_16
REMARK    2  A    between atoms: C_8  and  C_12
REMARK    3  A    between atoms: C_9  and  C_16
REMARK    4  A    between atoms: C_11  and  C_15
REMARK    5  A    between atoms: C_12  and  C_17
REMARK    6  A    between atoms: C_12  and  C_18
REMARK    7  A    between atoms: C_13  and  C_19
REMARK    8  A    between atoms: C_15  and  C_20
REMARK    9  A    between atoms: C_25  and  C_27
REMARK                            x       y       z     vdW  Elec       q    Type
REMARK                         _______ _______ _______ _____ _____    ______ ____
ROOT
ATOM      8  C   UNL     1     -12.914   8.354  20.355  0.00  0.00    +0.000 C 
ATOM      9  C   UNL     1     -12.253   9.503  21.158  0.00  0.00    +0.032 C 
ATOM     10  C   UNL     1     -11.958   7.843  19.266  0.00  0.00    +0.012 C 
ATOM     11  C   UNL     1     -11.548   8.955  18.282  0.00  0.00    +0.023 C 
ATOM     13  C   UNL     1     -11.136  10.222  19.004  0.00  0.00    -0.073 C 
ATOM     14  C   UNL     1     -11.449  10.443  20.293  0.00  0.00    -0.022 C 
ATOM     19  C   UNL     1     -10.316  11.210  18.222  0.00  0.00    +0.039 C 
ENDROOT
BRANCH   8  12
ATOM     12  C   UNL     1     -13.335   7.193  21.262  0.00  0.00    -0.013 C 
ATOM     17  C   UNL     1     -12.231   6.143  21.328  0.00  0.00    +0.007 C 
ATOM     18  C   UNL     1     -14.639   6.577  20.766  0.00  0.00    +0.007 C 
ENDBRANCH   8  12
BRANCH  11  15
ATOM     15  C   UNL     1     -12.664   9.238  17.271  0.00  0.00    +0.103 C 
BRANCH  15  20
ATOM      1  O   UNL     1     -11.033   9.296  15.548  0.00  0.00    -0.276 OA
ATOM      3  N   UNL     1     -13.076   8.324  15.017  0.00  0.00    -0.298 N 
ATOM      5  N   UNL     1     -14.783   6.819  13.229  0.00  0.00    -0.312 N 
ATOM      6  N   UNL     1     -16.811   6.549  12.048  0.00  0.00    -0.240 NA
ATOM     20  C   UNL     1     -12.173   8.959  15.872  0.00  0.00    +0.216 C 
ATOM     21  C   UNL     1     -14.427   7.914  15.407  0.00  0.00    +0.126 C 
ATOM     22  C   UNL     1     -12.677   8.024  13.644  0.00  0.00    +0.126 C 
ATOM     23  C   UNL     1     -15.361   7.741  14.210  0.00  0.00    +0.125 C 
ATOM     24  C   UNL     1     -13.324   6.739  13.129  0.00  0.00    +0.125 C 
ATOM     26  C   UNL     1     -15.595   6.064  12.385  0.00  0.00    +0.121 A 
ATOM     28  C   UNL     1     -15.096   4.849  11.945  0.00  0.00    +0.043 A 
ATOM     30  C   UNL     1     -15.895   4.084  11.102  0.00  0.00    +0.005 A 
ATOM     31  C   UNL     1     -17.560   5.779  11.228  0.00  0.00    +0.113 A 
ATOM     32  C   UNL     1     -17.152   4.551  10.732  0.00  0.00    +0.020 A 
ENDBRANCH  15  20
ENDBRANCH  11  15
BRANCH   9  16
ATOM     16  C   UNL     1     -13.300  10.301  21.944  0.00  0.00    +0.112 C 
BRANCH  16   4
ATOM      2  O   UNL     1     -11.733  12.023  23.624  0.00  0.00    -0.269 OA
ATOM      4  N   UNL     1     -13.093  10.161  23.352  0.00  0.00    -0.310 N 
ATOM     25  C   UNL     1     -12.313  11.047  24.095  0.00  0.00    +0.262 C 
ATOM     36  H   UNL     1     -13.566   9.406  23.839  0.00  0.00    +0.149 HD
BRANCH  25  27
ATOM      7  N   UNL     1     -13.326  10.725  26.250  0.00  0.00    -0.250 NA
ATOM     27  C   UNL     1     -12.173  10.749  25.543  0.00  0.00    +0.125 A 
ATOM     29  C   UNL     1     -10.922  10.519  26.091  0.00  0.00    +0.033 A 
ATOM     33  C   UNL     1     -10.848  10.243  27.452  0.00  0.00    +0.004 A 
ATOM     34  C   UNL     1     -13.215  10.454  27.570  0.00  0.00    +0.111 A 
ATOM     35  C   UNL     1     -12.012  10.209  28.212  0.00  0.00    +0.020 A 
ENDBRANCH  25  27
ENDBRANCH  16   4
ENDBRANCH   9  16
TORSDOF 6
ENDMDL
MODEL 8
REMARK VINA RESULT:      -6.7     23.769     26.546
REMARK  Name = 38028961
REMARK  9 active torsions:
REMARK  status: ('A' for Active; 'I' for Inactive)
REMARK    1  A    between atoms: N_4  and  C_16
REMARK    2  A    between atoms: C_8  and  C_12
REMARK    3  A    between atoms: C_9  and  C_16
REMARK    4  A    between atoms: C_11  and  C_15
REMARK    5  A    between atoms: C_12  and  C_17
REMARK    6  A    between atoms: C_12  and  C_18
REMARK    7  A    between atoms: C_13  and  C_19
REMARK    8  A    between atoms: C_15  and  C_20
REMARK    9  A    between atoms: C_25  and  C_27
REMARK                            x       y       z     vdW  Elec       q    Type
REMARK                         _______ _______ _______ _____ _____    ______ ____
ROOT
ATOM      8  C   UNL     1       9.075   8.381   4.811  0.00  0.00    +0.000 C 
ATOM      9  C   UNL     1       8.758   9.241   6.060  0.00  0.00    +0.032 C 
ATOM     10  C   UNL     1       8.472   6.976   4.961  0.00  0.00    +0.012 C 
ATOM     11  C   UNL     1       9.004   6.243   6.207  0.00  0.00    +0.023 C 
ATOM     13  C   UNL     1       8.972   7.128   7.437  0.00  0.00    -0.073 C 
ATOM     14  C   UNL     1       8.849   8.465   7.352  0.00  0.00    -0.022 C 
ATOM     19  C   UNL     1       9.042   6.436   8.770  0.00  0.00    +0.039 C 
ENDROOT
BRANCH   8  12
ATOM     12  C   UNL     1       8.558   9.033   3.525  0.00  0.00    -0.013 C 
ATOM     17  C   UNL     1       7.078   9.379   3.662  0.00  0.00    +0.007 C 
ATOM     18  C   UNL     1       8.789   8.111   2.332  0.00  0.00    +0.007 C 
ENDBRANCH   8  12
BRANCH  11  15
ATOM     15  C   UNL     1      10.412   5.692   5.964  0.00  0.00    +0.103 C 
BRANCH  15  20
ATOM      1  O   UNL     1       9.797   3.464   5.421  0.00  0.00    -0.276 OA
ATOM      3  N   UNL     1      10.931   4.660   3.783  0.00  0.00    -0.298 N 
ATOM      5  N   UNL     1      11.921   4.953   1.079  0.00  0.00    -0.312 N 
ATOM      6  N   UNL     1      13.665   5.421  -0.444  0.00  0.00    -0.240 NA
ATOM     20  C   UNL     1      10.345   4.500   5.039  0.00  0.00    +0.216 C 
ATOM     21  C   UNL     1      11.573   5.897   3.328  0.00  0.00    +0.126 C 
ATOM     22  C   UNL     1      10.912   3.551   2.833  0.00  0.00    +0.126 C 
ATOM     23  C   UNL     1      12.563   5.663   2.188  0.00  0.00    +0.125 C 
ATOM     24  C   UNL     1      10.819   4.038   1.388  0.00  0.00    +0.125 C 
ATOM     26  C   UNL     1      12.366   5.111  -0.232  0.00  0.00    +0.121 A 
ATOM     28  C   UNL     1      11.435   4.940  -1.243  0.00  0.00    +0.043 A 
ATOM     30  C   UNL     1      11.865   5.095  -2.556  0.00  0.00    +0.005 A 
ATOM     31  C   UNL     1      14.047   5.563  -1.732  0.00  0.00    +0.113 A 
ATOM     32  C   UNL     1      13.194   5.413  -2.814  0.00  0.00    +0.020 A 
ENDBRANCH  15  20
ENDBRANCH  11  15
BRANCH   9  16
ATOM     16  C   UNL     1       9.677  10.467   6.135  0.00  0.00    +0.112 C 
BRANCH  16   4
ATOM      2  O   UNL     1      11.690  10.260   8.172  0.00  0.00    -0.269 OA
ATOM      4  N   UNL     1      11.043  10.088   5.950  0.00  0.00    -0.310 N 
ATOM     25  C   UNL     1      11.958  10.013   6.999  0.00  0.00    +0.262 C 
ATOM     36  H   UNL     1      11.350   9.825   5.018  0.00  0.00    +0.149 HD
BRANCH  25  27
ATOM      7  N   UNL     1      14.188  10.657   6.373  0.00  0.00    -0.250 NA
ATOM     27  C   UNL     1      13.347   9.631   6.637  0.00  0.00    +0.125 A 
ATOM     29  C   UNL     1      13.713   8.295   6.584  0.00  0.00    +0.033 A 
ATOM     33  C   UNL     1      15.025   7.993   6.241  0.00  0.00    +0.004 A 
ATOM     34  C   UNL     1      15.456  10.325   6.042  0.00  0.00    +0.111 A 
ATOM     35  C   UNL     1      15.920   9.021   5.963  0.00  0.00    +0.020 A 
ENDBRANCH  25  27
ENDBRANCH  16   4
ENDBRANCH   9  16
TORSDOF 6
ENDMDL
MODEL 9
REMARK VINA RESULT:      -6.6     24.511     27.058
REMARK  Name = 38028961
REMARK  9 active torsions:
REMARK  status: ('A' for Active; 'I' for Inactive)
REMARK    1  A    between atoms: N_4  and  C_16
REMARK    2  A    between atoms: C_8  and  C_12
REMARK    3  A    between atoms: C_9  and  C_16
REMARK    4  A    between atoms: C_11  and  C_15
REMARK    5  A    between atoms: C_12  and  C_17
REMARK    6  A    between atoms: C_12  and  C_18
REMARK    7  A    between atoms: C_13  and  C_19
REMARK    8  A    between atoms: C_15  and  C_20
REMARK    9  A    between atoms: C_25  and  C_27
REMARK                            x       y       z     vdW  Elec       q    Type
REMARK                         _______ _______ _______ _____ _____    ______ ____
ROOT
ATOM      8  C   UNL     1      12.630   4.572   1.829  0.00  0.00    +0.000 C 
ATOM      9  C   UNL     1      12.372   5.633   0.729  0.00  0.00    +0.032 C 
ATOM     10  C   UNL     1      11.300   4.074   2.415  0.00  0.00    +0.012 C 
ATOM     11  C   UNL     1      10.467   5.218   3.024  0.00  0.00    +0.023 C 
ATOM     13  C   UNL     1      10.392   6.416   2.099  0.00  0.00    -0.073 C 
ATOM     14  C   UNL     1      11.244   6.577   1.071  0.00  0.00    -0.022 C 
ATOM     19  C   UNL     1       9.287   7.401   2.355  0.00  0.00    +0.039 C 
ENDROOT
BRANCH   8  12
ATOM     12  C   UNL     1      13.439   3.385   1.297  0.00  0.00    -0.013 C 
ATOM     17  C   UNL     1      14.908   3.526   1.683  0.00  0.00    +0.007 C 
ATOM     18  C   UNL     1      13.285   3.275  -0.217  0.00  0.00    +0.007 C 
ENDBRANCH   8  12
BRANCH  11  15
ATOM     15  C   UNL     1      11.006   5.621   4.401  0.00  0.00    +0.103 C 
BRANCH  15  20
ATOM      1  O   UNL     1       9.129   4.826   5.617  0.00  0.00    -0.276 OA
ATOM      3  N   UNL     1       9.712   7.053   5.938  0.00  0.00    -0.298 N 
ATOM      5  N   UNL     1       9.438   9.574   7.332  0.00  0.00    -0.312 N 
ATOM      6  N   UNL     1       9.130  11.916   7.325  0.00  0.00    -0.240 NA
ATOM     20  C   UNL     1       9.863   5.785   5.373  0.00  0.00    +0.216 C 
ATOM     21  C   UNL     1      10.593   8.189   5.654  0.00  0.00    +0.126 C 
ATOM     22  C   UNL     1       8.626   7.294   6.884  0.00  0.00    +0.126 C 
ATOM     23  C   UNL     1       9.936   9.535   5.955  0.00  0.00    +0.125 C 
ATOM     24  C   UNL     1       9.014   8.316   7.951  0.00  0.00    +0.125 C 
ATOM     26  C   UNL     1       9.333  10.778   8.026  0.00  0.00    +0.121 A 
ATOM     28  C   UNL     1       9.448  10.726   9.405  0.00  0.00    +0.043 A 
ATOM     30  C   UNL     1       9.346  11.920  10.112  0.00  0.00    +0.005 A 
ATOM     31  C   UNL     1       9.035  13.056   8.045  0.00  0.00    +0.113 A 
ATOM     32  C   UNL     1       9.135  13.112   9.426  0.00  0.00    +0.020 A 
ENDBRANCH  15  20
ENDBRANCH  11  15
BRANCH   9  16
ATOM     16  C   UNL     1      13.642   6.440   0.432  0.00  0.00    +0.112 C 
BRANCH  16   4
ATOM      2  O   UNL     1      16.415   6.981   0.941  0.00  0.00    -0.269 OA
ATOM      4  N   UNL     1      14.200   6.969   1.637  0.00  0.00    -0.310 N 
ATOM     25  C   UNL     1      15.565   7.203   1.801  0.00  0.00    +0.262 C 
ATOM     36  H   UNL     1      13.570   7.223   2.392  0.00  0.00    +0.149 HD
BRANCH  25  27
ATOM      7  N   UNL     1      15.200   7.399   4.168  0.00  0.00    -0.250 NA
ATOM     27  C   UNL     1      15.990   7.730   3.123  0.00  0.00    +0.125 A 
ATOM     29  C   UNL     1      17.131   8.510   3.230  0.00  0.00    +0.033 A 
ATOM     33  C   UNL     1      17.484   8.977   4.491  0.00  0.00    +0.004 A 
ATOM     34  C   UNL     1      15.574   7.871   5.378  0.00  0.00    +0.111 A 
ATOM     35  C   UNL     1      16.696   8.656   5.590  0.00  0.00    +0.020 A 
ENDBRANCH  25  27
ENDBRANCH  16   4
ENDBRANCH   9  16
TORSDOF 6
ENDMDL
MODEL 10
REMARK VINA RESULT:      -6.5     28.352     32.878
REMARK  Name = 38028961
REMARK  9 active torsions:
REMARK  status: ('A' for Active; 'I' for Inactive)
REMARK    1  A    between atoms: N_4  and  C_16
REMARK    2  A    between atoms: C_8  and  C_12
REMARK    3  A    between atoms: C_9  and  C_16
REMARK    4  A    between atoms: C_11  and  C_15
REMARK    5  A    between atoms: C_12  and  C_17
REMARK    6  A    between atoms: C_12  and  C_18
REMARK    7  A    between atoms: C_13  and  C_19
REMARK    8  A    between atoms: C_15  and  C_20
REMARK    9  A    between atoms: C_25  and  C_27
REMARK                            x       y       z     vdW  Elec       q    Type
REMARK                         _______ _______ _______ _____ _____    ______ ____
ROOT
ATOM      8  C   UNL     1      17.294   8.926  21.373  0.00  0.00    +0.000 C 
ATOM      9  C   UNL     1      16.537   8.270  20.190  0.00  0.00    +0.032 C 
ATOM     10  C   UNL     1      18.807   8.697  21.234  0.00  0.00    +0.012 C 
ATOM     11  C   UNL     1      19.168   7.201  21.194  0.00  0.00    +0.023 C 
ATOM     13  C   UNL     1      18.277   6.431  20.239  0.00  0.00    -0.073 C 
ATOM     14  C   UNL     1      17.112   6.931  19.791  0.00  0.00    -0.022 C 
ATOM     19  C   UNL     1      18.779   5.093  19.775  0.00  0.00    +0.039 C 
ENDROOT
BRANCH   8  12
ATOM     12  C   UNL     1      17.003  10.427  21.471  0.00  0.00    -0.013 C 
ATOM     17  C   UNL     1      17.185  11.094  20.111  0.00  0.00    +0.007 C 
ATOM     18  C   UNL     1      17.905  11.076  22.516  0.00  0.00    +0.007 C 
ENDBRANCH   8  12
BRANCH  11  15
ATOM     15  C   UNL     1      19.130   6.585  22.596  0.00  0.00    +0.103 C 
BRANCH  15  20
ATOM      1  O   UNL     1      20.393   7.854  24.155  0.00  0.00    -0.276 OA
ATOM      3  N   UNL     1      21.516   6.149  23.046  0.00  0.00    -0.298 N 
ATOM      5  N   UNL     1      23.838   4.463  22.670  0.00  0.00    -0.312 N 
ATOM      6  N   UNL     1      25.493   3.503  21.284  0.00  0.00    -0.240 NA
ATOM     20  C   UNL     1      20.396   6.927  23.343  0.00  0.00    +0.216 C 
ATOM     21  C   UNL     1      21.515   5.041  22.088  0.00  0.00    +0.126 C 
ATOM     22  C   UNL     1      22.781   6.421  23.723  0.00  0.00    +0.126 C 
ATOM     23  C   UNL     1      22.912   4.712  21.563  0.00  0.00    +0.125 C 
ATOM     24  C   UNL     1      23.597   5.148  23.943  0.00  0.00    +0.125 C 
ATOM     26  C   UNL     1      24.942   3.627  22.512  0.00  0.00    +0.121 A 
ATOM     28  C   UNL     1      25.404   2.967  23.639  0.00  0.00    +0.043 A 
ATOM     30  C   UNL     1      26.504   2.128  23.496  0.00  0.00    +0.005 A 
ATOM     31  C   UNL     1      26.560   2.680  21.184  0.00  0.00    +0.113 A 
ATOM     32  C   UNL     1      27.099   1.977  22.249  0.00  0.00    +0.020 A 
ENDBRANCH  15  20
ENDBRANCH  11  15
BRANCH   9  16
ATOM     16  C   UNL     1      15.046   8.111  20.508  0.00  0.00    +0.112 C 
BRANCH  16   4
ATOM      2  O   UNL     1      12.577   6.905  19.676  0.00  0.00    -0.269 OA
ATOM      4  N   UNL     1      14.245   8.493  19.387  0.00  0.00    -0.310 N 
ATOM     25  C   UNL     1      13.054   7.850  19.052  0.00  0.00    +0.262 C 
ATOM     36  H   UNL     1      14.537   9.293  18.833  0.00  0.00    +0.149 HD
BRANCH  25  27
ATOM      7  N   UNL     1      11.034   8.058  17.766  0.00  0.00    -0.250 NA
ATOM     27  C   UNL     1      12.352   8.348  17.841  0.00  0.00    +0.125 A 
ATOM     29  C   UNL     1      13.046   9.060  16.876  0.00  0.00    +0.033 A 
ATOM     33  C   UNL     1      12.341   9.504  15.763  0.00  0.00    +0.004 A 
ATOM     34  C   UNL     1      10.381   8.506  16.670  0.00  0.00    +0.111 A 
ATOM     35  C   UNL     1      10.983   9.226  15.651  0.00  0.00    +0.020 A 
ENDBRANCH  25  27
ENDBRANCH  16   4
ENDBRANCH   9  16
TORSDOF 6
ENDMDL
