MODEL 1
REMARK VINA RESULT:      -6.9      0.000      0.000
REMARK  Name = 26742955
REMARK  11 active torsions:
REMARK  status: ('A' for Active; 'I' for Inactive)
REMARK    1  A    between atoms: N_4  and  C_17
REMARK    2  A    between atoms: N_4  and  C_18
REMARK    3  A    between atoms: C_6  and  C_12
REMARK    4  A    between atoms: C_7  and  C_10
REMARK    5  A    between atoms: C_10  and  C_13
REMARK    6  A    between atoms: C_12  and  C_14
REMARK    7  A    between atoms: C_16  and  C_19
REMARK    8  A    between atoms: C_17  and  C_21
REMARK    9  A    between atoms: C_19  and  C_20
REMARK   10  A    between atoms: C_20  and  C_22
REMARK   11  A    between atoms: C_22  and  C_25
REMARK                            x       y       z     vdW  Elec       q    Type
REMARK                         _______ _______ _______ _____ _____    ______ ____
ROOT
ATOM      3  N   UNL     1      17.019   9.305  22.049  0.00  0.00    -0.316 NA
ATOM      6  C   UNL     1      16.088   6.720  20.971  0.00  0.00    +0.004 C 
ATOM      7  C   UNL     1      17.588   7.071  21.125  0.00  0.00    +0.012 C 
ATOM      8  C   UNL     1      15.271   7.561  21.967  0.00  0.00    +0.019 C 
ATOM      9  C   UNL     1      17.826   8.590  21.059  0.00  0.00    +0.085 C 
ATOM     11  C   UNL     1      15.590   9.051  21.870  0.00  0.00    +0.081 C 
ATOM     29  H   UNL     1      17.196  10.306  21.968  0.00  0.00    +0.122 HD
ENDROOT
BRANCH   7  10
ATOM     10  C   UNL     1      18.480   6.344  20.118  0.00  0.00    +0.064 C 
BRANCH  10  13
ATOM      2  O   UNL     1      21.202   5.435  22.293  0.00  0.00    -0.359 OA
ATOM      5  N   UNL     1      20.100   6.214  21.962  0.00  0.00    -0.083 NA
ATOM     13  C   UNL     1      19.677   5.734  20.789  0.00  0.00    +0.084 A 
ATOM     15  C   UNL     1      20.466   4.662  20.335  0.00  0.00    +0.071 A 
ATOM     16  C   UNL     1      21.410   4.514  21.317  0.00  0.00    +0.138 A 
BRANCH  16  19
ATOM     19  C   UNL     1      22.543   3.602  21.508  0.00  0.00    +0.077 C 
BRANCH  19  20
ATOM     20  C   UNL     1      23.721   3.891  20.551  0.00  0.00    +0.007 C 
BRANCH  20  22
ATOM     22  C   UNL     1      24.564   2.648  20.263  0.00  0.00    -0.003 C 
ATOM     25  C   UNL     1      24.102   1.458  21.088  0.00  0.00    +0.004 C 
ENDBRANCH  20  22
ENDBRANCH  19  20
ENDBRANCH  16  19
ENDBRANCH  10  13
ENDBRANCH   7  10
BRANCH   6  12
ATOM     12  C   UNL     1      15.552   6.889  19.545  0.00  0.00    +0.100 C 
BRANCH  12  14
ATOM      1  O   UNL     1      13.247   6.358  19.924  0.00  0.00    -0.276 OA
ATOM      4  N   UNL     1      13.700   8.439  19.009  0.00  0.00    -0.300 N 
ATOM     14  C   UNL     1      14.063   7.188  19.517  0.00  0.00    +0.216 C 
ATOM     18  C   UNL     1      14.683   9.405  18.533  0.00  0.00    +0.132 C 
BRANCH   4  17
ATOM     17  C   UNL     1      12.308   8.874  18.917  0.00  0.00    +0.142 C 
BRANCH  17  21
ATOM     21  C   UNL     1      11.773   9.330  20.243  0.00  0.00    -0.030 A 
ATOM     23  C   UNL     1      10.922   8.502  20.974  0.00  0.00    +0.005 A 
ATOM     24  C   UNL     1      12.128  10.583  20.744  0.00  0.00    +0.005 A 
ATOM     26  C   UNL     1      10.424   8.927  22.206  0.00  0.00    +0.000 A 
ATOM     27  C   UNL     1      11.631  11.007  21.977  0.00  0.00    +0.000 A 
ATOM     28  C   UNL     1      10.778  10.180  22.708  0.00  0.00    +0.000 A 
ENDBRANCH  17  21
ENDBRANCH   4  17
ENDBRANCH  12  14
ENDBRANCH   6  12
TORSDOF 9
ENDMDL
MODEL 2
REMARK VINA RESULT:      -6.3     27.118     30.178
REMARK  Name = 26742955
REMARK  11 active torsions:
REMARK  status: ('A' for Active; 'I' for Inactive)
REMARK    1  A    between atoms: N_4  and  C_17
REMARK    2  A    between atoms: N_4  and  C_18
REMARK    3  A    between atoms: C_6  and  C_12
REMARK    4  A    between atoms: C_7  and  C_10
REMARK    5  A    between atoms: C_10  and  C_13
REMARK    6  A    between atoms: C_12  and  C_14
REMARK    7  A    between atoms: C_16  and  C_19
REMARK    8  A    between atoms: C_17  and  C_21
REMARK    9  A    between atoms: C_19  and  C_20
REMARK   10  A    between atoms: C_20  and  C_22
REMARK   11  A    between atoms: C_22  and  C_25
REMARK                            x       y       z     vdW  Elec       q    Type
REMARK                         _______ _______ _______ _____ _____    ______ ____
ROOT
ATOM      3  N   UNL     1      -7.244  -9.554  15.269  0.00  0.00    -0.316 NA
ATOM      6  C   UNL     1      -6.098 -10.573  17.791  0.00  0.00    +0.004 C 
ATOM      7  C   UNL     1      -5.247 -10.340  16.519  0.00  0.00    +0.012 C 
ATOM      8  C   UNL     1      -7.342  -9.669  17.736  0.00  0.00    +0.019 C 
ATOM      9  C   UNL     1      -6.093 -10.457  15.240  0.00  0.00    +0.085 C 
ATOM     11  C   UNL     1      -8.107  -9.811  16.421  0.00  0.00    +0.081 C 
ATOM     29  H   UNL     1      -7.783  -9.667  14.412  0.00  0.00    +0.122 HD
ENDROOT
BRANCH   7  10
ATOM     10  C   UNL     1      -4.024 -11.254  16.441  0.00  0.00    +0.064 C 
BRANCH  10  13
ATOM      2  O   UNL     1      -1.264 -10.137  14.417  0.00  0.00    -0.359 OA
ATOM      5  N   UNL     1      -1.841 -10.461  15.639  0.00  0.00    -0.083 NA
ATOM     13  C   UNL     1      -3.092 -10.828  15.344  0.00  0.00    +0.084 A 
ATOM     15  C   UNL     1      -3.358 -10.757  13.965  0.00  0.00    +0.071 A 
ATOM     16  C   UNL     1      -2.177 -10.318  13.427  0.00  0.00    +0.138 A 
BRANCH  16  19
ATOM     19  C   UNL     1      -1.731 -10.020  12.062  0.00  0.00    +0.077 C 
BRANCH  19  20
ATOM     20  C   UNL     1      -2.761 -10.431  10.986  0.00  0.00    +0.007 C 
BRANCH  20  22
ATOM     22  C   UNL     1      -3.245  -9.244  10.153  0.00  0.00    -0.003 C 
ATOM     25  C   UNL     1      -4.747  -9.050  10.280  0.00  0.00    +0.004 C 
ENDBRANCH  20  22
ENDBRANCH  19  20
ENDBRANCH  16  19
ENDBRANCH  10  13
ENDBRANCH   7  10
BRANCH   6  12
ATOM     12  C   UNL     1      -6.496 -12.036  18.015  0.00  0.00    +0.100 C 
BRANCH  12  14
ATOM      1  O   UNL     1      -6.847 -11.867  20.379  0.00  0.00    -0.276 OA
ATOM      4  N   UNL     1      -8.551 -12.833  19.138  0.00  0.00    -0.300 N 
ATOM     14  C   UNL     1      -7.299 -12.230  19.290  0.00  0.00    +0.216 C 
ATOM     18  C   UNL     1      -9.064 -13.254  17.840  0.00  0.00    +0.132 C 
BRANCH   4  17
ATOM     17  C   UNL     1      -9.441 -13.088  20.270  0.00  0.00    +0.142 C 
BRANCH  17  21
ATOM     21  C   UNL     1     -10.593 -12.127  20.305  0.00  0.00    -0.030 A 
ATOM     23  C   UNL     1     -10.371 -10.765  20.105  0.00  0.00    +0.005 A 
ATOM     24  C   UNL     1     -11.885 -12.597  20.539  0.00  0.00    +0.005 A 
ATOM     26  C   UNL     1     -11.442  -9.872  20.139  0.00  0.00    +0.000 A 
ATOM     27  C   UNL     1     -12.956 -11.703  20.573  0.00  0.00    +0.000 A 
ATOM     28  C   UNL     1     -12.735 -10.340  20.373  0.00  0.00    +0.000 A 
ENDBRANCH  17  21
ENDBRANCH   4  17
ENDBRANCH  12  14
ENDBRANCH   6  12
TORSDOF 9
ENDMDL
MODEL 3
REMARK VINA RESULT:      -6.2     27.528     29.642
REMARK  Name = 26742955
REMARK  11 active torsions:
REMARK  status: ('A' for Active; 'I' for Inactive)
REMARK    1  A    between atoms: N_4  and  C_17
REMARK    2  A    between atoms: N_4  and  C_18
REMARK    3  A    between atoms: C_6  and  C_12
REMARK    4  A    between atoms: C_7  and  C_10
REMARK    5  A    between atoms: C_10  and  C_13
REMARK    6  A    between atoms: C_12  and  C_14
REMARK    7  A    between atoms: C_16  and  C_19
REMARK    8  A    between atoms: C_17  and  C_21
REMARK    9  A    between atoms: C_19  and  C_20
REMARK   10  A    between atoms: C_20  and  C_22
REMARK   11  A    between atoms: C_22  and  C_25
REMARK                            x       y       z     vdW  Elec       q    Type
REMARK                         _______ _______ _______ _____ _____    ______ ____
ROOT
ATOM      3  N   UNL     1      -3.586 -14.554  14.617  0.00  0.00    -0.316 NA
ATOM      6  C   UNL     1      -4.247 -11.681  14.756  0.00  0.00    +0.004 C 
ATOM      7  C   UNL     1      -3.156 -12.244  13.813  0.00  0.00    +0.012 C 
ATOM      8  C   UNL     1      -5.259 -12.795  15.073  0.00  0.00    +0.019 C 
ATOM      9  C   UNL     1      -2.553 -13.550  14.357  0.00  0.00    +0.085 C 
ATOM     11  C   UNL     1      -4.584 -14.072  15.570  0.00  0.00    +0.081 C 
ATOM     29  H   UNL     1      -3.150 -15.399  14.985  0.00  0.00    +0.122 HD
ENDROOT
BRANCH   7  10
ATOM     10  C   UNL     1      -2.053 -11.232  13.501  0.00  0.00    +0.064 C 
BRANCH  10  13
ATOM      2  O   UNL     1      -2.002  -9.152  10.563  0.00  0.00    -0.359 OA
ATOM      5  N   UNL     1      -1.406  -9.700  11.692  0.00  0.00    -0.083 NA
ATOM     13  C   UNL     1      -2.350 -10.469  12.242  0.00  0.00    +0.084 A 
ATOM     15  C   UNL     1      -3.551 -10.446  11.511  0.00  0.00    +0.071 A 
ATOM     16  C   UNL     1      -3.279  -9.604  10.466  0.00  0.00    +0.138 A 
BRANCH  16  19
ATOM     19  C   UNL     1      -4.059  -9.121   9.321  0.00  0.00    +0.077 C 
BRANCH  19  20
ATOM     20  C   UNL     1      -5.193  -8.152   9.726  0.00  0.00    +0.007 C 
BRANCH  20  22
ATOM     22  C   UNL     1      -6.539  -8.534   9.112  0.00  0.00    -0.003 C 
ATOM     25  C   UNL     1      -6.783 -10.032   9.188  0.00  0.00    +0.004 C 
ENDBRANCH  20  22
ENDBRANCH  19  20
ENDBRANCH  16  19
ENDBRANCH  10  13
ENDBRANCH   7  10
BRANCH   6  12
ATOM     12  C   UNL     1      -3.696 -11.060  16.045  0.00  0.00    +0.100 C 
BRANCH  12  14
ATOM      1  O   UNL     1      -5.468  -9.492  16.424  0.00  0.00    -0.276 OA
ATOM      4  N   UNL     1      -4.939 -10.911  18.179  0.00  0.00    -0.300 N 
ATOM     14  C   UNL     1      -4.782 -10.408  16.884  0.00  0.00    +0.216 C 
ATOM     18  C   UNL     1      -4.115 -11.995  18.701  0.00  0.00    +0.132 C 
BRANCH   4  17
ATOM     17  C   UNL     1      -5.939 -10.389  19.107  0.00  0.00    +0.142 C 
BRANCH  17  21
ATOM     21  C   UNL     1      -7.232 -11.148  19.024  0.00  0.00    -0.030 A 
ATOM     23  C   UNL     1      -7.415 -12.299  19.790  0.00  0.00    +0.005 A 
ATOM     24  C   UNL     1      -8.250 -10.701  18.181  0.00  0.00    +0.005 A 
ATOM     26  C   UNL     1      -8.616 -13.004  19.712  0.00  0.00    +0.000 A 
ATOM     27  C   UNL     1      -9.451 -11.406  18.104  0.00  0.00    +0.000 A 
ATOM     28  C   UNL     1      -9.635 -12.558  18.869  0.00  0.00    +0.000 A 
ENDBRANCH  17  21
ENDBRANCH   4  17
ENDBRANCH  12  14
ENDBRANCH   6  12
TORSDOF 9
ENDMDL
MODEL 4
REMARK VINA RESULT:      -6.1     27.894     30.643
REMARK  Name = 26742955
REMARK  11 active torsions:
REMARK  status: ('A' for Active; 'I' for Inactive)
REMARK    1  A    between atoms: N_4  and  C_17
REMARK    2  A    between atoms: N_4  and  C_18
REMARK    3  A    between atoms: C_6  and  C_12
REMARK    4  A    between atoms: C_7  and  C_10
REMARK    5  A    between atoms: C_10  and  C_13
REMARK    6  A    between atoms: C_12  and  C_14
REMARK    7  A    between atoms: C_16  and  C_19
REMARK    8  A    between atoms: C_17  and  C_21
REMARK    9  A    between atoms: C_19  and  C_20
REMARK   10  A    between atoms: C_20  and  C_22
REMARK   11  A    between atoms: C_22  and  C_25
REMARK                            x       y       z     vdW  Elec       q    Type
REMARK                         _______ _______ _______ _____ _____    ______ ____
ROOT
ATOM      3  N   UNL     1      -6.411 -11.947  19.006  0.00  0.00    -0.316 NA
ATOM      6  C   UNL     1      -4.609 -10.919  16.906  0.00  0.00    +0.004 C 
ATOM      7  C   UNL     1      -6.089 -10.482  17.026  0.00  0.00    +0.012 C 
ATOM      8  C   UNL     1      -4.113 -11.396  18.282  0.00  0.00    +0.019 C 
ATOM      9  C   UNL     1      -6.949 -11.566  17.698  0.00  0.00    +0.085 C 
ATOM     11  C   UNL     1      -5.038 -12.440  18.905  0.00  0.00    +0.081 C 
ATOM     29  H   UNL     1      -7.000 -12.671  19.414  0.00  0.00    +0.122 HD
ENDROOT
BRANCH   7  10
ATOM     10  C   UNL     1      -6.701 -10.065  15.688  0.00  0.00    +0.064 C 
BRANCH  10  13
ATOM      2  O   UNL     1     -10.230  -9.380  15.508  0.00  0.00    -0.359 OA
ATOM      5  N   UNL     1      -9.084 -10.045  15.091  0.00  0.00    -0.083 NA
ATOM     13  C   UNL     1      -8.105  -9.562  15.861  0.00  0.00    +0.084 A 
ATOM     15  C   UNL     1      -8.569  -8.599  16.775  0.00  0.00    +0.071 A 
ATOM     16  C   UNL     1      -9.911  -8.522  16.511  0.00  0.00    +0.138 A 
BRANCH  16  19
ATOM     19  C   UNL     1     -11.013  -7.733  17.074  0.00  0.00    +0.077 C 
BRANCH  19  20
ATOM     20  C   UNL     1     -11.181  -6.356  16.392  0.00  0.00    +0.007 C 
BRANCH  20  22
ATOM     22  C   UNL     1     -12.494  -6.241  15.618  0.00  0.00    -0.003 C 
ATOM     25  C   UNL     1     -12.257  -6.222  14.117  0.00  0.00    +0.004 C 
ENDBRANCH  20  22
ENDBRANCH  19  20
ENDBRANCH  16  19
ENDBRANCH  10  13
ENDBRANCH   7  10
BRANCH   6  12
ATOM     12  C   UNL     1      -4.359 -11.988  15.835  0.00  0.00    +0.100 C 
BRANCH  12  14
ATOM      1  O   UNL     1      -2.723 -10.482  14.941  0.00  0.00    -0.276 OA
ATOM      4  N   UNL     1      -3.103 -12.436  13.751  0.00  0.00    -0.300 N 
ATOM     14  C   UNL     1      -3.322 -11.554  14.814  0.00  0.00    +0.216 C 
ATOM     18  C   UNL     1      -3.823 -13.697  13.622  0.00  0.00    +0.132 C 
BRANCH   4  17
ATOM     17  C   UNL     1      -2.138 -12.160  12.689  0.00  0.00    +0.142 C 
BRANCH  17  21
ATOM     21  C   UNL     1      -2.748 -11.369  11.568  0.00  0.00    -0.030 A 
ATOM     23  C   UNL     1      -2.403 -10.030  11.392  0.00  0.00    +0.005 A 
ATOM     24  C   UNL     1      -3.660 -11.975  10.703  0.00  0.00    +0.005 A 
ATOM     26  C   UNL     1      -2.971  -9.295  10.351  0.00  0.00    +0.000 A 
ATOM     27  C   UNL     1      -4.226 -11.240   9.662  0.00  0.00    +0.000 A 
ATOM     28  C   UNL     1      -3.882  -9.900   9.485  0.00  0.00    +0.000 A 
ENDBRANCH  17  21
ENDBRANCH   4  17
ENDBRANCH  12  14
ENDBRANCH   6  12
TORSDOF 9
ENDMDL
MODEL 5
REMARK VINA RESULT:      -6.1      2.480     10.272
REMARK  Name = 26742955
REMARK  11 active torsions:
REMARK  status: ('A' for Active; 'I' for Inactive)
REMARK    1  A    between atoms: N_4  and  C_17
REMARK    2  A    between atoms: N_4  and  C_18
REMARK    3  A    between atoms: C_6  and  C_12
REMARK    4  A    between atoms: C_7  and  C_10
REMARK    5  A    between atoms: C_10  and  C_13
REMARK    6  A    between atoms: C_12  and  C_14
REMARK    7  A    between atoms: C_16  and  C_19
REMARK    8  A    between atoms: C_17  and  C_21
REMARK    9  A    between atoms: C_19  and  C_20
REMARK   10  A    between atoms: C_20  and  C_22
REMARK   11  A    between atoms: C_22  and  C_25
REMARK                            x       y       z     vdW  Elec       q    Type
REMARK                         _______ _______ _______ _____ _____    ______ ____
ROOT
ATOM      3  N   UNL     1      20.415   9.843  22.416  0.00  0.00    -0.316 NA
ATOM      6  C   UNL     1      21.202   7.564  20.715  0.00  0.00    +0.004 C 
ATOM      7  C   UNL     1      19.748   7.782  21.201  0.00  0.00    +0.012 C 
ATOM      8  C   UNL     1      21.937   8.915  20.705  0.00  0.00    +0.019 C 
ATOM      9  C   UNL     1      19.704   8.568  22.523  0.00  0.00    +0.085 C 
ATOM     11  C   UNL     1      21.814   9.654  22.036  0.00  0.00    +0.081 C 
ATOM     29  H   UNL     1      20.371  10.329  23.311  0.00  0.00    +0.122 HD
ENDROOT
BRANCH   7  10
ATOM     10  C   UNL     1      18.955   6.481  21.323  0.00  0.00    +0.064 C 
BRANCH  10  13
ATOM      2  O   UNL     1      16.643   5.724  18.670  0.00  0.00    -0.359 OA
ATOM      5  N   UNL     1      17.801   5.480  19.399  0.00  0.00    -0.083 NA
ATOM     13  C   UNL     1      17.826   6.433  20.335  0.00  0.00    +0.084 A 
ATOM     15  C   UNL     1      16.720   7.298  20.248  0.00  0.00    +0.071 A 
ATOM     16  C   UNL     1      16.008   6.808  19.185  0.00  0.00    +0.138 A 
BRANCH  16  19
ATOM     19  C   UNL     1      14.757   7.207  18.530  0.00  0.00    +0.077 C 
BRANCH  19  20
ATOM     20  C   UNL     1      13.920   8.194  19.375  0.00  0.00    +0.007 C 
BRANCH  20  22
ATOM     22  C   UNL     1      12.459   7.764  19.503  0.00  0.00    -0.003 C 
ATOM     25  C   UNL     1      12.275   6.733  20.605  0.00  0.00    +0.004 C 
ENDBRANCH  20  22
ENDBRANCH  19  20
ENDBRANCH  16  19
ENDBRANCH  10  13
ENDBRANCH   7  10
BRANCH   6  12
ATOM     12  C   UNL     1      21.982   6.524  21.528  0.00  0.00    +0.100 C 
BRANCH  12  14
ATOM      1  O   UNL     1      21.663   4.568  20.181  0.00  0.00    -0.276 OA
ATOM      4  N   UNL     1      23.849   5.273  20.496  0.00  0.00    -0.300 N 
ATOM     14  C   UNL     1      22.465   5.365  20.674  0.00  0.00    +0.216 C 
ATOM     18  C   UNL     1      24.779   6.226  21.089  0.00  0.00    +0.132 C 
BRANCH   4  17
ATOM     17  C   UNL     1      24.469   4.214  19.702  0.00  0.00    +0.142 C 
BRANCH  17  21
ATOM     21  C   UNL     1      24.870   3.040  20.547  0.00  0.00    -0.030 A 
ATOM     23  C   UNL     1      26.164   2.962  21.062  0.00  0.00    +0.005 A 
ATOM     24  C   UNL     1      23.949   2.028  20.817  0.00  0.00    +0.005 A 
ATOM     26  C   UNL     1      26.537   1.871  21.847  0.00  0.00    +0.000 A 
ATOM     27  C   UNL     1      24.323   0.937  21.603  0.00  0.00    +0.000 A 
ATOM     28  C   UNL     1      25.617   0.858  22.118  0.00  0.00    +0.000 A 
ENDBRANCH  17  21
ENDBRANCH   4  17
ENDBRANCH  12  14
ENDBRANCH   6  12
TORSDOF 9
ENDMDL
MODEL 6
REMARK VINA RESULT:      -6.0     14.316     16.702
REMARK  Name = 26742955
REMARK  11 active torsions:
REMARK  status: ('A' for Active; 'I' for Inactive)
REMARK    1  A    between atoms: N_4  and  C_17
REMARK    2  A    between atoms: N_4  and  C_18
REMARK    3  A    between atoms: C_6  and  C_12
REMARK    4  A    between atoms: C_7  and  C_10
REMARK    5  A    between atoms: C_10  and  C_13
REMARK    6  A    between atoms: C_12  and  C_14
REMARK    7  A    between atoms: C_16  and  C_19
REMARK    8  A    between atoms: C_17  and  C_21
REMARK    9  A    between atoms: C_19  and  C_20
REMARK   10  A    between atoms: C_20  and  C_22
REMARK   11  A    between atoms: C_22  and  C_25
REMARK                            x       y       z     vdW  Elec       q    Type
REMARK                         _______ _______ _______ _____ _____    ______ ____
ROOT
ATOM      3  N   UNL     1      17.736   9.050   5.190  0.00  0.00    -0.316 NA
ATOM      6  C   UNL     1      14.930   9.669   5.864  0.00  0.00    +0.004 C 
ATOM      7  C   UNL     1      15.428   8.227   5.595  0.00  0.00    +0.012 C 
ATOM      8  C   UNL     1      16.117  10.532   6.324  0.00  0.00    +0.019 C 
ATOM      9  C   UNL     1      16.654   8.214   4.666  0.00  0.00    +0.085 C 
ATOM     11  C   UNL     1      17.310  10.436   5.375  0.00  0.00    +0.081 C 
ATOM     29  H   UNL     1      18.525   9.023   4.545  0.00  0.00    +0.122 HD
ENDROOT
BRANCH   7  10
ATOM     10  C   UNL     1      14.334   7.307   5.053  0.00  0.00    +0.064 C 
BRANCH  10  13
ATOM      2  O   UNL     1      12.617   6.183   8.011  0.00  0.00    -0.359 OA
ATOM      5  N   UNL     1      13.767   6.380   7.257  0.00  0.00    -0.083 NA
ATOM     13  C   UNL     1      13.344   6.945   6.122  0.00  0.00    +0.084 A 
ATOM     15  C   UNL     1      11.950   7.127   6.104  0.00  0.00    +0.071 A 
ATOM     16  C   UNL     1      11.541   6.632   7.314  0.00  0.00    +0.138 A 
BRANCH  16  19
ATOM     19  C   UNL     1      10.235   6.499   7.969  0.00  0.00    +0.077 C 
BRANCH  19  20
ATOM     20  C   UNL     1       9.545   5.147   7.676  0.00  0.00    +0.007 C 
BRANCH  20  22
ATOM     22  C   UNL     1       9.689   4.153   8.827  0.00  0.00    -0.003 C 
ATOM     25  C   UNL     1       9.025   4.666  10.094  0.00  0.00    +0.004 C 
ENDBRANCH  20  22
ENDBRANCH  19  20
ENDBRANCH  16  19
ENDBRANCH  10  13
ENDBRANCH   7  10
BRANCH   6  12
ATOM     12  C   UNL     1      14.216  10.314   4.671  0.00  0.00    +0.100 C 
BRANCH  12  14
ATOM      1  O   UNL     1      12.332  10.697   6.101  0.00  0.00    -0.276 OA
ATOM      4  N   UNL     1      11.916  10.641   3.820  0.00  0.00    -0.300 N 
ATOM     14  C   UNL     1      12.743  10.568   4.945  0.00  0.00    +0.216 C 
ATOM     18  C   UNL     1      12.425  10.485   2.463  0.00  0.00    +0.132 C 
BRANCH   4  17
ATOM     17  C   UNL     1      10.477  10.879   3.920  0.00  0.00    +0.142 C 
BRANCH  17  21
ATOM     21  C   UNL     1       9.719   9.619   4.221  0.00  0.00    -0.030 A 
ATOM     23  C   UNL     1       8.959   9.523   5.386  0.00  0.00    +0.005 A 
ATOM     24  C   UNL     1       9.775   8.544   3.334  0.00  0.00    +0.005 A 
ATOM     26  C   UNL     1       8.256   8.352   5.666  0.00  0.00    +0.000 A 
ATOM     27  C   UNL     1       9.070   7.372   3.614  0.00  0.00    +0.000 A 
ATOM     28  C   UNL     1       8.311   7.276   4.780  0.00  0.00    +0.000 A 
ENDBRANCH  17  21
ENDBRANCH   4  17
ENDBRANCH  12  14
ENDBRANCH   6  12
TORSDOF 9
ENDMDL
MODEL 7
REMARK VINA RESULT:      -6.0     27.943     30.149
REMARK  Name = 26742955
REMARK  11 active torsions:
REMARK  status: ('A' for Active; 'I' for Inactive)
REMARK    1  A    between atoms: N_4  and  C_17
REMARK    2  A    between atoms: N_4  and  C_18
REMARK    3  A    between atoms: C_6  and  C_12
REMARK    4  A    between atoms: C_7  and  C_10
REMARK    5  A    between atoms: C_10  and  C_13
REMARK    6  A    between atoms: C_12  and  C_14
REMARK    7  A    between atoms: C_16  and  C_19
REMARK    8  A    between atoms: C_17  and  C_21
REMARK    9  A    between atoms: C_19  and  C_20
REMARK   10  A    between atoms: C_20  and  C_22
REMARK   11  A    between atoms: C_22  and  C_25
REMARK                            x       y       z     vdW  Elec       q    Type
REMARK                         _______ _______ _______ _____ _____    ______ ____
ROOT
ATOM      3  N   UNL     1      -2.499 -12.898  14.605  0.00  0.00    -0.316 NA
ATOM      6  C   UNL     1      -3.113 -10.735  12.693  0.00  0.00    +0.004 C 
ATOM      7  C   UNL     1      -3.821 -10.866  14.064  0.00  0.00    +0.012 C 
ATOM      8  C   UNL     1      -1.743 -11.430  12.767  0.00  0.00    +0.019 C 
ATOM      9  C   UNL     1      -3.845 -12.324  14.554  0.00  0.00    +0.085 C 
ATOM     11  C   UNL     1      -1.842 -12.858  13.300  0.00  0.00    +0.081 C 
ATOM     29  H   UNL     1      -2.557 -13.864  14.924  0.00  0.00    +0.122 HD
ENDROOT
BRANCH   7  10
ATOM     10  C   UNL     1      -5.230 -10.274  14.070  0.00  0.00    +0.064 C 
BRANCH  10  13
ATOM      2  O   UNL     1      -7.366 -10.889  16.902  0.00  0.00    -0.359 OA
ATOM      5  N   UNL     1      -7.085 -10.931  15.542  0.00  0.00    -0.083 NA
ATOM     13  C   UNL     1      -5.868 -10.392  15.424  0.00  0.00    +0.084 A 
ATOM     15  C   UNL     1      -5.337  -9.996  16.664  0.00  0.00    +0.071 A 
ATOM     16  C   UNL     1      -6.318 -10.331  17.560  0.00  0.00    +0.138 A 
BRANCH  16  19
ATOM     19  C   UNL     1      -6.449 -10.209  19.016  0.00  0.00    +0.077 C 
BRANCH  19  20
ATOM     20  C   UNL     1      -6.072 -11.505  19.768  0.00  0.00    +0.007 C 
BRANCH  20  22
ATOM     22  C   UNL     1      -5.071 -12.363  18.995  0.00  0.00    -0.003 C 
ATOM     25  C   UNL     1      -3.650 -12.143  19.487  0.00  0.00    +0.004 C 
ENDBRANCH  20  22
ENDBRANCH  19  20
ENDBRANCH  16  19
ENDBRANCH  10  13
ENDBRANCH   7  10
BRANCH   6  12
ATOM     12  C   UNL     1      -3.934 -11.270  11.515  0.00  0.00    +0.100 C 
BRANCH  12  14
ATOM      1  O   UNL     1      -3.065  -9.562  10.077  0.00  0.00    -0.276 OA
ATOM      4  N   UNL     1      -5.255 -10.224   9.704  0.00  0.00    -0.300 N 
ATOM     14  C   UNL     1      -4.028 -10.273  10.373  0.00  0.00    +0.216 C 
ATOM     18  C   UNL     1      -6.381 -11.074  10.071  0.00  0.00    +0.132 C 
BRANCH   4  17
ATOM     17  C   UNL     1      -5.502  -9.316   8.585  0.00  0.00    +0.142 C 
BRANCH  17  21
ATOM     21  C   UNL     1      -5.575 -10.046   7.275  0.00  0.00    -0.030 A 
ATOM     23  C   UNL     1      -4.670 -11.069   6.996  0.00  0.00    +0.005 A 
ATOM     24  C   UNL     1      -6.549  -9.700   6.338  0.00  0.00    +0.005 A 
ATOM     26  C   UNL     1      -4.737 -11.747   5.779  0.00  0.00    +0.000 A 
ATOM     27  C   UNL     1      -6.617 -10.379   5.121  0.00  0.00    +0.000 A 
ATOM     28  C   UNL     1      -5.711 -11.402   4.840  0.00  0.00    +0.000 A 
ENDBRANCH  17  21
ENDBRANCH   4  17
ENDBRANCH  12  14
ENDBRANCH   6  12
TORSDOF 9
ENDMDL
MODEL 8
REMARK VINA RESULT:      -5.9     29.432     32.532
REMARK  Name = 26742955
REMARK  11 active torsions:
REMARK  status: ('A' for Active; 'I' for Inactive)
REMARK    1  A    between atoms: N_4  and  C_17
REMARK    2  A    between atoms: N_4  and  C_18
REMARK    3  A    between atoms: C_6  and  C_12
REMARK    4  A    between atoms: C_7  and  C_10
REMARK    5  A    between atoms: C_10  and  C_13
REMARK    6  A    between atoms: C_12  and  C_14
REMARK    7  A    between atoms: C_16  and  C_19
REMARK    8  A    between atoms: C_17  and  C_21
REMARK    9  A    between atoms: C_19  and  C_20
REMARK   10  A    between atoms: C_20  and  C_22
REMARK   11  A    between atoms: C_22  and  C_25
REMARK                            x       y       z     vdW  Elec       q    Type
REMARK                         _______ _______ _______ _____ _____    ______ ____
ROOT
ATOM      3  N   UNL     1     -17.060   8.900  32.736  0.00  0.00    -0.316 NA
ATOM      6  C   UNL     1     -14.350   8.498  31.637  0.00  0.00    +0.004 C 
ATOM      7  C   UNL     1     -15.056   7.447  32.529  0.00  0.00    +0.012 C 
ATOM      8  C   UNL     1     -15.414   9.374  30.954  0.00  0.00    +0.019 C 
ATOM      9  C   UNL     1     -16.080   8.099  33.473  0.00  0.00    +0.085 C 
ATOM     11  C   UNL     1     -16.418   9.952  31.949  0.00  0.00    +0.081 C 
ATOM     29  H   UNL     1     -17.714   9.322  33.394  0.00  0.00    +0.122 HD
ENDROOT
BRANCH   7  10
ATOM     10  C   UNL     1     -14.078   6.576  33.317  0.00  0.00    +0.064 C 
BRANCH  10  13
ATOM      2  O   UNL     1     -15.133   3.146  33.031  0.00  0.00    -0.359 OA
ATOM      5  N   UNL     1     -15.259   4.433  33.539  0.00  0.00    -0.083 NA
ATOM     13  C   UNL     1     -14.254   5.121  32.990  0.00  0.00    +0.084 A 
ATOM     15  C   UNL     1     -13.469   4.329  32.134  0.00  0.00    +0.071 A 
ATOM     16  C   UNL     1     -14.063   3.096  32.195  0.00  0.00    +0.138 A 
BRANCH  16  19
ATOM     19  C   UNL     1     -13.784   1.801  31.565  0.00  0.00    +0.077 C 
BRANCH  19  20
ATOM     20  C   UNL     1     -14.844   0.726  31.895  0.00  0.00    +0.007 C 
BRANCH  20  22
ATOM     22  C   UNL     1     -14.943  -0.352  30.816  0.00  0.00    -0.003 C 
ATOM     25  C   UNL     1     -13.704  -0.376  29.935  0.00  0.00    +0.004 C 
ENDBRANCH  20  22
ENDBRANCH  19  20
ENDBRANCH  16  19
ENDBRANCH  10  13
ENDBRANCH   7  10
BRANCH   6  12
ATOM     12  C   UNL     1     -13.328   9.363  32.384  0.00  0.00    +0.100 C 
BRANCH  12  14
ATOM      1  O   UNL     1     -11.262   8.860  31.281  0.00  0.00    -0.276 OA
ATOM      4  N   UNL     1     -12.067  11.022  31.050  0.00  0.00    -0.300 N 
ATOM     14  C   UNL     1     -12.123   9.708  31.527  0.00  0.00    +0.216 C 
ATOM     18  C   UNL     1     -13.098  12.008  31.354  0.00  0.00    +0.132 C 
BRANCH   4  17
ATOM     17  C   UNL     1     -10.972  11.506  30.213  0.00  0.00    +0.142 C 
BRANCH  17  21
ATOM     21  C   UNL     1     -11.271  11.349  28.751  0.00  0.00    -0.030 A 
ATOM     23  C   UNL     1     -10.981  10.147  28.105  0.00  0.00    +0.005 A 
ATOM     24  C   UNL     1     -11.839  12.405  28.038  0.00  0.00    +0.005 A 
ATOM     26  C   UNL     1     -11.257  10.002  26.746  0.00  0.00    +0.000 A 
ATOM     27  C   UNL     1     -12.117  12.258  26.678  0.00  0.00    +0.000 A 
ATOM     28  C   UNL     1     -11.826  11.057  26.032  0.00  0.00    +0.000 A 
ENDBRANCH  17  21
ENDBRANCH   4  17
ENDBRANCH  12  14
ENDBRANCH   6  12
TORSDOF 9
ENDMDL
MODEL 9
REMARK VINA RESULT:      -5.9     27.265     30.160
REMARK  Name = 26742955
REMARK  11 active torsions:
REMARK  status: ('A' for Active; 'I' for Inactive)
REMARK    1  A    between atoms: N_4  and  C_17
REMARK    2  A    between atoms: N_4  and  C_18
REMARK    3  A    between atoms: C_6  and  C_12
REMARK    4  A    between atoms: C_7  and  C_10
REMARK    5  A    between atoms: C_10  and  C_13
REMARK    6  A    between atoms: C_12  and  C_14
REMARK    7  A    between atoms: C_16  and  C_19
REMARK    8  A    between atoms: C_17  and  C_21
REMARK    9  A    between atoms: C_19  and  C_20
REMARK   10  A    between atoms: C_20  and  C_22
REMARK   11  A    between atoms: C_22  and  C_25
REMARK                            x       y       z     vdW  Elec       q    Type
REMARK                         _______ _______ _______ _____ _____    ______ ____
ROOT
ATOM      3  N   UNL     1     -10.648 -10.337  16.659  0.00  0.00    -0.316 NA
ATOM      6  C   UNL     1      -7.817  -9.592  16.285  0.00  0.00    +0.004 C 
ATOM      7  C   UNL     1      -8.660 -10.262  15.172  0.00  0.00    +0.012 C 
ATOM      8  C   UNL     1      -8.758  -8.862  17.258  0.00  0.00    +0.019 C 
ATOM      9  C   UNL     1      -9.797 -11.116  15.758  0.00  0.00    +0.085 C 
ATOM     11  C   UNL     1      -9.884  -9.762  17.765  0.00  0.00    +0.081 C 
ATOM     29  H   UNL     1     -11.381 -10.938  17.033  0.00  0.00    +0.122 HD
ENDROOT
BRANCH   7  10
ATOM     10  C   UNL     1      -7.818 -11.084  14.196  0.00  0.00    +0.064 C 
BRANCH  10  13
ATOM      2  O   UNL     1      -7.349  -8.987  11.308  0.00  0.00    -0.359 OA
ATOM      5  N   UNL     1      -8.148  -9.700  12.193  0.00  0.00    -0.083 NA
ATOM     13  C   UNL     1      -7.297 -10.234  13.073  0.00  0.00    +0.084 A 
ATOM     15  C   UNL     1      -5.960  -9.896  12.797  0.00  0.00    +0.071 A 
ATOM     16  C   UNL     1      -6.048  -9.111  11.678  0.00  0.00    +0.138 A 
BRANCH  16  19
ATOM     19  C   UNL     1      -5.061  -8.414  10.845  0.00  0.00    +0.077 C 
BRANCH  19  20
ATOM     20  C   UNL     1      -4.097  -9.377  10.116  0.00  0.00    +0.007 C 
BRANCH  20  22
ATOM     22  C   UNL     1      -4.826 -10.340   9.179  0.00  0.00    -0.003 C 
ATOM     25  C   UNL     1      -4.265 -11.749   9.281  0.00  0.00    +0.004 C 
ENDBRANCH  20  22
ENDBRANCH  19  20
ENDBRANCH  16  19
ENDBRANCH  10  13
ENDBRANCH   7  10
BRANCH   6  12
ATOM     12  C   UNL     1      -6.897 -10.560  17.038  0.00  0.00    +0.100 C 
BRANCH  12  14
ATOM      1  O   UNL     1      -5.033  -9.257  16.284  0.00  0.00    -0.276 OA
ATOM      4  N   UNL     1      -4.594 -11.451  16.892  0.00  0.00    -0.300 N 
ATOM     14  C   UNL     1      -5.431 -10.348  16.700  0.00  0.00    +0.216 C 
ATOM     18  C   UNL     1      -5.088 -12.731  17.386  0.00  0.00    +0.132 C 
BRANCH   4  17
ATOM     17  C   UNL     1      -3.160 -11.405  16.612  0.00  0.00    +0.142 C 
BRANCH  17  21
ATOM     21  C   UNL     1      -2.874 -11.457  15.139  0.00  0.00    -0.030 A 
ATOM     23  C   UNL     1      -3.315 -12.541  14.381  0.00  0.00    +0.005 A 
ATOM     24  C   UNL     1      -2.167 -10.421  14.530  0.00  0.00    +0.005 A 
ATOM     26  C   UNL     1      -3.048 -12.590  13.013  0.00  0.00    +0.000 A 
ATOM     27  C   UNL     1      -1.901 -10.469  13.161  0.00  0.00    +0.000 A 
ATOM     28  C   UNL     1      -2.341 -11.553  12.402  0.00  0.00    +0.000 A 
ENDBRANCH  17  21
ENDBRANCH   4  17
ENDBRANCH  12  14
ENDBRANCH   6  12
TORSDOF 9
ENDMDL
MODEL 10
REMARK VINA RESULT:      -5.9     15.834     18.413
REMARK  Name = 26742955
REMARK  11 active torsions:
REMARK  status: ('A' for Active; 'I' for Inactive)
REMARK    1  A    between atoms: N_4  and  C_17
REMARK    2  A    between atoms: N_4  and  C_18
REMARK    3  A    between atoms: C_6  and  C_12
REMARK    4  A    between atoms: C_7  and  C_10
REMARK    5  A    between atoms: C_10  and  C_13
REMARK    6  A    between atoms: C_12  and  C_14
REMARK    7  A    between atoms: C_16  and  C_19
REMARK    8  A    between atoms: C_17  and  C_21
REMARK    9  A    between atoms: C_19  and  C_20
REMARK   10  A    between atoms: C_20  and  C_22
REMARK   11  A    between atoms: C_22  and  C_25
REMARK                            x       y       z     vdW  Elec       q    Type
REMARK                         _______ _______ _______ _____ _____    ______ ____
ROOT
ATOM      3  N   UNL     1       9.765   7.677   6.843  0.00  0.00    -0.316 NA
ATOM      6  C   UNL     1      10.925   5.617   5.076  0.00  0.00    +0.004 C 
ATOM      7  C   UNL     1      11.696   6.895   5.491  0.00  0.00    +0.012 C 
ATOM      8  C   UNL     1       9.853   5.311   6.136  0.00  0.00    +0.019 C 
ATOM      9  C   UNL     1      10.739   8.054   5.817  0.00  0.00    +0.085 C 
ATOM     11  C   UNL     1       8.969   6.520   6.437  0.00  0.00    +0.081 C 
ATOM     29  H   UNL     1       9.145   8.466   7.025  0.00  0.00    +0.122 HD
ENDROOT
BRANCH   7  10
ATOM     10  C   UNL     1      12.734   7.330   4.456  0.00  0.00    +0.064 C 
BRANCH  10  13
ATOM      2  O   UNL     1      15.595   7.652   6.618  0.00  0.00    -0.359 OA
ATOM      5  N   UNL     1      14.317   7.187   6.330  0.00  0.00    -0.083 NA
ATOM     13  C   UNL     1      14.052   7.646   5.103  0.00  0.00    +0.084 A 
ATOM     15  C   UNL     1      15.114   8.398   4.572  0.00  0.00    +0.071 A 
ATOM     16  C   UNL     1      16.059   8.372   5.563  0.00  0.00    +0.138 A 
BRANCH  16  19
ATOM     19  C   UNL     1      17.405   8.940   5.700  0.00  0.00    +0.077 C 
BRANCH  19  20
ATOM     20  C   UNL     1      18.281   8.727   4.445  0.00  0.00    +0.007 C 
BRANCH  20  22
ATOM     22  C   UNL     1      19.369   7.675   4.659  0.00  0.00    -0.003 C 
ATOM     25  C   UNL     1      20.422   8.154   5.645  0.00  0.00    +0.004 C 
ENDBRANCH  20  22
ENDBRANCH  19  20
ENDBRANCH  16  19
ENDBRANCH  10  13
ENDBRANCH   7  10
BRANCH   6  12
ATOM     12  C   UNL     1      10.303   5.691   3.677  0.00  0.00    +0.100 C 
BRANCH  12  14
ATOM      1  O   UNL     1      10.913   3.426   3.187  0.00  0.00    -0.276 OA
ATOM      4  N   UNL     1      11.093   4.953   1.451  0.00  0.00    -0.300 N 
ATOM     14  C   UNL     1      10.795   4.579   2.765  0.00  0.00    +0.216 C 
ATOM     18  C   UNL     1      10.945   6.323   0.975  0.00  0.00    +0.132 C 
BRANCH   4  17
ATOM     17  C   UNL     1      11.576   3.999   0.455  0.00  0.00    +0.142 C 
BRANCH  17  21
ATOM     21  C   UNL     1      13.074   3.992   0.365  0.00  0.00    -0.030 A 
ATOM     23  C   UNL     1      13.837   3.577   1.457  0.00  0.00    +0.005 A 
ATOM     24  C   UNL     1      13.704   4.400  -0.811  0.00  0.00    +0.005 A 
ATOM     26  C   UNL     1      15.229   3.572   1.374  0.00  0.00    +0.000 A 
ATOM     27  C   UNL     1      15.097   4.394  -0.894  0.00  0.00    +0.000 A 
ATOM     28  C   UNL     1      15.860   3.980   0.198  0.00  0.00    +0.000 A 
ENDBRANCH  17  21
ENDBRANCH   4  17
ENDBRANCH  12  14
ENDBRANCH   6  12
TORSDOF 9
ENDMDL
