MODEL 1
REMARK VINA RESULT:      -7.2      0.000      0.000
REMARK  Name = 11882023
REMARK  10 active torsions:
REMARK  status: ('A' for Active; 'I' for Inactive)
REMARK    1  A    between atoms: N_8  and  C_13
REMARK    2  A    between atoms: N_9  and  C_19
REMARK    3  A    between atoms: N_10  and  C_29
REMARK    4  A    between atoms: C_14  and  C_17
REMARK    5  A    between atoms: C_18  and  C_22
REMARK    6  A    between atoms: C_19  and  C_21
REMARK    7  A    between atoms: C_19  and  C_24
REMARK    8  A    between atoms: C_21  and  C_23
REMARK    9  A    between atoms: C_25  and  C_30
REMARK   10  A    between atoms: C_25  and  C_31
REMARK                            x       y       z     vdW  Elec       q    Type
REMARK                         _______ _______ _______ _____ _____    ______ ____
ROOT
ATOM      4  O   UNL     1      -6.406  -9.814  17.121  0.00  0.00    -0.271 OA
ATOM      7  N   UNL     1      -7.395 -10.530  15.150  0.00  0.00    -0.285 N 
ATOM     13  C   UNL     1      -7.997 -11.437  13.033  0.00  0.00    +0.094 C 
ATOM     14  C   UNL     1      -6.349 -11.478  14.796  0.00  0.00    +0.164 C 
ATOM     15  C   UNL     1      -6.949 -12.340  13.687  0.00  0.00    +0.056 C 
ATOM     16  C   UNL     1      -8.501 -10.577  14.189  0.00  0.00    +0.131 C 
ATOM     18  C   UNL     1      -7.360  -9.824  16.342  0.00  0.00    +0.240 C 
ENDROOT
BRANCH  13   8
ATOM      5  O   UNL     1      -9.363 -10.442  10.720  0.00  0.00    -0.252 OA
ATOM      8  N   UNL     1      -7.431 -10.636  11.976  0.00  0.00    -0.295 N 
ATOM     10  N   UNL     1      -7.361  -9.438  10.018  0.00  0.00    -0.267 N 
ATOM     20  C   UNL     1      -8.170 -10.188  10.874  0.00  0.00    +0.304 C 
ATOM     41  H   UNL     1      -6.436 -10.437  11.999  0.00  0.00    +0.151 HD
ATOM     43  H   UNL     1      -6.388  -9.321  10.291  0.00  0.00    +0.156 HD
BRANCH  10  29
ATOM      1  F   UNL     1      -7.311 -10.816   7.595  0.00  0.00    -0.203 F 
ATOM      2  F   UNL     1      -8.804  -6.979   5.264  0.00  0.00    -0.205 F 
ATOM     29  C   UNL     1      -7.726  -8.813   8.803  0.00  0.00    +0.070 A 
ATOM     36  C   UNL     1      -7.692  -9.531   7.607  0.00  0.00    +0.147 A 
ATOM     37  C   UNL     1      -8.125  -7.476   8.803  0.00  0.00    +0.029 A 
ATOM     38  C   UNL     1      -8.055  -8.910   6.411  0.00  0.00    +0.078 A 
ATOM     39  C   UNL     1      -8.488  -6.857   7.608  0.00  0.00    +0.040 A 
ATOM     40  C   UNL     1      -8.453  -7.574   6.412  0.00  0.00    +0.126 A 
ENDBRANCH  10  29
ENDBRANCH  13   8
BRANCH  14  17
ATOM      3  O   UNL     1      -5.256  -9.684  13.664  0.00  0.00    -0.274 OA
ATOM      9  N   UNL     1      -3.962 -11.334  14.672  0.00  0.00    -0.302 N 
ATOM     17  C   UNL     1      -5.149 -10.719  14.315  0.00  0.00    +0.234 C 
ATOM     42  H   UNL     1      -3.991 -12.181  15.233  0.00  0.00    +0.150 HD
BRANCH   9  19
ATOM     19  C   UNL     1      -2.662 -10.816  14.311  0.00  0.00    +0.163 C 
BRANCH  19  24
ATOM      6  O   UNL     1      -0.837  -9.975  15.678  0.00  0.00    -0.274 OA
ATOM     12  N   UNL     1      -2.520 -11.159  16.699  0.00  0.00    -0.328 N 
ATOM     24  C   UNL     1      -1.888 -10.607  15.604  0.00  0.00    +0.231 C 
ATOM     45  H   UNL     1      -3.402 -11.657  16.627  0.00  0.00    +0.145 HD
ATOM     46  H   UNL     1      -2.117 -11.080  17.627  0.00  0.00    +0.145 HD
ENDBRANCH  19  24
BRANCH  19  21
ATOM     21  C   UNL     1      -1.899 -11.761  13.376  0.00  0.00    +0.069 C 
BRANCH  21  23
ATOM     11  N   UNL     1      -3.712 -13.215  10.528  0.00  0.00    -0.360 N 
ATOM     23  C   UNL     1      -2.654 -12.084  12.118  0.00  0.00    -0.020 A 
ATOM     26  C   UNL     1      -3.085 -11.159  11.127  0.00  0.00    +0.003 A 
ATOM     27  C   UNL     1      -3.055 -13.340  11.722  0.00  0.00    +0.087 A 
ATOM     28  C   UNL     1      -3.746 -11.894  10.140  0.00  0.00    +0.047 A 
ATOM     32  C   UNL     1      -2.976  -9.763  10.973  0.00  0.00    +0.010 A 
ATOM     33  C   UNL     1      -4.305 -11.300   9.003  0.00  0.00    +0.026 A 
ATOM     34  C   UNL     1      -3.530  -9.156   9.841  0.00  0.00    +0.001 A 
ATOM     35  C   UNL     1      -4.185  -9.914   8.872  0.00  0.00    +0.002 A 
ATOM     44  H   UNL     1      -4.117 -13.980  10.006  0.00  0.00    +0.165 HD
ENDBRANCH  21  23
ENDBRANCH  19  21
ENDBRANCH   9  19
ENDBRANCH  14  17
BRANCH  18  22
ATOM     22  C   UNL     1      -8.560  -9.035  16.682  0.00  0.00    +0.066 C 
ATOM     25  C   UNL     1      -9.561  -9.461  17.470  0.00  0.00    -0.071 C 
ATOM     30  C   UNL     1      -9.501 -10.842  18.073  0.00  0.00    +0.039 C 
ATOM     31  C   UNL     1     -10.797  -8.687  17.840  0.00  0.00    +0.039 C 
ENDBRANCH  18  22
TORSDOF 8
ENDMDL
MODEL 2
REMARK VINA RESULT:      -7.2     24.136     26.828
REMARK  Name = 11882023
REMARK  10 active torsions:
REMARK  status: ('A' for Active; 'I' for Inactive)
REMARK    1  A    between atoms: N_8  and  C_13
REMARK    2  A    between atoms: N_9  and  C_19
REMARK    3  A    between atoms: N_10  and  C_29
REMARK    4  A    between atoms: C_14  and  C_17
REMARK    5  A    between atoms: C_18  and  C_22
REMARK    6  A    between atoms: C_19  and  C_21
REMARK    7  A    between atoms: C_19  and  C_24
REMARK    8  A    between atoms: C_21  and  C_23
REMARK    9  A    between atoms: C_25  and  C_30
REMARK   10  A    between atoms: C_25  and  C_31
REMARK                            x       y       z     vdW  Elec       q    Type
REMARK                         _______ _______ _______ _____ _____    ______ ____
ROOT
ATOM      4  O   UNL     1       9.227   8.681   7.065  0.00  0.00    -0.271 OA
ATOM      7  N   UNL     1      11.376   7.997   6.528  0.00  0.00    -0.285 N 
ATOM     13  C   UNL     1      13.544   7.594   5.633  0.00  0.00    +0.094 C 
ATOM     14  C   UNL     1      11.668   9.113   5.639  0.00  0.00    +0.164 C 
ATOM     15  C   UNL     1      13.178   9.065   5.421  0.00  0.00    +0.056 C 
ATOM     16  C   UNL     1      12.542   7.123   6.683  0.00  0.00    +0.131 C 
ATOM     18  C   UNL     1      10.183   7.923   7.229  0.00  0.00    +0.240 C 
ENDROOT
BRANCH  13   8
ATOM      5  O   UNL     1      15.634   7.106   3.736  0.00  0.00    -0.252 OA
ATOM      8  N   UNL     1      13.439   6.835   4.412  0.00  0.00    -0.295 N 
ATOM     10  N   UNL     1      14.116   5.869   2.441  0.00  0.00    -0.267 N 
ATOM     20  C   UNL     1      14.514   6.642   3.535  0.00  0.00    +0.304 C 
ATOM     41  H   UNL     1      12.530   6.473   4.144  0.00  0.00    +0.151 HD
ATOM     43  H   UNL     1      13.146   5.563   2.424  0.00  0.00    +0.156 HD
BRANCH  10  29
ATOM      1  F   UNL     1      14.796   3.193   2.061  0.00  0.00    -0.203 F 
ATOM      2  F   UNL     1      17.187   4.251  -1.881  0.00  0.00    -0.205 F 
ATOM     29  C   UNL     1      14.901   5.454   1.341  0.00  0.00    +0.070 A 
ATOM     36  C   UNL     1      15.223   4.105   1.178  0.00  0.00    +0.147 A 
ATOM     37  C   UNL     1      15.351   6.394   0.415  0.00  0.00    +0.029 A 
ATOM     38  C   UNL     1      15.996   3.700   0.090  0.00  0.00    +0.078 A 
ATOM     39  C   UNL     1      16.123   5.989  -0.673  0.00  0.00    +0.040 A 
ATOM     40  C   UNL     1      16.446   4.641  -0.835  0.00  0.00    +0.126 A 
ENDBRANCH  10  29
ENDBRANCH  13   8
BRANCH  14  17
ATOM      3  O   UNL     1      10.976   9.736   3.441  0.00  0.00    -0.274 OA
ATOM      9  N   UNL     1      10.175   7.750   4.354  0.00  0.00    -0.302 N 
ATOM     17  C   UNL     1      10.920   8.917   4.355  0.00  0.00    +0.234 C 
ATOM     42  H   UNL     1      10.220   7.133   5.159  0.00  0.00    +0.150 HD
BRANCH   9  19
ATOM     19  C   UNL     1       9.346   7.341   3.243  0.00  0.00    +0.163 C 
BRANCH  19  24
ATOM      6  O   UNL     1       7.811   8.871   2.144  0.00  0.00    -0.274 OA
ATOM     12  N   UNL     1       7.538   8.464   4.388  0.00  0.00    -0.328 N 
ATOM     24  C   UNL     1       8.177   8.314   3.176  0.00  0.00    +0.231 C 
ATOM     45  H   UNL     1       7.836   7.977   5.228  0.00  0.00    +0.145 HD
ATOM     46  H   UNL     1       6.731   9.074   4.479  0.00  0.00    +0.145 HD
ENDBRANCH  19  24
BRANCH  19  21
ATOM     21  C   UNL     1      10.114   7.333   1.917  0.00  0.00    +0.069 C 
BRANCH  21  23
ATOM     11  N   UNL     1      11.016   3.786   1.566  0.00  0.00    -0.360 N 
ATOM     23  C   UNL     1      10.600   5.966   1.525  0.00  0.00    -0.020 A 
ATOM     26  C   UNL     1      11.305   5.625   0.337  0.00  0.00    +0.003 A 
ATOM     27  C   UNL     1      10.437   4.815   2.260  0.00  0.00    +0.087 A 
ATOM     28  C   UNL     1      11.554   4.252   0.387  0.00  0.00    +0.047 A 
ATOM     32  C   UNL     1      11.756   6.356  -0.780  0.00  0.00    +0.010 A 
ATOM     33  C   UNL     1      12.235   3.570  -0.627  0.00  0.00    +0.026 A 
ATOM     34  C   UNL     1      12.439   5.687  -1.802  0.00  0.00    +0.001 A 
ATOM     35  C   UNL     1      12.673   4.315  -1.725  0.00  0.00    +0.002 A 
ATOM     44  H   UNL     1      11.043   2.824   1.873  0.00  0.00    +0.165 HD
ENDBRANCH  21  23
ENDBRANCH  19  21
ENDBRANCH   9  19
ENDBRANCH  14  17
BRANCH  18  22
ATOM     22  C   UNL     1      10.071   6.852   8.239  0.00  0.00    +0.066 C 
ATOM     25  C   UNL     1       9.708   5.585   7.976  0.00  0.00    -0.071 C 
ATOM     30  C   UNL     1       9.378   5.180   6.562  0.00  0.00    +0.039 C 
ATOM     31  C   UNL     1       9.583   4.468   8.975  0.00  0.00    +0.039 C 
ENDBRANCH  18  22
TORSDOF 8
ENDMDL
MODEL 3
REMARK VINA RESULT:      -7.0      2.384      3.663
REMARK  Name = 11882023
REMARK  10 active torsions:
REMARK  status: ('A' for Active; 'I' for Inactive)
REMARK    1  A    between atoms: N_8  and  C_13
REMARK    2  A    between atoms: N_9  and  C_19
REMARK    3  A    between atoms: N_10  and  C_29
REMARK    4  A    between atoms: C_14  and  C_17
REMARK    5  A    between atoms: C_18  and  C_22
REMARK    6  A    between atoms: C_19  and  C_21
REMARK    7  A    between atoms: C_19  and  C_24
REMARK    8  A    between atoms: C_21  and  C_23
REMARK    9  A    between atoms: C_25  and  C_30
REMARK   10  A    between atoms: C_25  and  C_31
REMARK                            x       y       z     vdW  Elec       q    Type
REMARK                         _______ _______ _______ _____ _____    ______ ____
ROOT
ATOM      4  O   UNL     1      -9.047  -8.161  17.836  0.00  0.00    -0.271 OA
ATOM      7  N   UNL     1      -9.299  -9.565  16.009  0.00  0.00    -0.285 N 
ATOM     13  C   UNL     1      -9.231 -11.254  14.333  0.00  0.00    +0.094 C 
ATOM     14  C   UNL     1      -8.596 -10.697  16.595  0.00  0.00    +0.164 C 
ATOM     15  C   UNL     1      -8.932 -11.885  15.695  0.00  0.00    +0.056 C 
ATOM     16  C   UNL     1      -9.843  -9.903  14.690  0.00  0.00    +0.131 C 
ATOM     18  C   UNL     1      -9.526  -8.403  16.728  0.00  0.00    +0.240 C 
ENDROOT
BRANCH  13   8
ATOM      5  O   UNL     1      -9.105 -10.775  11.512  0.00  0.00    -0.252 OA
ATOM      8  N   UNL     1      -8.038 -11.109  13.537  0.00  0.00    -0.295 N 
ATOM     10  N   UNL     1      -6.762 -10.780  11.656  0.00  0.00    -0.267 N 
ATOM     20  C   UNL     1      -8.063 -10.875  12.156  0.00  0.00    +0.304 C 
ATOM     41  H   UNL     1      -7.137 -11.242  13.985  0.00  0.00    +0.151 HD
ATOM     43  H   UNL     1      -6.003 -10.888  12.325  0.00  0.00    +0.156 HD
BRANCH  10  29
ATOM      1  F   UNL     1      -5.291  -8.522  10.943  0.00  0.00    -0.203 F 
ATOM      2  F   UNL     1      -5.188  -9.889   6.416  0.00  0.00    -0.205 F 
ATOM     29  C   UNL     1      -6.360 -10.549  10.320  0.00  0.00    +0.070 A 
ATOM     36  C   UNL     1      -5.623  -9.409   9.995  0.00  0.00    +0.147 A 
ATOM     37  C   UNL     1      -6.701 -11.465   9.324  0.00  0.00    +0.029 A 
ATOM     38  C   UNL     1      -5.228  -9.186   8.676  0.00  0.00    +0.078 A 
ATOM     39  C   UNL     1      -6.305 -11.243   8.006  0.00  0.00    +0.040 A 
ATOM     40  C   UNL     1      -5.569 -10.103   7.682  0.00  0.00    +0.126 A 
ENDBRANCH  10  29
ENDBRANCH  13   8
BRANCH  14  17
ATOM      3  O   UNL     1      -6.632  -9.557  15.858  0.00  0.00    -0.274 OA
ATOM      9  N   UNL     1      -6.433 -11.208  17.487  0.00  0.00    -0.302 N 
ATOM     17  C   UNL     1      -7.126 -10.406  16.596  0.00  0.00    +0.234 C 
ATOM     42  H   UNL     1      -6.948 -11.865  18.066  0.00  0.00    +0.150 HD
BRANCH   9  19
ATOM     19  C   UNL     1      -5.000 -11.141  17.663  0.00  0.00    +0.163 C 
BRANCH  19  24
ATOM      6  O   UNL     1      -5.492 -11.414  20.026  0.00  0.00    -0.274 OA
ATOM     12  N   UNL     1      -3.479 -12.179  19.229  0.00  0.00    -0.328 N 
ATOM     24  C   UNL     1      -4.705 -11.563  19.095  0.00  0.00    +0.231 C 
ATOM     45  H   UNL     1      -2.849 -12.318  18.444  0.00  0.00    +0.145 HD
ATOM     46  H   UNL     1      -3.164 -12.522  20.130  0.00  0.00    +0.145 HD
ENDBRANCH  19  24
BRANCH  19  21
ATOM     21  C   UNL     1      -4.251 -12.041  16.674  0.00  0.00    +0.069 C 
BRANCH  21  23
ATOM     11  N   UNL     1      -1.694  -9.911  15.112  0.00  0.00    -0.360 N 
ATOM     23  C   UNL     1      -3.301 -11.284  15.790  0.00  0.00    -0.020 A 
ATOM     26  C   UNL     1      -3.215 -11.365  14.372  0.00  0.00    +0.003 A 
ATOM     27  C   UNL     1      -2.353 -10.382  16.215  0.00  0.00    +0.087 A 
ATOM     28  C   UNL     1      -2.199 -10.495  13.972  0.00  0.00    +0.047 A 
ATOM     32  C   UNL     1      -3.906 -12.099  13.387  0.00  0.00    +0.010 A 
ATOM     33  C   UNL     1      -1.838 -10.320  12.631  0.00  0.00    +0.026 A 
ATOM     34  C   UNL     1      -3.556 -11.934  12.042  0.00  0.00    +0.001 A 
ATOM     35  C   UNL     1      -2.538 -11.058  11.672  0.00  0.00    +0.002 A 
ATOM     44  H   UNL     1      -0.943  -9.235  15.131  0.00  0.00    +0.165 HD
ENDBRANCH  21  23
ENDBRANCH  19  21
ENDBRANCH   9  19
ENDBRANCH  14  17
BRANCH  18  22
ATOM     22  C   UNL     1     -10.408  -7.396  16.103  0.00  0.00    +0.066 C 
ATOM     25  C   UNL     1     -11.746  -7.371  16.219  0.00  0.00    -0.071 C 
ATOM     30  C   UNL     1     -12.446  -8.428  17.035  0.00  0.00    +0.039 C 
ATOM     31  C   UNL     1     -12.676  -6.364  15.599  0.00  0.00    +0.039 C 
ENDBRANCH  18  22
TORSDOF 8
ENDMDL
MODEL 4
REMARK VINA RESULT:      -6.9      2.695      4.399
REMARK  Name = 11882023
REMARK  10 active torsions:
REMARK  status: ('A' for Active; 'I' for Inactive)
REMARK    1  A    between atoms: N_8  and  C_13
REMARK    2  A    between atoms: N_9  and  C_19
REMARK    3  A    between atoms: N_10  and  C_29
REMARK    4  A    between atoms: C_14  and  C_17
REMARK    5  A    between atoms: C_18  and  C_22
REMARK    6  A    between atoms: C_19  and  C_21
REMARK    7  A    between atoms: C_19  and  C_24
REMARK    8  A    between atoms: C_21  and  C_23
REMARK    9  A    between atoms: C_25  and  C_30
REMARK   10  A    between atoms: C_25  and  C_31
REMARK                            x       y       z     vdW  Elec       q    Type
REMARK                         _______ _______ _______ _____ _____    ______ ____
ROOT
ATOM      4  O   UNL     1      -9.783 -10.466  19.821  0.00  0.00    -0.271 OA
ATOM      7  N   UNL     1      -9.790 -10.858  17.537  0.00  0.00    -0.285 N 
ATOM     13  C   UNL     1      -9.366 -11.400  15.258  0.00  0.00    +0.094 C 
ATOM     14  C   UNL     1      -8.598 -11.695  17.527  0.00  0.00    +0.164 C 
ATOM     15  C   UNL     1      -8.594 -12.369  16.157  0.00  0.00    +0.056 C 
ATOM     16  C   UNL     1     -10.388 -10.773  16.201  0.00  0.00    +0.131 C 
ATOM     18  C   UNL     1     -10.323 -10.371  18.718  0.00  0.00    +0.240 C 
ENDROOT
BRANCH  13   8
ATOM      5  O   UNL     1      -7.967 -11.611  12.767  0.00  0.00    -0.252 OA
ATOM      8  N   UNL     1      -8.500 -10.409  14.669  0.00  0.00    -0.295 N 
ATOM     10  N   UNL     1      -7.082  -9.468  13.127  0.00  0.00    -0.267 N 
ATOM     20  C   UNL     1      -7.851 -10.591  13.442  0.00  0.00    +0.304 C 
ATOM     41  H   UNL     1      -8.303  -9.564  15.196  0.00  0.00    +0.151 HD
ATOM     43  H   UNL     1      -7.092  -8.702  13.797  0.00  0.00    +0.156 HD
BRANCH  10  29
ATOM      1  F   UNL     1      -4.365 -10.092  13.111  0.00  0.00    -0.203 F 
ATOM      2  F   UNL     1      -3.954  -8.644   8.626  0.00  0.00    -0.205 F 
ATOM     29  C   UNL     1      -6.281  -9.257  11.981  0.00  0.00    +0.070 A 
ATOM     36  C   UNL     1      -4.924  -9.581  12.004  0.00  0.00    +0.147 A 
ATOM     37  C   UNL     1      -6.851  -8.726  10.824  0.00  0.00    +0.029 A 
ATOM     38  C   UNL     1      -4.138  -9.373  10.871  0.00  0.00    +0.078 A 
ATOM     39  C   UNL     1      -6.065  -8.519   9.691  0.00  0.00    +0.040 A 
ATOM     40  C   UNL     1      -4.708  -8.842   9.714  0.00  0.00    +0.126 A 
ENDBRANCH  10  29
ENDBRANCH  13   8
BRANCH  14  17
ATOM      3  O   UNL     1      -7.418  -9.621  17.473  0.00  0.00    -0.274 OA
ATOM      9  N   UNL     1      -6.295 -11.539  18.162  0.00  0.00    -0.302 N 
ATOM     17  C   UNL     1      -7.393 -10.825  17.717  0.00  0.00    +0.234 C 
ATOM     42  H   UNL     1      -6.393 -12.532  18.353  0.00  0.00    +0.150 HD
BRANCH   9  19
ATOM     19  C   UNL     1      -5.002 -10.937  18.401  0.00  0.00    +0.163 C 
BRANCH  19  24
ATOM      6  O   UNL     1      -2.993 -11.885  19.385  0.00  0.00    -0.274 OA
ATOM     12  N   UNL     1      -4.526 -13.307  18.434  0.00  0.00    -0.328 N 
ATOM     24  C   UNL     1      -4.050 -12.060  18.785  0.00  0.00    +0.231 C 
ATOM     45  H   UNL     1      -5.414 -13.439  17.961  0.00  0.00    +0.145 HD
ATOM     46  H   UNL     1      -3.994 -14.145  18.645  0.00  0.00    +0.145 HD
ENDBRANCH  19  24
BRANCH  19  21
ATOM     21  C   UNL     1      -4.476 -10.184  17.174  0.00  0.00    +0.069 C 
BRANCH  21  23
ATOM     11  N   UNL     1      -1.780 -11.871  15.331  0.00  0.00    -0.360 N 
ATOM     23  C   UNL     1      -3.588 -11.024  16.302  0.00  0.00    -0.020 A 
ATOM     26  C   UNL     1      -4.003 -12.040  15.398  0.00  0.00    +0.003 A 
ATOM     27  C   UNL     1      -2.215 -10.943  16.239  0.00  0.00    +0.087 A 
ATOM     28  C   UNL     1      -2.851 -12.556  14.801  0.00  0.00    +0.047 A 
ATOM     32  C   UNL     1      -5.254 -12.573  15.028  0.00  0.00    +0.010 A 
ATOM     33  C   UNL     1      -2.885 -13.582  13.851  0.00  0.00    +0.026 A 
ATOM     34  C   UNL     1      -5.304 -13.600  14.078  0.00  0.00    +0.001 A 
ATOM     35  C   UNL     1      -4.137 -14.095  13.499  0.00  0.00    +0.002 A 
ATOM     44  H   UNL     1      -0.813 -12.032  15.086  0.00  0.00    +0.165 HD
ENDBRANCH  21  23
ENDBRANCH  19  21
ENDBRANCH   9  19
ENDBRANCH  14  17
BRANCH  18  22
ATOM     22  C   UNL     1     -11.631  -9.693  18.627  0.00  0.00    +0.066 C 
ATOM     25  C   UNL     1     -12.812 -10.261  18.925  0.00  0.00    -0.071 C 
ATOM     30  C   UNL     1     -12.857 -11.695  19.389  0.00  0.00    +0.039 C 
ATOM     31  C   UNL     1     -14.163  -9.604  18.845  0.00  0.00    +0.039 C 
ENDBRANCH  18  22
TORSDOF 8
ENDMDL
MODEL 5
REMARK VINA RESULT:      -6.9     24.055     26.900
REMARK  Name = 11882023
REMARK  10 active torsions:
REMARK  status: ('A' for Active; 'I' for Inactive)
REMARK    1  A    between atoms: N_8  and  C_13
REMARK    2  A    between atoms: N_9  and  C_19
REMARK    3  A    between atoms: N_10  and  C_29
REMARK    4  A    between atoms: C_14  and  C_17
REMARK    5  A    between atoms: C_18  and  C_22
REMARK    6  A    between atoms: C_19  and  C_21
REMARK    7  A    between atoms: C_19  and  C_24
REMARK    8  A    between atoms: C_21  and  C_23
REMARK    9  A    between atoms: C_25  and  C_30
REMARK   10  A    between atoms: C_25  and  C_31
REMARK                            x       y       z     vdW  Elec       q    Type
REMARK                         _______ _______ _______ _____ _____    ______ ____
ROOT
ATOM      4  O   UNL     1      13.879   7.676   6.789  0.00  0.00    -0.271 OA
ATOM      7  N   UNL     1      14.041   7.861   4.484  0.00  0.00    -0.285 N 
ATOM     13  C   UNL     1      13.758   7.967   2.123  0.00  0.00    +0.094 C 
ATOM     14  C   UNL     1      12.613   8.012   4.247  0.00  0.00    +0.164 C 
ATOM     15  C   UNL     1      12.497   8.501   2.805  0.00  0.00    +0.056 C 
ATOM     16  C   UNL     1      14.801   7.981   3.236  0.00  0.00    +0.131 C 
ATOM     18  C   UNL     1      14.558   7.777   5.766  0.00  0.00    +0.240 C 
ENDROOT
BRANCH  13   8
ATOM      5  O   UNL     1      12.607   7.294  -0.412  0.00  0.00    -0.252 OA
ATOM      8  N   UNL     1      13.560   6.642   1.591  0.00  0.00    -0.295 N 
ATOM     10  N   UNL     1      12.923   5.023   0.091  0.00  0.00    -0.267 N 
ATOM     20  C   UNL     1      12.987   6.397   0.337  0.00  0.00    +0.304 C 
ATOM     41  H   UNL     1      13.791   5.845   2.177  0.00  0.00    +0.151 HD
ATOM     43  H   UNL     1      13.281   4.409   0.818  0.00  0.00    +0.156 HD
BRANCH  10  29
ATOM      1  F   UNL     1      10.183   4.743  -0.337  0.00  0.00    -0.203 F 
ATOM      2  F   UNL     1      10.946   2.464  -4.412  0.00  0.00    -0.205 F 
ATOM     29  C   UNL     1      12.416   4.370  -1.056  0.00  0.00    +0.070 A 
ATOM     36  C   UNL     1      11.038   4.247  -1.242  0.00  0.00    +0.147 A 
ATOM     37  C   UNL     1      13.296   3.849  -2.004  0.00  0.00    +0.029 A 
ATOM     38  C   UNL     1      10.542   3.602  -2.375  0.00  0.00    +0.078 A 
ATOM     39  C   UNL     1      12.800   3.205  -3.137  0.00  0.00    +0.040 A 
ATOM     40  C   UNL     1      11.423   3.082  -3.323  0.00  0.00    +0.126 A 
ENDBRANCH  10  29
ENDBRANCH  13   8
BRANCH  14  17
ATOM      3  O   UNL     1      12.042   5.788   3.598  0.00  0.00    -0.274 OA
ATOM      9  N   UNL     1      11.224   6.619   5.612  0.00  0.00    -0.302 N 
ATOM     17  C   UNL     1      11.947   6.683   4.433  0.00  0.00    +0.234 C 
ATOM     42  H   UNL     1      11.233   7.415   6.243  0.00  0.00    +0.150 HD
BRANCH   9  19
ATOM     19  C   UNL     1      10.471   5.453   6.017  0.00  0.00    +0.163 C 
BRANCH  19  24
ATOM      6  O   UNL     1       9.484   5.091   8.208  0.00  0.00    -0.274 OA
ATOM     12  N   UNL     1      11.664   5.805   8.089  0.00  0.00    -0.328 N 
ATOM     24  C   UNL     1      10.454   5.438   7.538  0.00  0.00    +0.231 C 
ATOM     45  H   UNL     1      12.466   6.065   7.523  0.00  0.00    +0.145 HD
ATOM     46  H   UNL     1      11.794   5.823   9.096  0.00  0.00    +0.145 HD
ENDBRANCH  19  24
BRANCH  19  21
ATOM     21  C   UNL     1       9.041   5.466   5.465  0.00  0.00    +0.069 C 
BRANCH  21  23
ATOM     11  N   UNL     1       7.555   8.823   5.656  0.00  0.00    -0.360 N 
ATOM     23  C   UNL     1       8.498   6.852   5.264  0.00  0.00    -0.020 A 
ATOM     26  C   UNL     1       8.489   7.591   4.048  0.00  0.00    +0.003 A 
ATOM     27  C   UNL     1       7.917   7.636   6.234  0.00  0.00    +0.087 A 
ATOM     28  C   UNL     1       7.892   8.824   4.321  0.00  0.00    +0.047 A 
ATOM     32  C   UNL     1       8.932   7.328   2.736  0.00  0.00    +0.010 A 
ATOM     33  C   UNL     1       7.716   9.811   3.346  0.00  0.00    +0.026 A 
ATOM     34  C   UNL     1       8.763   8.307   1.750  0.00  0.00    +0.001 A 
ATOM     35  C   UNL     1       8.164   9.528   2.052  0.00  0.00    +0.002 A 
ATOM     44  H   UNL     1       7.107   9.590   6.139  0.00  0.00    +0.165 HD
ENDBRANCH  21  23
ENDBRANCH  19  21
ENDBRANCH   9  19
ENDBRANCH  14  17
BRANCH  18  22
ATOM     22  C   UNL     1      16.028   7.813   5.894  0.00  0.00    +0.066 C 
ATOM     25  C   UNL     1      16.755   8.929   6.077  0.00  0.00    -0.071 C 
ATOM     30  C   UNL     1      16.065  10.266   6.161  0.00  0.00    +0.039 C 
ATOM     31  C   UNL     1      18.252   9.005   6.212  0.00  0.00    +0.039 C 
ENDBRANCH  18  22
TORSDOF 8
ENDMDL
MODEL 6
REMARK VINA RESULT:      -6.8     25.799     29.380
REMARK  Name = 11882023
REMARK  10 active torsions:
REMARK  status: ('A' for Active; 'I' for Inactive)
REMARK    1  A    between atoms: N_8  and  C_13
REMARK    2  A    between atoms: N_9  and  C_19
REMARK    3  A    between atoms: N_10  and  C_29
REMARK    4  A    between atoms: C_14  and  C_17
REMARK    5  A    between atoms: C_18  and  C_22
REMARK    6  A    between atoms: C_19  and  C_21
REMARK    7  A    between atoms: C_19  and  C_24
REMARK    8  A    between atoms: C_21  and  C_23
REMARK    9  A    between atoms: C_25  and  C_30
REMARK   10  A    between atoms: C_25  and  C_31
REMARK                            x       y       z     vdW  Elec       q    Type
REMARK                         _______ _______ _______ _____ _____    ______ ____
ROOT
ATOM      4  O   UNL     1     -11.435  12.418  29.728  0.00  0.00    -0.271 OA
ATOM      7  N   UNL     1     -13.040  11.013  30.635  0.00  0.00    -0.285 N 
ATOM     13  C   UNL     1     -14.456   9.630  31.957  0.00  0.00    +0.094 C 
ATOM     14  C   UNL     1     -12.747  11.333  32.025  0.00  0.00    +0.164 C 
ATOM     15  C   UNL     1     -13.926  10.777  32.820  0.00  0.00    +0.056 C 
ATOM     16  C   UNL     1     -14.179  10.097  30.531  0.00  0.00    +0.131 C 
ATOM     18  C   UNL     1     -12.392  11.654  29.593  0.00  0.00    +0.240 C 
ENDROOT
BRANCH  13   8
ATOM      5  O   UNL     1     -15.673   7.045  32.158  0.00  0.00    -0.252 OA
ATOM      8  N   UNL     1     -13.791   8.385  32.253  0.00  0.00    -0.295 N 
ATOM     10  N   UNL     1     -13.564   6.131  32.633  0.00  0.00    -0.267 N 
ATOM     20  C   UNL     1     -14.462   7.159  32.333  0.00  0.00    +0.304 C 
ATOM     41  H   UNL     1     -12.801   8.406  32.472  0.00  0.00    +0.151 HD
ATOM     43  H   UNL     1     -12.588   6.395  32.750  0.00  0.00    +0.156 HD
BRANCH  10  29
ATOM      1  F   UNL     1     -14.800   5.158  34.934  0.00  0.00    -0.203 F 
ATOM      2  F   UNL     1     -14.657   0.734  33.265  0.00  0.00    -0.205 F 
ATOM     29  C   UNL     1     -13.842   4.755  32.798  0.00  0.00    +0.070 A 
ATOM     36  C   UNL     1     -14.464   4.300  33.962  0.00  0.00    +0.147 A 
ATOM     37  C   UNL     1     -13.497   3.851  31.793  0.00  0.00    +0.029 A 
ATOM     38  C   UNL     1     -14.738   2.941  34.119  0.00  0.00    +0.078 A 
ATOM     39  C   UNL     1     -13.772   2.494  31.951  0.00  0.00    +0.040 A 
ATOM     40  C   UNL     1     -14.392   2.038  33.114  0.00  0.00    +0.126 A 
ENDBRANCH  10  29
ENDBRANCH  13   8
BRANCH  14  17
ATOM      3  O   UNL     1     -11.352   9.449  32.474  0.00  0.00    -0.274 OA
ATOM      9  N   UNL     1     -10.465  11.588  32.704  0.00  0.00    -0.302 N 
ATOM     17  C   UNL     1     -11.460  10.671  32.414  0.00  0.00    +0.234 C 
ATOM     42  H   UNL     1     -10.659  12.580  32.599  0.00  0.00    +0.150 HD
BRANCH   9  19
ATOM     19  C   UNL     1      -9.136  11.207  33.126  0.00  0.00    +0.163 C 
BRANCH  19  24
ATOM      6  O   UNL     1      -8.485  12.616  31.257  0.00  0.00    -0.274 OA
ATOM     12  N   UNL     1      -6.851  11.859  32.682  0.00  0.00    -0.328 N 
ATOM     24  C   UNL     1      -8.153  11.956  32.238  0.00  0.00    +0.231 C 
ATOM     45  H   UNL     1      -6.594  11.330  33.510  0.00  0.00    +0.145 HD
ATOM     46  H   UNL     1      -6.096  12.324  32.188  0.00  0.00    +0.145 HD
ENDBRANCH  19  24
BRANCH  19  21
ATOM     21  C   UNL     1      -8.880  11.532  34.602  0.00  0.00    +0.069 C 
BRANCH  21  23
ATOM     11  N   UNL     1      -7.603   8.684  36.545  0.00  0.00    -0.360 N 
ATOM     23  C   UNL     1      -8.635  10.310  35.441  0.00  0.00    -0.020 A 
ATOM     26  C   UNL     1      -9.624   9.476  36.033  0.00  0.00    +0.003 A 
ATOM     27  C   UNL     1      -7.402   9.797  35.774  0.00  0.00    +0.087 A 
ATOM     28  C   UNL     1      -8.951   8.464  36.720  0.00  0.00    +0.047 A 
ATOM     32  C   UNL     1     -11.033   9.485  36.051  0.00  0.00    +0.010 A 
ATOM     33  C   UNL     1      -9.617   7.457  37.426  0.00  0.00    +0.026 A 
ATOM     34  C   UNL     1     -11.713   8.484  36.753  0.00  0.00    +0.001 A 
ATOM     35  C   UNL     1     -11.015   7.486  37.430  0.00  0.00    +0.002 A 
ATOM     44  H   UNL     1      -6.868   8.108  36.932  0.00  0.00    +0.165 HD
ENDBRANCH  21  23
ENDBRANCH  19  21
ENDBRANCH   9  19
ENDBRANCH  14  17
BRANCH  18  22
ATOM     22  C   UNL     1     -12.898  11.388  28.231  0.00  0.00    +0.066 C 
ATOM     25  C   UNL     1     -12.311  10.569  27.342  0.00  0.00    -0.071 C 
ATOM     30  C   UNL     1     -11.041   9.848  27.714  0.00  0.00    +0.039 C 
ATOM     31  C   UNL     1     -12.795  10.273  25.949  0.00  0.00    +0.039 C 
ENDBRANCH  18  22
TORSDOF 8
ENDMDL
MODEL 7
REMARK VINA RESULT:      -6.8      3.630      8.041
REMARK  Name = 11882023
REMARK  10 active torsions:
REMARK  status: ('A' for Active; 'I' for Inactive)
REMARK    1  A    between atoms: N_8  and  C_13
REMARK    2  A    between atoms: N_9  and  C_19
REMARK    3  A    between atoms: N_10  and  C_29
REMARK    4  A    between atoms: C_14  and  C_17
REMARK    5  A    between atoms: C_18  and  C_22
REMARK    6  A    between atoms: C_19  and  C_21
REMARK    7  A    between atoms: C_19  and  C_24
REMARK    8  A    between atoms: C_21  and  C_23
REMARK    9  A    between atoms: C_25  and  C_30
REMARK   10  A    between atoms: C_25  and  C_31
REMARK                            x       y       z     vdW  Elec       q    Type
REMARK                         _______ _______ _______ _____ _____    ______ ____
ROOT
ATOM      4  O   UNL     1      -9.236 -11.075  19.788  0.00  0.00    -0.271 OA
ATOM      7  N   UNL     1      -7.123 -11.688  19.059  0.00  0.00    -0.285 N 
ATOM     13  C   UNL     1      -4.933 -11.889  18.149  0.00  0.00    +0.094 C 
ATOM     14  C   UNL     1      -6.652 -10.331  18.816  0.00  0.00    +0.164 C 
ATOM     15  C   UNL     1      -5.139 -10.458  18.649  0.00  0.00    +0.056 C 
ATOM     16  C   UNL     1      -6.062 -12.669  18.816  0.00  0.00    +0.131 C 
ATOM     18  C   UNL     1      -8.373 -11.933  19.602  0.00  0.00    +0.240 C 
ENDROOT
BRANCH  13   8
ATOM      5  O   UNL     1      -3.404 -10.358  16.272  0.00  0.00    -0.252 OA
ATOM      8  N   UNL     1      -5.003 -11.969  16.711  0.00  0.00    -0.295 N 
ATOM     10  N   UNL     1      -4.501 -11.476  14.524  0.00  0.00    -0.267 N 
ATOM     20  C   UNL     1      -4.217 -11.182  15.860  0.00  0.00    +0.304 C 
ATOM     41  H   UNL     1      -5.697 -12.581  16.293  0.00  0.00    +0.151 HD
ATOM     43  H   UNL     1      -5.208 -12.188  14.351  0.00  0.00    +0.156 HD
BRANCH  10  29
ATOM      1  F   UNL     1      -6.039 -10.074  12.669  0.00  0.00    -0.203 F 
ATOM      2  F   UNL     1      -2.229  -9.227   9.997  0.00  0.00    -0.205 F 
ATOM     29  C   UNL     1      -3.925 -10.903  13.368  0.00  0.00    +0.070 A 
ATOM     36  C   UNL     1      -4.722 -10.205  12.459  0.00  0.00    +0.147 A 
ATOM     37  C   UNL     1      -2.555 -11.033  13.137  0.00  0.00    +0.029 A 
ATOM     38  C   UNL     1      -4.148  -9.640  11.319  0.00  0.00    +0.078 A 
ATOM     39  C   UNL     1      -1.982 -10.468  11.999  0.00  0.00    +0.040 A 
ATOM     40  C   UNL     1      -2.779  -9.771  11.090  0.00  0.00    +0.126 A 
ENDBRANCH  10  29
ENDBRANCH  13   8
BRANCH  14  17
ATOM      3  O   UNL     1      -6.776  -9.929  16.466  0.00  0.00    -0.274 OA
ATOM      9  N   UNL     1      -8.507  -9.181  17.831  0.00  0.00    -0.302 N 
ATOM     17  C   UNL     1      -7.301  -9.809  17.570  0.00  0.00    +0.234 C 
ATOM     42  H   UNL     1      -8.858  -9.159  18.783  0.00  0.00    +0.150 HD
BRANCH   9  19
ATOM     19  C   UNL     1      -9.320  -8.571  16.803  0.00  0.00    +0.163 C 
BRANCH  19  24
ATOM      6  O   UNL     1     -10.764 -10.490  16.428  0.00  0.00    -0.274 OA
ATOM     12  N   UNL     1      -9.489  -9.716  14.681  0.00  0.00    -0.328 N 
ATOM     24  C   UNL     1      -9.931  -9.702  15.987  0.00  0.00    +0.231 C 
ATOM     45  H   UNL     1      -8.819  -9.043  14.323  0.00  0.00    +0.145 HD
ATOM     46  H   UNL     1      -9.829 -10.411  14.024  0.00  0.00    +0.145 HD
ENDBRANCH  19  24
BRANCH  19  21
ATOM     21  C   UNL     1     -10.419  -7.676  17.386  0.00  0.00    +0.069 C 
BRANCH  21  23
ATOM     11  N   UNL     1     -11.691  -5.506  14.706  0.00  0.00    -0.360 N 
ATOM     23  C   UNL     1     -11.187  -6.925  16.337  0.00  0.00    -0.020 A 
ATOM     26  C   UNL     1     -12.559  -7.100  16.003  0.00  0.00    +0.003 A 
ATOM     27  C   UNL     1     -10.681  -5.938  15.522  0.00  0.00    +0.087 A 
ATOM     28  C   UNL     1     -12.850  -6.198  14.977  0.00  0.00    +0.047 A 
ATOM     32  C   UNL     1     -13.585  -7.942  16.476  0.00  0.00    +0.010 A 
ATOM     33  C   UNL     1     -14.120  -6.095  14.399  0.00  0.00    +0.026 A 
ATOM     34  C   UNL     1     -14.860  -7.850  15.907  0.00  0.00    +0.001 A 
ATOM     35  C   UNL     1     -15.122  -6.940  14.884  0.00  0.00    +0.002 A 
ATOM     44  H   UNL     1     -11.600  -4.784  14.004  0.00  0.00    +0.165 HD
ENDBRANCH  21  23
ENDBRANCH  19  21
ENDBRANCH   9  19
ENDBRANCH  14  17
BRANCH  18  22
ATOM     22  C   UNL     1      -8.672 -13.329  19.978  0.00  0.00    +0.066 C 
ATOM     25  C   UNL     1      -9.335 -14.207  19.205  0.00  0.00    -0.071 C 
ATOM     30  C   UNL     1      -9.831 -13.780  17.847  0.00  0.00    +0.039 C 
ATOM     31  C   UNL     1      -9.658 -15.634  19.552  0.00  0.00    +0.039 C 
ENDBRANCH  18  22
TORSDOF 8
ENDMDL
MODEL 8
REMARK VINA RESULT:      -6.8      3.545      6.366
REMARK  Name = 11882023
REMARK  10 active torsions:
REMARK  status: ('A' for Active; 'I' for Inactive)
REMARK    1  A    between atoms: N_8  and  C_13
REMARK    2  A    between atoms: N_9  and  C_19
REMARK    3  A    between atoms: N_10  and  C_29
REMARK    4  A    between atoms: C_14  and  C_17
REMARK    5  A    between atoms: C_18  and  C_22
REMARK    6  A    between atoms: C_19  and  C_21
REMARK    7  A    between atoms: C_19  and  C_24
REMARK    8  A    between atoms: C_21  and  C_23
REMARK    9  A    between atoms: C_25  and  C_30
REMARK   10  A    between atoms: C_25  and  C_31
REMARK                            x       y       z     vdW  Elec       q    Type
REMARK                         _______ _______ _______ _____ _____    ______ ____
ROOT
ATOM      4  O   UNL     1      -4.918 -12.969   8.736  0.00  0.00    -0.271 OA
ATOM      7  N   UNL     1      -6.348 -11.480   7.681  0.00  0.00    -0.285 N 
ATOM     13  C   UNL     1      -7.479  -9.650   6.662  0.00  0.00    +0.094 C 
ATOM     14  C   UNL     1      -5.334 -10.473   7.404  0.00  0.00    +0.164 C 
ATOM     15  C   UNL     1      -5.978  -9.526   6.393  0.00  0.00    +0.056 C 
ATOM     16  C   UNL     1      -7.644 -11.099   7.112  0.00  0.00    +0.131 C 
ATOM     18  C   UNL     1      -6.024 -12.691   8.270  0.00  0.00    +0.240 C 
ENDROOT
BRANCH  13   8
ATOM      5  O   UNL     1      -9.655  -7.800   6.451  0.00  0.00    -0.252 OA
ATOM      8  N   UNL     1      -7.921  -8.721   7.672  0.00  0.00    -0.295 N 
ATOM     10  N   UNL     1      -9.194  -7.068   8.632  0.00  0.00    -0.267 N 
ATOM     20  C   UNL     1      -8.999  -7.846   7.488  0.00  0.00    +0.304 C 
ATOM     41  H   UNL     1      -7.390  -8.654   8.534  0.00  0.00    +0.151 HD
ATOM     43  H   UNL     1      -8.559  -7.229   9.411  0.00  0.00    +0.156 HD
BRANCH  10  29
ATOM      1  F   UNL     1      -8.545  -4.357   8.628  0.00  0.00    -0.203 F 
ATOM      2  F   UNL     1     -13.047  -3.172   9.473  0.00  0.00    -0.205 F 
ATOM     29  C   UNL     1     -10.174  -6.072   8.848  0.00  0.00    +0.070 A 
ATOM     36  C   UNL     1      -9.817  -4.723   8.839  0.00  0.00    +0.147 A 
ATOM     37  C   UNL     1     -11.501  -6.440   9.068  0.00  0.00    +0.029 A 
ATOM     38  C   UNL     1     -10.788  -3.744   9.051  0.00  0.00    +0.078 A 
ATOM     39  C   UNL     1     -12.471  -5.462   9.280  0.00  0.00    +0.040 A 
ATOM     40  C   UNL     1     -12.115  -4.113   9.271  0.00  0.00    +0.126 A 
ENDBRANCH  10  29
ENDBRANCH  13   8
BRANCH  14  17
ATOM      3  O   UNL     1      -4.135  -8.887   8.724  0.00  0.00    -0.274 OA
ATOM      9  N   UNL     1      -5.727 -10.237   9.754  0.00  0.00    -0.302 N 
ATOM     17  C   UNL     1      -4.992  -9.765   8.680  0.00  0.00    +0.234 C 
ATOM     42  H   UNL     1      -6.429 -10.954   9.598  0.00  0.00    +0.150 HD
BRANCH   9  19
ATOM     19  C   UNL     1      -5.570  -9.736  11.101  0.00  0.00    +0.163 C 
BRANCH  19  24
ATOM      6  O   UNL     1      -7.821  -8.892  10.744  0.00  0.00    -0.274 OA
ATOM     12  N   UNL     1      -7.039  -9.057  12.897  0.00  0.00    -0.328 N 
ATOM     24  C   UNL     1      -6.918  -9.172  11.528  0.00  0.00    +0.231 C 
ATOM     45  H   UNL     1      -6.293  -9.316  13.535  0.00  0.00    +0.145 HD
ATOM     46  H   UNL     1      -7.894  -8.707  13.317  0.00  0.00    +0.145 HD
ENDBRANCH  19  24
BRANCH  19  21
ATOM     21  C   UNL     1      -5.111 -10.826  12.076  0.00  0.00    +0.069 C 
BRANCH  21  23
ATOM     11  N   UNL     1      -1.539 -10.183  12.660  0.00  0.00    -0.360 N 
ATOM     23  C   UNL     1      -3.717 -10.608  12.590  0.00  0.00    -0.020 A 
ATOM     26  C   UNL     1      -3.292 -10.682  13.946  0.00  0.00    +0.003 A 
ATOM     27  C   UNL     1      -2.617 -10.299  11.824  0.00  0.00    +0.087 A 
ATOM     28  C   UNL     1      -1.922 -10.411  13.963  0.00  0.00    +0.047 A 
ATOM     32  C   UNL     1      -3.943 -10.955  15.165  0.00  0.00    +0.010 A 
ATOM     33  C   UNL     1      -1.168 -10.398  15.141  0.00  0.00    +0.026 A 
ATOM     34  C   UNL     1      -3.202 -10.946  16.352  0.00  0.00    +0.001 A 
ATOM     35  C   UNL     1      -1.836 -10.672  16.338  0.00  0.00    +0.002 A 
ATOM     44  H   UNL     1      -0.599  -9.958  12.365  0.00  0.00    +0.165 HD
ENDBRANCH  21  23
ENDBRANCH  19  21
ENDBRANCH   9  19
ENDBRANCH  14  17
BRANCH  18  22
ATOM     22  C   UNL     1      -7.093 -13.707   8.334  0.00  0.00    +0.066 C 
ATOM     25  C   UNL     1      -7.905 -13.902   9.387  0.00  0.00    -0.071 C 
ATOM     30  C   UNL     1      -7.749 -13.047  10.619  0.00  0.00    +0.039 C 
ATOM     31  C   UNL     1      -9.003 -14.924   9.489  0.00  0.00    +0.039 C 
ENDBRANCH  18  22
TORSDOF 8
ENDMDL
MODEL 9
REMARK VINA RESULT:      -6.7      2.494      6.836
REMARK  Name = 11882023
REMARK  10 active torsions:
REMARK  status: ('A' for Active; 'I' for Inactive)
REMARK    1  A    between atoms: N_8  and  C_13
REMARK    2  A    between atoms: N_9  and  C_19
REMARK    3  A    between atoms: N_10  and  C_29
REMARK    4  A    between atoms: C_14  and  C_17
REMARK    5  A    between atoms: C_18  and  C_22
REMARK    6  A    between atoms: C_19  and  C_21
REMARK    7  A    between atoms: C_19  and  C_24
REMARK    8  A    between atoms: C_21  and  C_23
REMARK    9  A    between atoms: C_25  and  C_30
REMARK   10  A    between atoms: C_25  and  C_31
REMARK                            x       y       z     vdW  Elec       q    Type
REMARK                         _______ _______ _______ _____ _____    ______ ____
ROOT
ATOM      4  O   UNL     1      -2.756 -14.916  14.702  0.00  0.00    -0.271 OA
ATOM      7  N   UNL     1      -2.616 -12.992  13.417  0.00  0.00    -0.285 N 
ATOM     13  C   UNL     1      -2.554 -10.800  12.491  0.00  0.00    +0.094 C 
ATOM     14  C   UNL     1      -2.464 -12.076  14.538  0.00  0.00    +0.164 C 
ATOM     15  C   UNL     1      -2.003 -10.759  13.918  0.00  0.00    +0.056 C 
ATOM     16  C   UNL     1      -2.522 -12.284  12.137  0.00  0.00    +0.131 C 
ATOM     18  C   UNL     1      -2.676 -14.363  13.605  0.00  0.00    +0.240 C 
ENDROOT
BRANCH  13   8
ATOM      5  O   UNL     1      -4.093 -10.364  10.114  0.00  0.00    -0.252 OA
ATOM      8  N   UNL     1      -3.889 -10.260  12.415  0.00  0.00    -0.295 N 
ATOM     10  N   UNL     1      -5.841  -9.539  11.445  0.00  0.00    -0.267 N 
ATOM     20  C   UNL     1      -4.574 -10.078  11.208  0.00  0.00    +0.304 C 
ATOM     41  H   UNL     1      -4.330  -9.940  13.271  0.00  0.00    +0.151 HD
ATOM     43  H   UNL     1      -6.089  -9.357  12.414  0.00  0.00    +0.156 HD
BRANCH  10  29
ATOM      1  F   UNL     1      -5.445  -7.531   9.552  0.00  0.00    -0.203 F 
ATOM      2  F   UNL     1      -9.746  -8.263   7.723  0.00  0.00    -0.205 F 
ATOM     29  C   UNL     1      -6.836  -9.210  10.495  0.00  0.00    +0.070 A 
ATOM     36  C   UNL     1      -6.606  -8.200   9.559  0.00  0.00    +0.147 A 
ATOM     37  C   UNL     1      -8.049  -9.899  10.493  0.00  0.00    +0.029 A 
ATOM     38  C   UNL     1      -7.590  -7.880   8.624  0.00  0.00    +0.078 A 
ATOM     39  C   UNL     1      -9.031  -9.579   9.558  0.00  0.00    +0.040 A 
ATOM     40  C   UNL     1      -8.802  -8.569   8.623  0.00  0.00    +0.126 A 
ENDBRANCH  10  29
ENDBRANCH  13   8
BRANCH  14  17
ATOM      3  O   UNL     1      -4.828 -11.755  14.597  0.00  0.00    -0.274 OA
ATOM      9  N   UNL     1      -3.672 -11.986  16.603  0.00  0.00    -0.302 N 
ATOM     17  C   UNL     1      -3.787 -11.927  15.225  0.00  0.00    +0.234 C 
ATOM     42  H   UNL     1      -2.761 -12.156  17.018  0.00  0.00    +0.150 HD
BRANCH   9  19
ATOM     19  C   UNL     1      -4.799 -11.847  17.499  0.00  0.00    +0.163 C 
BRANCH  19  24
ATOM      6  O   UNL     1      -4.491 -12.085  19.897  0.00  0.00    -0.274 OA
ATOM     12  N   UNL     1      -4.121 -13.912  18.556  0.00  0.00    -0.328 N 
ATOM     24  C   UNL     1      -4.447 -12.591  18.779  0.00  0.00    +0.231 C 
ATOM     45  H   UNL     1      -4.113 -14.324  17.627  0.00  0.00    +0.145 HD
ATOM     46  H   UNL     1      -3.880 -14.526  19.327  0.00  0.00    +0.145 HD
ENDBRANCH  19  24
BRANCH  19  21
ATOM     21  C   UNL     1      -5.122 -10.379  17.802  0.00  0.00    +0.069 C 
BRANCH  21  23
ATOM     11  N   UNL     1      -8.182  -9.124  16.200  0.00  0.00    -0.360 N 
ATOM     23  C   UNL     1      -6.505  -9.979  17.375  0.00  0.00    -0.020 A 
ATOM     26  C   UNL     1      -7.716 -10.236  18.076  0.00  0.00    +0.003 A 
ATOM     27  C   UNL     1      -6.825  -9.294  16.226  0.00  0.00    +0.087 A 
ATOM     28  C   UNL     1      -8.754  -9.689  17.318  0.00  0.00    +0.047 A 
ATOM     32  C   UNL     1      -8.031 -10.884  19.287  0.00  0.00    +0.010 A 
ATOM     33  C   UNL     1     -10.095  -9.758  17.711  0.00  0.00    +0.026 A 
ATOM     34  C   UNL     1      -9.368 -10.960  19.693  0.00  0.00    +0.001 A 
ATOM     35  C   UNL     1     -10.383 -10.405  18.916  0.00  0.00    +0.002 A 
ATOM     44  H   UNL     1      -8.694  -8.653  15.465  0.00  0.00    +0.165 HD
ENDBRANCH  21  23
ENDBRANCH  19  21
ENDBRANCH   9  19
ENDBRANCH  14  17
BRANCH  18  22
ATOM     22  C   UNL     1      -2.643 -15.203  12.391  0.00  0.00    +0.066 C 
ATOM     25  C   UNL     1      -1.587 -15.931  11.991  0.00  0.00    -0.071 C 
ATOM     30  C   UNL     1      -0.319 -15.921  12.807  0.00  0.00    +0.039 C 
ATOM     31  C   UNL     1      -1.515 -16.797  10.763  0.00  0.00    +0.039 C 
ENDBRANCH  18  22
TORSDOF 8
ENDMDL
MODEL 10
REMARK VINA RESULT:      -6.7     24.779     28.199
REMARK  Name = 11882023
REMARK  10 active torsions:
REMARK  status: ('A' for Active; 'I' for Inactive)
REMARK    1  A    between atoms: N_8  and  C_13
REMARK    2  A    between atoms: N_9  and  C_19
REMARK    3  A    between atoms: N_10  and  C_29
REMARK    4  A    between atoms: C_14  and  C_17
REMARK    5  A    between atoms: C_18  and  C_22
REMARK    6  A    between atoms: C_19  and  C_21
REMARK    7  A    between atoms: C_19  and  C_24
REMARK    8  A    between atoms: C_21  and  C_23
REMARK    9  A    between atoms: C_25  and  C_30
REMARK   10  A    between atoms: C_25  and  C_31
REMARK                            x       y       z     vdW  Elec       q    Type
REMARK                         _______ _______ _______ _____ _____    ______ ____
ROOT
ATOM      4  O   UNL     1       6.075  -1.822  39.844  0.00  0.00    -0.271 OA
ATOM      7  N   UNL     1       5.300  -4.000  40.011  0.00  0.00    -0.285 N 
ATOM     13  C   UNL     1       4.894  -6.345  39.968  0.00  0.00    +0.094 C 
ATOM     14  C   UNL     1       6.579  -4.634  39.720  0.00  0.00    +0.164 C 
ATOM     15  C   UNL     1       6.397  -6.098  40.115  0.00  0.00    +0.056 C 
ATOM     16  C   UNL     1       4.273  -4.998  40.323  0.00  0.00    +0.131 C 
ATOM     18  C   UNL     1       5.183  -2.624  40.119  0.00  0.00    +0.240 C 
ENDROOT
BRANCH  13   8
ATOM      5  O   UNL     1       4.524  -9.034  39.053  0.00  0.00    -0.252 OA
ATOM      8  N   UNL     1       4.547  -6.760  38.632  0.00  0.00    -0.295 N 
ATOM     10  N   UNL     1       4.051  -8.198  36.911  0.00  0.00    -0.267 N 
ATOM     20  C   UNL     1       4.384  -8.102  38.264  0.00  0.00    +0.304 C 
ATOM     41  H   UNL     1       4.477  -6.052  37.908  0.00  0.00    +0.151 HD
ATOM     43  H   UNL     1       3.976  -7.326  36.393  0.00  0.00    +0.156 HD
BRANCH  10  29
ATOM      1  F   UNL     1       1.550  -9.428  36.907  0.00  0.00    -0.203 F 
ATOM      2  F   UNL     1       3.090 -12.787  33.954  0.00  0.00    -0.205 F 
ATOM     29  C   UNL     1       3.804  -9.370  36.159  0.00  0.00    +0.070 A 
ATOM     36  C   UNL     1       2.539  -9.961  36.177  0.00  0.00    +0.147 A 
ATOM     37  C   UNL     1       4.826  -9.934  35.396  0.00  0.00    +0.029 A 
ATOM     38  C   UNL     1       2.300 -11.116  35.433  0.00  0.00    +0.078 A 
ATOM     39  C   UNL     1       4.586 -11.088  34.651  0.00  0.00    +0.040 A 
ATOM     40  C   UNL     1       3.322 -11.679  34.670  0.00  0.00    +0.126 A 
ENDBRANCH  10  29
ENDBRANCH  13   8
BRANCH  14  17
ATOM      3  O   UNL     1       5.973  -4.461  37.418  0.00  0.00    -0.274 OA
ATOM      9  N   UNL     1       8.227  -4.423  37.996  0.00  0.00    -0.302 N 
ATOM     17  C   UNL     1       6.869  -4.490  38.257  0.00  0.00    +0.234 C 
ATOM     42  H   UNL     1       8.882  -4.434  38.772  0.00  0.00    +0.150 HD
BRANCH   9  19
ATOM     19  C   UNL     1       8.772  -4.305  36.662  0.00  0.00    +0.163 C 
BRANCH  19  24
ATOM      6  O   UNL     1      11.181  -4.083  36.437  0.00  0.00    -0.274 OA
ATOM     12  N   UNL     1       9.990  -2.314  37.291  0.00  0.00    -0.328 N 
ATOM     24  C   UNL     1      10.111  -3.593  36.788  0.00  0.00    +0.231 C 
ATOM     45  H   UNL     1       9.095  -1.912  37.553  0.00  0.00    +0.145 HD
ATOM     46  H   UNL     1      10.806  -1.723  37.413  0.00  0.00    +0.145 HD
ENDBRANCH  19  24
BRANCH  19  21
ATOM     21  C   UNL     1       8.951  -5.669  35.986  0.00  0.00    +0.069 C 
BRANCH  21  23
ATOM     11  N   UNL     1       6.601  -5.463  33.166  0.00  0.00    -0.360 N 
ATOM     23  C   UNL     1       8.044  -5.865  34.805  0.00  0.00    -0.020 A 
ATOM     26  C   UNL     1       7.808  -7.084  34.110  0.00  0.00    +0.003 A 
ATOM     27  C   UNL     1       7.288  -4.887  34.201  0.00  0.00    +0.087 A 
ATOM     28  C   UNL     1       6.900  -6.805  33.087  0.00  0.00    +0.047 A 
ATOM     32  C   UNL     1       8.282  -8.403  34.254  0.00  0.00    +0.010 A 
ATOM     33  C   UNL     1       6.441  -7.781  32.196  0.00  0.00    +0.026 A 
ATOM     34  C   UNL     1       7.831  -9.390  33.370  0.00  0.00    +0.001 A 
ATOM     35  C   UNL     1       6.925  -9.082  32.358  0.00  0.00    +0.002 A 
ATOM     44  H   UNL     1       5.969  -4.974  32.548  0.00  0.00    +0.165 HD
ENDBRANCH  21  23
ENDBRANCH  19  21
ENDBRANCH   9  19
ENDBRANCH  14  17
BRANCH  18  22
ATOM     22  C   UNL     1       3.887  -2.104  40.598  0.00  0.00    +0.066 C 
ATOM     25  C   UNL     1       3.597  -1.830  41.881  0.00  0.00    -0.071 C 
ATOM     30  C   UNL     1       4.640  -2.056  42.947  0.00  0.00    +0.039 C 
ATOM     31  C   UNL     1       2.292  -1.299  42.407  0.00  0.00    +0.039 C 
ENDBRANCH  18  22
TORSDOF 8
ENDMDL
