MODEL 1
REMARK VINA RESULT:      -6.9      0.000      0.000
REMARK  Name = 26745534
REMARK  5 active torsions:
REMARK  status: ('A' for Active; 'I' for Inactive)
REMARK    1  A    between atoms: O_1  and  C_12
REMARK    2  A    between atoms: O_1  and  C_19
REMARK    3  A    between atoms: N_5  and  C_15
REMARK    4  A    between atoms: C_7  and  C_12
REMARK    5  A    between atoms: C_13  and  C_16
REMARK                            x       y       z     vdW  Elec       q    Type
REMARK                         _______ _______ _______ _____ _____    ______ ____
ROOT
ATOM      3  O   UNL     1      16.001   5.876  19.340  0.00  0.00    -0.270 OA
ATOM      4  N   UNL     1      14.453   7.445  20.143  0.00  0.00    -0.278 N 
ATOM      5  N   UNL     1      12.237   9.580  22.278  0.00  0.00    -0.336 N 
ATOM      6  N   UNL     1      10.642   8.116  21.721  0.00  0.00    -0.240 NA
ATOM      7  C   UNL     1      13.331   6.849  19.372  0.00  0.00    +0.191 C 
ATOM      8  C   UNL     1      12.028   6.667  20.178  0.00  0.00    +0.091 C 
ATOM      9  C   UNL     1      14.204   8.687  20.932  0.00  0.00    +0.164 C 
ATOM     10  C   UNL     1      12.813   8.690  21.420  0.00  0.00    +0.059 A 
ATOM     11  C   UNL     1      11.816   7.808  21.092  0.00  0.00    +0.066 A 
ATOM     13  C   UNL     1      15.735   6.894  19.977  0.00  0.00    +0.248 C 
ATOM     14  C   UNL     1      10.929   9.191  22.429  0.00  0.00    +0.199 A 
ATOM     15  C   UNL     1      12.862  10.716  22.909  0.00  0.00    +0.150 C 
ENDROOT
BRANCH  13  16
ATOM     16  C   UNL     1      16.873   7.580  20.607  0.00  0.00    +0.037 A 
ATOM     17  C   UNL     1      17.872   6.839  21.235  0.00  0.00    +0.013 A 
ATOM     18  C   UNL     1      16.950   8.973  20.577  0.00  0.00    +0.013 A 
ATOM     20  C   UNL     1      18.951   7.490  21.834  0.00  0.00    +0.001 A 
ATOM     21  C   UNL     1      18.029   9.624  21.176  0.00  0.00    +0.001 A 
ATOM     22  C   UNL     1      19.030   8.882  21.803  0.00  0.00    +0.000 A 
ENDBRANCH  13  16
BRANCH   7  12
ATOM      2  O   UNL     1      13.933   8.594  17.820  0.00  0.00    -0.249 OA
ATOM     12  C   UNL     1      13.136   7.735  18.175  0.00  0.00    +0.328 C 
BRANCH  12   1
ATOM      1  O   UNL     1      11.955   7.427  17.567  0.00  0.00    -0.467 OA
ATOM     19  C   UNL     1      11.216   8.542  17.056  0.00  0.00    +0.280 C 
ENDBRANCH  12   1
ENDBRANCH   7  12
TORSDOF 3
ENDMDL
MODEL 2
REMARK VINA RESULT:      -6.7      2.403      5.348
REMARK  Name = 26745534
REMARK  5 active torsions:
REMARK  status: ('A' for Active; 'I' for Inactive)
REMARK    1  A    between atoms: O_1  and  C_12
REMARK    2  A    between atoms: O_1  and  C_19
REMARK    3  A    between atoms: N_5  and  C_15
REMARK    4  A    between atoms: C_7  and  C_12
REMARK    5  A    between atoms: C_13  and  C_16
REMARK                            x       y       z     vdW  Elec       q    Type
REMARK                         _______ _______ _______ _____ _____    ______ ____
ROOT
ATOM      3  O   UNL     1      11.694   8.522  22.570  0.00  0.00    -0.270 OA
ATOM      4  N   UNL     1      12.957   8.855  20.621  0.00  0.00    -0.278 N 
ATOM      5  N   UNL     1      14.190   9.873  17.234  0.00  0.00    -0.336 N 
ATOM      6  N   UNL     1      13.558   7.821  16.616  0.00  0.00    -0.240 NA
ATOM      7  C   UNL     1      13.066   7.397  20.349  0.00  0.00    +0.191 C 
ATOM      8  C   UNL     1      12.792   6.999  18.884  0.00  0.00    +0.091 C 
ATOM      9  C   UNL     1      13.676   9.808  19.727  0.00  0.00    +0.164 C 
ATOM     10  C   UNL     1      13.734   9.255  18.361  0.00  0.00    +0.059 A 
ATOM     11  C   UNL     1      13.357   8.000  17.956  0.00  0.00    +0.066 A 
ATOM     13  C   UNL     1      12.301   9.261  21.795  0.00  0.00    +0.248 C 
ATOM     14  C   UNL     1      14.062   8.969  16.209  0.00  0.00    +0.199 A 
ATOM     15  C   UNL     1      14.712  11.213  17.122  0.00  0.00    +0.150 C 
ENDROOT
BRANCH  13  16
ATOM     16  C   UNL     1      12.335  10.687  22.152  0.00  0.00    +0.037 A 
ATOM     17  C   UNL     1      11.357  11.551  21.662  0.00  0.00    +0.013 A 
ATOM     18  C   UNL     1      13.347  11.175  22.979  0.00  0.00    +0.013 A 
ATOM     20  C   UNL     1      11.390  12.904  21.999  0.00  0.00    +0.001 A 
ATOM     21  C   UNL     1      13.380  12.528  23.315  0.00  0.00    +0.001 A 
ATOM     22  C   UNL     1      12.401  13.393  22.826  0.00  0.00    +0.000 A 
ENDBRANCH  13  16
BRANCH   7  12
ATOM      2  O   UNL     1      14.943   7.335  21.861  0.00  0.00    -0.249 OA
ATOM     12  C   UNL     1      14.441   6.994  20.797  0.00  0.00    +0.328 C 
BRANCH  12   1
ATOM      1  O   UNL     1      15.018   6.207  19.846  0.00  0.00    -0.467 OA
ATOM     19  C   UNL     1      16.395   6.485  19.568  0.00  0.00    +0.280 C 
ENDBRANCH  12   1
ENDBRANCH   7  12
TORSDOF 3
ENDMDL
MODEL 3
REMARK VINA RESULT:      -6.5      2.339      3.215
REMARK  Name = 26745534
REMARK  5 active torsions:
REMARK  status: ('A' for Active; 'I' for Inactive)
REMARK    1  A    between atoms: O_1  and  C_12
REMARK    2  A    between atoms: O_1  and  C_19
REMARK    3  A    between atoms: N_5  and  C_15
REMARK    4  A    between atoms: C_7  and  C_12
REMARK    5  A    between atoms: C_13  and  C_16
REMARK                            x       y       z     vdW  Elec       q    Type
REMARK                         _______ _______ _______ _____ _____    ______ ____
ROOT
ATOM      3  O   UNL     1      13.521   6.331  20.505  0.00  0.00    -0.270 OA
ATOM      4  N   UNL     1      14.015   8.507  19.780  0.00  0.00    -0.278 N 
ATOM      5  N   UNL     1      15.225  12.040  19.487  0.00  0.00    -0.336 N 
ATOM      6  N   UNL     1      13.140  12.583  20.078  0.00  0.00    -0.240 NA
ATOM      7  C   UNL     1      12.580   8.864  19.621  0.00  0.00    +0.191 C 
ATOM      8  C   UNL     1      12.195  10.239  20.206  0.00  0.00    +0.091 C 
ATOM      9  C   UNL     1      15.052   9.502  19.379  0.00  0.00    +0.164 C 
ATOM     10  C   UNL     1      14.540  10.866  19.606  0.00  0.00    +0.059 A 
ATOM     11  C   UNL     1      13.267  11.227  19.965  0.00  0.00    +0.066 A 
ATOM     13  C   UNL     1      14.330   7.194  20.165  0.00  0.00    +0.248 C 
ATOM     14  C   UNL     1      14.339  13.045  19.783  0.00  0.00    +0.199 A 
ATOM     15  C   UNL     1      16.609  12.211  19.119  0.00  0.00    +0.150 C 
ENDROOT
BRANCH  13  16
ATOM     16  C   UNL     1      15.744   6.790  20.164  0.00  0.00    +0.037 A 
ATOM     17  C   UNL     1      16.533   7.014  21.291  0.00  0.00    +0.013 A 
ATOM     18  C   UNL     1      16.295   6.185  19.034  0.00  0.00    +0.013 A 
ATOM     20  C   UNL     1      17.876   6.633  21.290  0.00  0.00    +0.001 A 
ATOM     21  C   UNL     1      17.638   5.804  19.033  0.00  0.00    +0.001 A 
ATOM     22  C   UNL     1      18.427   6.027  20.161  0.00  0.00    +0.000 A 
ENDBRANCH  13  16
BRANCH   7  12
ATOM      2  O   UNL     1      13.137   8.927  17.276  0.00  0.00    -0.249 OA
ATOM     12  C   UNL     1      12.293   8.774  18.150  0.00  0.00    +0.328 C 
BRANCH  12   1
ATOM      1  O   UNL     1      10.971   8.500  17.959  0.00  0.00    -0.467 OA
ATOM     19  C   UNL     1      10.524   8.538  16.600  0.00  0.00    +0.280 C 
ENDBRANCH  12   1
ENDBRANCH   7  12
TORSDOF 3
ENDMDL
MODEL 4
REMARK VINA RESULT:      -6.4     26.198     27.819
REMARK  Name = 26745534
REMARK  5 active torsions:
REMARK  status: ('A' for Active; 'I' for Inactive)
REMARK    1  A    between atoms: O_1  and  C_12
REMARK    2  A    between atoms: O_1  and  C_19
REMARK    3  A    between atoms: N_5  and  C_15
REMARK    4  A    between atoms: C_7  and  C_12
REMARK    5  A    between atoms: C_13  and  C_16
REMARK                            x       y       z     vdW  Elec       q    Type
REMARK                         _______ _______ _______ _____ _____    ______ ____
ROOT
ATOM      3  O   UNL     1      -1.383 -10.763  11.888  0.00  0.00    -0.270 OA
ATOM      4  N   UNL     1      -3.340 -10.876  13.178  0.00  0.00    -0.278 N 
ATOM      5  N   UNL     1      -6.513 -10.118  15.018  0.00  0.00    -0.336 N 
ATOM      6  N   UNL     1      -5.193  -9.986  16.817  0.00  0.00    -0.240 NA
ATOM      7  C   UNL     1      -2.607 -11.323  14.392  0.00  0.00    +0.191 C 
ATOM      8  C   UNL     1      -3.010 -10.589  15.688  0.00  0.00    +0.091 C 
ATOM      9  C   UNL     1      -4.828 -10.784  13.230  0.00  0.00    +0.164 C 
ATOM     10  C   UNL     1      -5.253 -10.422  14.595  0.00  0.00    +0.059 A 
ATOM     11  C   UNL     1      -4.466 -10.338  15.715  0.00  0.00    +0.066 A 
ATOM     13  C   UNL     1      -2.608 -10.699  11.992  0.00  0.00    +0.248 C 
ATOM     14  C   UNL     1      -6.425  -9.861  16.364  0.00  0.00    +0.199 A 
ATOM     15  C   UNL     1      -7.715 -10.074  14.224  0.00  0.00    +0.150 C 
ENDROOT
BRANCH  13  16
ATOM     16  C   UNL     1      -3.349 -10.418  10.754  0.00  0.00    +0.037 A 
ATOM     17  C   UNL     1      -3.523  -9.102  10.330  0.00  0.00    +0.013 A 
ATOM     18  C   UNL     1      -3.879 -11.469  10.005  0.00  0.00    +0.013 A 
ATOM     20  C   UNL     1      -4.229  -8.835   9.155  0.00  0.00    +0.001 A 
ATOM     21  C   UNL     1      -4.584 -11.203   8.831  0.00  0.00    +0.001 A 
ATOM     22  C   UNL     1      -4.758  -9.885   8.406  0.00  0.00    +0.000 A 
ENDBRANCH  13  16
BRANCH   7  12
ATOM      2  O   UNL     1      -3.774 -13.318  15.075  0.00  0.00    -0.249 OA
ATOM     12  C   UNL     1      -2.832 -12.804  14.488  0.00  0.00    +0.328 C 
BRANCH  12   1
ATOM      1  O   UNL     1      -1.835 -13.460  13.827  0.00  0.00    -0.467 OA
ATOM     19  C   UNL     1      -2.263 -14.333  12.776  0.00  0.00    +0.280 C 
ENDBRANCH  12   1
ENDBRANCH   7  12
TORSDOF 3
ENDMDL
MODEL 5
REMARK VINA RESULT:      -6.2     26.350     28.273
REMARK  Name = 26745534
REMARK  5 active torsions:
REMARK  status: ('A' for Active; 'I' for Inactive)
REMARK    1  A    between atoms: O_1  and  C_12
REMARK    2  A    between atoms: O_1  and  C_19
REMARK    3  A    between atoms: N_5  and  C_15
REMARK    4  A    between atoms: C_7  and  C_12
REMARK    5  A    between atoms: C_13  and  C_16
REMARK                            x       y       z     vdW  Elec       q    Type
REMARK                         _______ _______ _______ _____ _____    ______ ____
ROOT
ATOM      3  O   UNL     1      -2.089 -10.225  16.310  0.00  0.00    -0.270 OA
ATOM      4  N   UNL     1      -3.062 -12.035  15.177  0.00  0.00    -0.278 N 
ATOM      5  N   UNL     1      -4.388 -15.392  14.179  0.00  0.00    -0.336 N 
ATOM      6  N   UNL     1      -2.445 -15.606  13.097  0.00  0.00    -0.240 NA
ATOM      7  C   UNL     1      -2.086 -11.959  14.058  0.00  0.00    +0.191 C 
ATOM      8  C   UNL     1      -1.499 -13.320  13.629  0.00  0.00    +0.091 C 
ATOM      9  C   UNL     1      -4.172 -13.027  15.097  0.00  0.00    +0.164 C 
ATOM     10  C   UNL     1      -3.717 -14.218  14.356  0.00  0.00    +0.059 A 
ATOM     11  C   UNL     1      -2.533 -14.374  13.681  0.00  0.00    +0.066 A 
ATOM     13  C   UNL     1      -2.978 -11.068  16.193  0.00  0.00    +0.248 C 
ATOM     14  C   UNL     1      -3.580 -16.197  13.415  0.00  0.00    +0.199 A 
ATOM     15  C   UNL     1      -5.693 -15.738  14.685  0.00  0.00    +0.150 C 
ENDROOT
BRANCH  13  16
ATOM     16  C   UNL     1      -4.038 -11.037  17.212  0.00  0.00    +0.037 A 
ATOM     17  C   UNL     1      -3.879 -11.744  18.403  0.00  0.00    +0.013 A 
ATOM     18  C   UNL     1      -5.202 -10.303  16.985  0.00  0.00    +0.013 A 
ATOM     20  C   UNL     1      -4.885 -11.717  19.369  0.00  0.00    +0.001 A 
ATOM     21  C   UNL     1      -6.208 -10.276  17.951  0.00  0.00    +0.001 A 
ATOM     22  C   UNL     1      -6.049 -10.982  19.144  0.00  0.00    +0.000 A 
ENDBRANCH  13  16
BRANCH   7  12
ATOM      2  O   UNL     1      -3.630 -10.382  13.086  0.00  0.00    -0.249 OA
ATOM     12  C   UNL     1      -2.803 -11.272  12.932  0.00  0.00    +0.328 C 
BRANCH  12   1
ATOM      1  O   UNL     1      -2.386 -11.792  11.742  0.00  0.00    -0.467 OA
ATOM     19  C   UNL     1      -3.407 -11.959  10.752  0.00  0.00    +0.280 C 
ENDBRANCH  12   1
ENDBRANCH   7  12
TORSDOF 3
ENDMDL
MODEL 6
REMARK VINA RESULT:      -6.2     24.703     27.022
REMARK  Name = 26745534
REMARK  5 active torsions:
REMARK  status: ('A' for Active; 'I' for Inactive)
REMARK    1  A    between atoms: O_1  and  C_12
REMARK    2  A    between atoms: O_1  and  C_19
REMARK    3  A    between atoms: N_5  and  C_15
REMARK    4  A    between atoms: C_7  and  C_12
REMARK    5  A    between atoms: C_13  and  C_16
REMARK                            x       y       z     vdW  Elec       q    Type
REMARK                         _______ _______ _______ _____ _____    ______ ____
ROOT
ATOM      3  O   UNL     1      -9.656   9.226  18.505  0.00  0.00    -0.270 OA
ATOM      4  N   UNL     1     -11.477   9.007  17.041  0.00  0.00    -0.278 N 
ATOM      5  N   UNL     1     -14.282   7.723  14.918  0.00  0.00    -0.336 N 
ATOM      6  N   UNL     1     -12.804   7.863  13.247  0.00  0.00    -0.240 NA
ATOM      7  C   UNL     1     -10.731   9.600  15.901  0.00  0.00    +0.191 C 
ATOM      8  C   UNL     1     -10.876   8.829  14.572  0.00  0.00    +0.091 C 
ATOM      9  C   UNL     1     -12.913   8.650  16.854  0.00  0.00    +0.164 C 
ATOM     10  C   UNL     1     -13.141   8.241  15.455  0.00  0.00    +0.059 A 
ATOM     11  C   UNL     1     -12.254   8.321  14.412  0.00  0.00    +0.066 A 
ATOM     13  C   UNL     1     -10.835   8.944  18.290  0.00  0.00    +0.248 C 
ATOM     14  C   UNL     1     -14.029   7.510  13.586  0.00  0.00    +0.199 A 
ATOM     15  C   UNL     1     -15.523   7.449  15.599  0.00  0.00    +0.150 C 
ENDROOT
BRANCH  13  16
ATOM     16  C   UNL     1     -11.621   8.512  19.454  0.00  0.00    +0.037 A 
ATOM     17  C   UNL     1     -11.624   7.171  19.835  0.00  0.00    +0.013 A 
ATOM     18  C   UNL     1     -12.365   9.445  20.177  0.00  0.00    +0.013 A 
ATOM     20  C   UNL     1     -12.372   6.761  20.939  0.00  0.00    +0.001 A 
ATOM     21  C   UNL     1     -13.113   9.034  21.282  0.00  0.00    +0.001 A 
ATOM     22  C   UNL     1     -13.115   7.692  21.663  0.00  0.00    +0.000 A 
ENDBRANCH  13  16
BRANCH   7  12
ATOM      2  O   UNL     1     -11.985  11.414  14.925  0.00  0.00    -0.249 OA
ATOM     12  C   UNL     1     -11.211  11.019  15.787  0.00  0.00    +0.328 C 
BRANCH  12   1
ATOM      1  O   UNL     1     -10.653  11.770  16.779  0.00  0.00    -0.467 OA
ATOM     19  C   UNL     1      -9.296  12.171  16.559  0.00  0.00    +0.280 C 
ENDBRANCH  12   1
ENDBRANCH   7  12
TORSDOF 3
ENDMDL
MODEL 7
REMARK VINA RESULT:      -6.1     26.517     28.002
REMARK  Name = 26745534
REMARK  5 active torsions:
REMARK  status: ('A' for Active; 'I' for Inactive)
REMARK    1  A    between atoms: O_1  and  C_12
REMARK    2  A    between atoms: O_1  and  C_19
REMARK    3  A    between atoms: N_5  and  C_15
REMARK    4  A    between atoms: C_7  and  C_12
REMARK    5  A    between atoms: C_13  and  C_16
REMARK                            x       y       z     vdW  Elec       q    Type
REMARK                         _______ _______ _______ _____ _____    ______ ____
ROOT
ATOM      3  O   UNL     1      -1.603 -10.987  12.197  0.00  0.00    -0.270 OA
ATOM      4  N   UNL     1      -3.660 -10.938  13.325  0.00  0.00    -0.278 N 
ATOM      5  N   UNL     1      -6.900  -9.922  14.905  0.00  0.00    -0.336 N 
ATOM      6  N   UNL     1      -5.723  -9.889  16.804  0.00  0.00    -0.240 NA
ATOM      7  C   UNL     1      -3.065 -11.438  14.592  0.00  0.00    +0.191 C 
ATOM      8  C   UNL     1      -3.511 -10.669  15.854  0.00  0.00    +0.091 C 
ATOM      9  C   UNL     1      -5.135 -10.728  13.256  0.00  0.00    +0.164 C 
ATOM     10  C   UNL     1      -5.638 -10.327  14.583  0.00  0.00    +0.059 A 
ATOM     11  C   UNL     1      -4.939 -10.302  15.763  0.00  0.00    +0.066 A 
ATOM     13  C   UNL     1      -2.823 -10.825  12.202  0.00  0.00    +0.248 C 
ATOM     14  C   UNL     1      -6.900  -9.668  16.253  0.00  0.00    +0.199 A 
ATOM     15  C   UNL     1      -8.027  -9.785  14.016  0.00  0.00    +0.150 C 
ENDROOT
BRANCH  13  16
ATOM     16  C   UNL     1      -3.437 -10.491  10.908  0.00  0.00    +0.037 A 
ATOM     17  C   UNL     1      -3.956 -11.503  10.101  0.00  0.00    +0.013 A 
ATOM     18  C   UNL     1      -3.500  -9.162  10.489  0.00  0.00    +0.013 A 
ATOM     20  C   UNL     1      -4.537 -11.186   8.873  0.00  0.00    +0.001 A 
ATOM     21  C   UNL     1      -4.082  -8.845   9.261  0.00  0.00    +0.001 A 
ATOM     22  C   UNL     1      -4.601  -9.857   8.454  0.00  0.00    +0.000 A 
ENDBRANCH  13  16
BRANCH   7  12
ATOM      2  O   UNL     1      -3.178 -13.704  13.776  0.00  0.00    -0.249 OA
ATOM     12  C   UNL     1      -3.415 -12.896  14.666  0.00  0.00    +0.328 C 
BRANCH  12   1
ATOM      1  O   UNL     1      -4.023 -13.160  15.857  0.00  0.00    -0.467 OA
ATOM     19  C   UNL     1      -5.126 -14.070  15.798  0.00  0.00    +0.280 C 
ENDBRANCH  12   1
ENDBRANCH   7  12
TORSDOF 3
ENDMDL
MODEL 8
REMARK VINA RESULT:      -6.0     18.612     21.602
REMARK  Name = 26745534
REMARK  5 active torsions:
REMARK  status: ('A' for Active; 'I' for Inactive)
REMARK    1  A    between atoms: O_1  and  C_12
REMARK    2  A    between atoms: O_1  and  C_19
REMARK    3  A    between atoms: N_5  and  C_15
REMARK    4  A    between atoms: C_7  and  C_12
REMARK    5  A    between atoms: C_13  and  C_16
REMARK                            x       y       z     vdW  Elec       q    Type
REMARK                         _______ _______ _______ _____ _____    ______ ____
ROOT
ATOM      3  O   UNL     1      13.520   2.873   1.627  0.00  0.00    -0.270 OA
ATOM      4  N   UNL     1      12.274   3.799  -0.131  0.00  0.00    -0.278 N 
ATOM      5  N   UNL     1       9.548   4.875  -2.464  0.00  0.00    -0.336 N 
ATOM      6  N   UNL     1      10.181   3.113  -3.683  0.00  0.00    -0.240 NA
ATOM      7  C   UNL     1      13.010   3.026  -1.165  0.00  0.00    +0.191 C 
ATOM      8  C   UNL     1      12.111   2.362  -2.228  0.00  0.00    +0.091 C 
ATOM      9  C   UNL     1      11.247   4.789  -0.570  0.00  0.00    +0.164 C 
ATOM     10  C   UNL     1      10.614   4.322  -1.817  0.00  0.00    +0.059 A 
ATOM     11  C   UNL     1      10.985   3.249  -2.586  0.00  0.00    +0.066 A 
ATOM     13  C   UNL     1      12.681   3.669   1.207  0.00  0.00    +0.248 C 
ATOM     14  C   UNL     1       9.325   4.110  -3.581  0.00  0.00    +0.199 A 
ATOM     15  C   UNL     1       8.793   6.038  -2.068  0.00  0.00    +0.150 C 
ENDROOT
BRANCH  13  16
ATOM     16  C   UNL     1      12.067   4.553   2.209  0.00  0.00    +0.037 A 
ATOM     17  C   UNL     1      12.587   5.828   2.425  0.00  0.00    +0.013 A 
ATOM     18  C   UNL     1      10.965   4.115   2.944  0.00  0.00    +0.013 A 
ATOM     20  C   UNL     1      12.007   6.667   3.377  0.00  0.00    +0.001 A 
ATOM     21  C   UNL     1      10.384   4.953   3.896  0.00  0.00    +0.001 A 
ATOM     22  C   UNL     1      10.904   6.230   4.111  0.00  0.00    +0.000 A 
ENDBRANCH  13  16
BRANCH   7  12
ATOM      2  O   UNL     1      14.029   4.266  -2.964  0.00  0.00    -0.249 OA
ATOM     12  C   UNL     1      13.995   3.982  -1.773  0.00  0.00    +0.328 C 
BRANCH  12   1
ATOM      1  O   UNL     1      14.820   4.467  -0.802  0.00  0.00    -0.467 OA
ATOM     19  C   UNL     1      16.221   4.320  -1.055  0.00  0.00    +0.280 C 
ENDBRANCH  12   1
ENDBRANCH   7  12
TORSDOF 3
ENDMDL
MODEL 9
REMARK VINA RESULT:      -5.9     13.132     15.394
REMARK  Name = 26745534
REMARK  5 active torsions:
REMARK  status: ('A' for Active; 'I' for Inactive)
REMARK    1  A    between atoms: O_1  and  C_12
REMARK    2  A    between atoms: O_1  and  C_19
REMARK    3  A    between atoms: N_5  and  C_15
REMARK    4  A    between atoms: C_7  and  C_12
REMARK    5  A    between atoms: C_13  and  C_16
REMARK                            x       y       z     vdW  Elec       q    Type
REMARK                         _______ _______ _______ _____ _____    ______ ____
ROOT
ATOM      3  O   UNL     1       8.899   8.580   8.258  0.00  0.00    -0.270 OA
ATOM      4  N   UNL     1      10.256   7.449   6.714  0.00  0.00    -0.278 N 
ATOM      5  N   UNL     1      11.949   6.197   3.617  0.00  0.00    -0.336 N 
ATOM      6  N   UNL     1      10.493   4.507   3.755  0.00  0.00    -0.240 NA
ATOM      7  C   UNL     1       9.713   6.118   7.094  0.00  0.00    +0.191 C 
ATOM      8  C   UNL     1       9.349   5.211   5.899  0.00  0.00    +0.091 C 
ATOM      9  C   UNL     1      11.360   7.516   5.713  0.00  0.00    +0.164 C 
ATOM     10  C   UNL     1      11.220   6.408   4.749  0.00  0.00    +0.059 A 
ATOM     11  C   UNL     1      10.339   5.359   4.813  0.00  0.00    +0.066 A 
ATOM     13  C   UNL     1       9.803   8.574   7.422  0.00  0.00    +0.248 C 
ATOM     14  C   UNL     1      11.473   5.040   3.051  0.00  0.00    +0.199 A 
ATOM     15  C   UNL     1      13.019   7.014   3.100  0.00  0.00    +0.150 C 
ENDROOT
BRANCH  13  16
ATOM     16  C   UNL     1      10.455   9.866   7.164  0.00  0.00    +0.037 A 
ATOM     17  C   UNL     1       9.954  10.715   6.179  0.00  0.00    +0.013 A 
ATOM     18  C   UNL     1      11.577  10.241   7.905  0.00  0.00    +0.013 A 
ATOM     20  C   UNL     1      10.574  11.941   5.932  0.00  0.00    +0.001 A 
ATOM     21  C   UNL     1      12.197  11.466   7.658  0.00  0.00    +0.001 A 
ATOM     22  C   UNL     1      11.694  12.317   6.673  0.00  0.00    +0.000 A 
ENDBRANCH  13  16
BRANCH   7  12
ATOM      2  O   UNL     1      11.876   5.930   8.141  0.00  0.00    -0.249 OA
ATOM     12  C   UNL     1      10.744   5.491   7.987  0.00  0.00    +0.328 C 
BRANCH  12   1
ATOM      1  O   UNL     1      10.219   4.381   8.580  0.00  0.00    -0.467 OA
ATOM     19  C   UNL     1       9.259   4.630   9.612  0.00  0.00    +0.280 C 
ENDBRANCH  12   1
ENDBRANCH   7  12
TORSDOF 3
ENDMDL
MODEL 10
REMARK VINA RESULT:      -5.8     13.801     16.331
REMARK  Name = 26745534
REMARK  5 active torsions:
REMARK  status: ('A' for Active; 'I' for Inactive)
REMARK    1  A    between atoms: O_1  and  C_12
REMARK    2  A    between atoms: O_1  and  C_19
REMARK    3  A    between atoms: N_5  and  C_15
REMARK    4  A    between atoms: C_7  and  C_12
REMARK    5  A    between atoms: C_13  and  C_16
REMARK                            x       y       z     vdW  Elec       q    Type
REMARK                         _______ _______ _______ _____ _____    ______ ____
ROOT
ATOM      3  O   UNL     1       8.112   6.495   5.124  0.00  0.00    -0.270 OA
ATOM      4  N   UNL     1      10.437   6.785   4.989  0.00  0.00    -0.278 N 
ATOM      5  N   UNL     1      13.983   7.885   5.479  0.00  0.00    -0.336 N 
ATOM      6  N   UNL     1      13.598   9.205   3.718  0.00  0.00    -0.240 NA
ATOM      7  C   UNL     1      10.380   7.210   3.567  0.00  0.00    +0.191 C 
ATOM      8  C   UNL     1      11.228   8.457   3.238  0.00  0.00    +0.091 C 
ATOM      9  C   UNL     1      11.770   6.638   5.643  0.00  0.00    +0.164 C 
ATOM     10  C   UNL     1      12.712   7.615   5.066  0.00  0.00    +0.059 A 
ATOM     11  C   UNL     1      12.502   8.432   3.985  0.00  0.00    +0.066 A 
ATOM     13  C   UNL     1       9.238   6.398   5.612  0.00  0.00    +0.248 C 
ATOM     14  C   UNL     1      14.474   8.851   4.636  0.00  0.00    +0.199 A 
ATOM     15  C   UNL     1      14.691   7.281   6.581  0.00  0.00    +0.150 C 
ENDROOT
BRANCH  13  16
ATOM     16  C   UNL     1       9.312   5.821   6.963  0.00  0.00    +0.037 A 
ATOM     17  C   UNL     1       9.719   4.499   7.134  0.00  0.00    +0.013 A 
ATOM     18  C   UNL     1       8.973   6.597   8.071  0.00  0.00    +0.013 A 
ATOM     20  C   UNL     1       9.787   3.951   8.415  0.00  0.00    +0.001 A 
ATOM     21  C   UNL     1       9.041   6.049   9.353  0.00  0.00    +0.001 A 
ATOM     22  C   UNL     1       9.449   4.726   9.524  0.00  0.00    +0.000 A 
ENDBRANCH  13  16
BRANCH   7  12
ATOM      2  O   UNL     1      10.457   4.865   3.013  0.00  0.00    -0.249 OA
ATOM     12  C   UNL     1      10.796   6.014   2.760  0.00  0.00    +0.328 C 
BRANCH  12   1
ATOM      1  O   UNL     1      11.593   6.415   1.729  0.00  0.00    -0.467 OA
ATOM     19  C   UNL     1      12.455   5.407   1.189  0.00  0.00    +0.280 C 
ENDBRANCH  12   1
ENDBRANCH   7  12
TORSDOF 3
ENDMDL
