REMARK  Name = 11883059
REMARK  12 active torsions:
REMARK  status: ('A' for Active; 'I' for Inactive)
REMARK    1  A    between atoms: O_3  and  C_16
REMARK    2  A    between atoms: O_4  and  C_21
REMARK    3  A    between atoms: O_7  and  C_29
REMARK    4  A    between atoms: O_7  and  C_33
REMARK    5  A    between atoms: N_9  and  C_27
REMARK    6  A    between atoms: C_11  and  C_19
REMARK    7  A    between atoms: C_13  and  C_21
REMARK    8  A    between atoms: C_13  and  C_22
REMARK    9  A    between atoms: C_14  and  C_24
REMARK   10  A    between atoms: C_24  and  C_25
REMARK   11  A    between atoms: C_27  and  C_29
REMARK   12  A    between atoms: C_28  and  C_30
REMARK                            x       y       z     vdW  Elec       q    Type
REMARK                         _______ _______ _______ _____ _____    ______ ____
ROOT
ATOM      1  S   UNL     1       0.015   2.668   0.274  0.00  0.00    -0.057 S 
ATOM      6  O   UNL     1       3.295  -0.583  -0.311  0.00  0.00    -0.270 OA
ATOM      8  N   UNL     1       0.435   0.146  -0.121  0.00  0.00    -0.229 NA
ATOM     10  N   UNL     1       2.380   1.560   0.043  0.00  0.00    -0.261 N 
ATOM     11  C   UNL     1      -3.356  -0.419   0.303  0.00  0.00    -0.019 C 
ATOM     12  C   UNL     1      -3.715   1.016  -0.285  0.00  0.00    +0.011 C 
ATOM     13  C   UNL     1      -5.234   1.442  -0.257  0.00  0.00    +0.021 C 
ATOM     14  C   UNL     1      -1.896  -0.813  -0.215  0.00  0.00    +0.054 C 
ATOM     15  C   UNL     1      -4.365  -1.466  -0.236  0.00  0.00    +0.010 C 
ATOM     16  C   UNL     1      -6.105   0.267  -0.785  0.00  0.00    +0.123 C 
ATOM     17  C   UNL     1      -2.747   2.110   0.252  0.00  0.00    +0.049 C 
ATOM     18  C   UNL     1      -5.822  -1.055  -0.079  0.00  0.00    +0.032 C 
ATOM     19  C   UNL     1      -3.380  -0.457   1.851  0.00  0.00    +0.012 C 
ATOM     20  C   UNL     1      -0.933   0.333  -0.044  0.00  0.00    +0.058 A 
ATOM     22  C   UNL     1      -5.442   2.642  -1.223  0.00  0.00    +0.016 C 
ATOM     23  C   UNL     1      -1.336   1.639   0.146  0.00  0.00    +0.015 A 
ATOM     26  C   UNL     1       1.034   1.306   0.041  0.00  0.00    +0.165 A 
ATOM     28  C   UNL     1       3.413   0.623  -0.129  0.00  0.00    +0.250 C 
ATOM     40  H   UNL     1       2.607   2.544   0.144  0.00  0.00    +0.157 HD
ENDROOT
BRANCH  28  30
ATOM      2  F   UNL     1       8.613   2.743  -0.071  0.00  0.00    -0.205 F 
ATOM     30  C   UNL     1       4.790   1.184  -0.113  0.00  0.00    +0.037 A 
ATOM     31  C   UNL     1       5.815   0.535  -0.801  0.00  0.00    +0.016 A 
ATOM     32  C   UNL     1       5.056   2.360   0.589  0.00  0.00    +0.016 A 
ATOM     34  C   UNL     1       7.107   1.062  -0.787  0.00  0.00    +0.039 A 
ATOM     35  C   UNL     1       6.348   2.887   0.603  0.00  0.00    +0.039 A 
ATOM     36  C   UNL     1       7.373   2.237  -0.085  0.00  0.00    +0.123 A 
ENDBRANCH  28  30
BRANCH  16   3
ATOM      3  O   UNL     1      -7.493   0.570  -0.651  0.00  0.00    -0.391 OA
ATOM     37  H   UNL     1      -7.995  -0.169  -1.035  0.00  0.00    +0.210 HD
ENDBRANCH  16   3
BRANCH  13  21
ATOM     21  C   UNL     1      -5.738   1.925   1.121  0.00  0.00    +0.165 C 
BRANCH  21   4
ATOM      4  O   UNL     1      -7.096   2.277   0.984  0.00  0.00    -0.394 OA
ATOM     38  H   UNL     1      -7.403   2.590   1.852  0.00  0.00    +0.209 HD
ENDBRANCH  21   4
ENDBRANCH  13  21
BRANCH  14  24
ATOM     24  C   UNL     1      -1.336  -2.111   0.382  0.00  0.00    +0.106 C 
BRANCH  24  25
ATOM      5  O   UNL     1      -0.015  -2.322  -1.634  0.00  0.00    -0.276 OA
ATOM      9  N   UNL     1       0.168  -3.934   0.030  0.00  0.00    -0.313 N 
ATOM     25  C   UNL     1      -0.333  -2.770  -0.535  0.00  0.00    +0.214 C 
ATOM     39  H   UNL     1      -0.152  -4.215   0.953  0.00  0.00    +0.149 HD
BRANCH   9  27
ATOM     27  C   UNL     1       1.144  -4.774  -0.625  0.00  0.00    +0.132 C 
BRANCH  27  29
ATOM     29  C   UNL     1       2.561  -4.359  -0.275  0.00  0.00    +0.178 C 
BRANCH  29   7
ATOM      7  O   UNL     1       2.740  -4.427   1.133  0.00  0.00    -0.381 OA
ATOM     33  C   UNL     1       4.054  -4.040   1.511  0.00  0.00    +0.194 C 
ENDBRANCH  29   7
ENDBRANCH  27  29
ENDBRANCH   9  27
ENDBRANCH  24  25
ENDBRANCH  14  24
TORSDOF 9
