REMARK  Name = 11884353
REMARK  5 active torsions:
REMARK  status: ('A' for Active; 'I' for Inactive)
REMARK    1  A    between atoms: O_3  and  C_11
REMARK    2  A    between atoms: O_5  and  C_20
REMARK    3  A    between atoms: O_5  and  C_21
REMARK    4  A    between atoms: N_6  and  C_10
REMARK    5  A    between atoms: N_7  and  C_15
REMARK                            x       y       z     vdW  Elec       q    Type
REMARK                         _______ _______ _______ _____ _____    ______ ____
ROOT
ATOM      4  O   UNL     1      -0.988   1.054  -0.859  0.00  0.00    -0.252 OA
ATOM      6  N   UNL     1      -2.660  -0.106   0.238  0.00  0.00    -0.292 N 
ATOM      7  N   UNL     1      -0.498  -0.871   0.392  0.00  0.00    -0.269 N 
ATOM     14  C   UNL     1      -1.331   0.114  -0.146  0.00  0.00    +0.304 C 
ATOM     27  H   UNL     1      -2.874  -0.941   0.775  0.00  0.00    +0.151 HD
ATOM     29  H   UNL     1      -0.946  -1.582   0.964  0.00  0.00    +0.156 HD
ENDROOT
BRANCH   6  10
ATOM      1  O   UNL     1      -5.426  -0.688  -1.078  0.00  0.00    -0.369 OA
ATOM      2  O   UNL     1      -5.791   1.816   0.635  0.00  0.00    -0.369 OA
ATOM      8  C   UNL     1      -4.926   0.671   0.797  0.00  0.00    +0.172 C 
ATOM      9  C   UNL     1      -5.709  -0.538   0.325  0.00  0.00    +0.179 C 
ATOM     10  C   UNL     1      -3.765   0.759  -0.170  0.00  0.00    +0.131 C 
ATOM     11  C   UNL     1      -7.138  -0.114   0.563  0.00  0.00    +0.171 C 
ATOM     12  C   UNL     1      -4.389   0.232  -1.454  0.00  0.00    +0.185 C 
ATOM     13  C   UNL     1      -7.093   1.361   0.235  0.00  0.00    +0.194 C 
BRANCH  11   3
ATOM      3  O   UNL     1      -8.071  -0.806  -0.236  0.00  0.00    -0.387 OA
ATOM     28  H   UNL     1      -7.793  -0.722  -1.164  0.00  0.00    +0.210 HD
ENDBRANCH  11   3
ENDBRANCH   6  10
BRANCH   7  15
ATOM     15  C   UNL     1       0.901  -1.003   0.239  0.00  0.00    +0.035 A 
ATOM     16  C   UNL     1       1.554  -2.057   0.856  0.00  0.00    +0.027 A 
ATOM     17  C   UNL     1       1.591  -0.075  -0.524  0.00  0.00    +0.027 A 
ATOM     18  C   UNL     1       2.935  -2.188   0.705  0.00  0.00    +0.048 A 
ATOM     19  C   UNL     1       2.971  -0.205  -0.675  0.00  0.00    +0.048 A 
ATOM     20  C   UNL     1       3.644  -1.261  -0.060  0.00  0.00    +0.129 A 
BRANCH  20   5
ATOM      5  O   UNL     1       4.990  -1.389  -0.208  0.00  0.00    -0.456 OA
BRANCH   5  21
ATOM     21  C   UNL     1       5.765  -0.250  -0.068  0.00  0.00    +0.128 A 
ATOM     22  C   UNL     1       5.515   0.609   0.987  0.00  0.00    +0.046 A 
ATOM     23  C   UNL     1       6.767   0.001  -0.987  0.00  0.00    +0.046 A 
ATOM     24  C   UNL     1       6.294   1.757   1.128  0.00  0.00    +0.004 A 
ATOM     25  C   UNL     1       7.546   1.149  -0.846  0.00  0.00    +0.004 A 
ATOM     26  C   UNL     1       7.310   2.027   0.212  0.00  0.00    +0.000 A 
ENDBRANCH   5  21
ENDBRANCH  20   5
ENDBRANCH   7  15
TORSDOF 5
