MODEL 1
REMARK VINA RESULT:      -7.6      0.000      0.000
REMARK  Name = 11886012
REMARK  8 active torsions:
REMARK  status: ('A' for Active; 'I' for Inactive)
REMARK    1  A    between atoms: S_1  and  C_21
REMARK    2  A    between atoms: S_1  and  C_23
REMARK    3  A    between atoms: O_7  and  C_18
REMARK    4  A    between atoms: O_7  and  C_22
REMARK    5  A    between atoms: N_10  and  C_17
REMARK    6  A    between atoms: N_14  and  C_24
REMARK    7  A    between atoms: C_23  and  C_25
REMARK    8  A    between atoms: C_28  and  C_33
REMARK                            x       y       z     vdW  Elec       q    Type
REMARK                         _______ _______ _______ _____ _____    ______ ____
ROOT
ATOM      5  O   UNL     1     -13.543   4.876  22.530  0.00  0.00    -0.368 OA
ATOM      6  O   UNL     1     -15.714   6.945  23.279  0.00  0.00    -0.368 OA
ATOM     15  C   UNL     1     -15.794   5.571  22.842  0.00  0.00    +0.177 C 
ATOM     16  C   UNL     1     -14.690   5.371  21.822  0.00  0.00    +0.192 C 
ATOM     17  C   UNL     1     -15.424   4.650  23.988  0.00  0.00    +0.168 C 
ATOM     18  C   UNL     1     -14.462   6.770  21.301  0.00  0.00    +0.235 C 
ATOM     19  C   UNL     1     -13.903   4.584  23.888  0.00  0.00    +0.190 C 
ATOM     20  C   UNL     1     -14.682   7.609  22.537  0.00  0.00    +0.207 C 
ENDROOT
BRANCH  17  10
ATOM     10  N   UNL     1     -16.114   3.360  23.917  0.00  0.00    -0.212 N 
ATOM     11  N   UNL     1     -16.435   2.829  22.730  0.00  0.00    -0.043 NA
ATOM     12  N   UNL     1     -17.100   1.485  24.380  0.00  0.00    -0.101 NA
ATOM     13  N   UNL     1     -17.038   1.682  23.019  0.00  0.00    -0.022 NA
ATOM     21  C   UNL     1     -16.522   2.536  24.917  0.00  0.00    +0.210 A 
BRANCH  21   1
ATOM      1  S   UNL     1     -16.290   2.867  26.588  0.00  0.00    -0.077 S 
BRANCH   1  23
ATOM     23  C   UNL     1     -16.705   1.263  27.338  0.00  0.00    +0.151 C 
BRANCH  23  25
ATOM      9  O   UNL     1     -15.185   0.060  28.804  0.00  0.00    -0.467 OA
ATOM     25  C   UNL     1     -16.047   1.103  28.678  0.00  0.00    +0.115 A 
ATOM     29  C   UNL     1     -16.128   1.809  29.856  0.00  0.00    +0.045 A 
ATOM     32  C   UNL     1     -15.260   1.158  30.764  0.00  0.00    +0.041 A 
ATOM     34  C   UNL     1     -14.711   0.100  30.077  0.00  0.00    +0.195 A 
ENDBRANCH  23  25
ENDBRANCH   1  23
ENDBRANCH  21   1
ENDBRANCH  17  10
BRANCH  18   7
ATOM      7  O   UNL     1     -13.180   6.964  20.748  0.00  0.00    -0.442 OA
BRANCH   7  22
ATOM      8  O   UNL     1     -14.079   8.283  19.109  0.00  0.00    -0.226 OA
ATOM     14  N   UNL     1     -11.768   7.957  19.296  0.00  0.00    -0.251 N 
ATOM     22  C   UNL     1     -13.094   7.794  19.648  0.00  0.00    +0.405 C 
ATOM     35  H   UNL     1     -11.087   7.466  19.870  0.00  0.00    +0.158 HD
BRANCH  14  24
ATOM     24  C   UNL     1     -11.238   8.725  18.234  0.00  0.00    +0.037 A 
ATOM     26  C   UNL     1     -11.410   8.302  16.915  0.00  0.00    +0.035 A 
ATOM     27  C   UNL     1     -10.546   9.905  18.503  0.00  0.00    +0.023 A 
ATOM     28  C   UNL     1     -10.887   9.061  15.868  0.00  0.00    +0.057 A 
ATOM     30  C   UNL     1     -10.023  10.663  17.456  0.00  0.00    +0.002 A 
ATOM     31  C   UNL     1     -10.194  10.240  16.138  0.00  0.00    +0.012 A 
BRANCH  28  33
ATOM      2  F   UNL     1     -12.136   7.774  14.283  0.00  0.00    -0.166 F 
ATOM      3  F   UNL     1     -11.269   9.632  13.576  0.00  0.00    -0.166 F 
ATOM      4  F   UNL     1      -9.988   7.923  13.982  0.00  0.00    -0.166 F 
ATOM     33  C   UNL     1     -11.068   8.609  14.458  0.00  0.00    +0.417 C 
ENDBRANCH  28  33
ENDBRANCH  14  24
ENDBRANCH   7  22
ENDBRANCH  18   7
TORSDOF 8
ENDMDL
MODEL 2
REMARK VINA RESULT:      -7.4     16.036     18.534
REMARK  Name = 11886012
REMARK  8 active torsions:
REMARK  status: ('A' for Active; 'I' for Inactive)
REMARK    1  A    between atoms: S_1  and  C_21
REMARK    2  A    between atoms: S_1  and  C_23
REMARK    3  A    between atoms: O_7  and  C_18
REMARK    4  A    between atoms: O_7  and  C_22
REMARK    5  A    between atoms: N_10  and  C_17
REMARK    6  A    between atoms: N_14  and  C_24
REMARK    7  A    between atoms: C_23  and  C_25
REMARK    8  A    between atoms: C_28  and  C_33
REMARK                            x       y       z     vdW  Elec       q    Type
REMARK                         _______ _______ _______ _____ _____    ______ ____
ROOT
ATOM      5  O   UNL     1     -11.216  -6.799  16.655  0.00  0.00    -0.368 OA
ATOM      6  O   UNL     1     -10.654  -8.559  14.177  0.00  0.00    -0.368 OA
ATOM     15  C   UNL     1     -11.870  -7.983  14.701  0.00  0.00    +0.177 C 
ATOM     16  C   UNL     1     -11.770  -8.048  16.213  0.00  0.00    +0.192 C 
ATOM     17  C   UNL     1     -11.907  -6.500  14.386  0.00  0.00    +0.168 C 
ATOM     18  C   UNL     1     -10.809  -9.192  16.433  0.00  0.00    +0.235 C 
ATOM     19  C   UNL     1     -11.128  -5.891  15.547  0.00  0.00    +0.190 C 
ATOM     20  C   UNL     1      -9.857  -9.036  15.271  0.00  0.00    +0.207 C 
ENDROOT
BRANCH  17  10
ATOM     10  N   UNL     1     -13.271  -5.997  14.213  0.00  0.00    -0.212 N 
ATOM     11  N   UNL     1     -14.292  -6.570  14.865  0.00  0.00    -0.043 NA
ATOM     12  N   UNL     1     -15.031  -4.885  13.605  0.00  0.00    -0.101 NA
ATOM     13  N   UNL     1     -15.366  -5.886  14.490  0.00  0.00    -0.022 NA
ATOM     21  C   UNL     1     -13.730  -4.972  13.448  0.00  0.00    +0.210 A 
BRANCH  21   1
ATOM      1  S   UNL     1     -12.724  -3.988  12.460  0.00  0.00    -0.077 S 
BRANCH   1  23
ATOM     23  C   UNL     1     -13.045  -4.681  10.810  0.00  0.00    +0.151 C 
BRANCH  23  25
ATOM      9  O   UNL     1     -11.359  -5.932   9.584  0.00  0.00    -0.467 OA
ATOM     25  C   UNL     1     -11.795  -4.706   9.978  0.00  0.00    +0.115 A 
ATOM     29  C   UNL     1     -10.959  -3.721   9.507  0.00  0.00    +0.045 A 
ATOM     32  C   UNL     1      -9.944  -4.384   8.777  0.00  0.00    +0.041 A 
ATOM     34  C   UNL     1     -10.232  -5.726   8.854  0.00  0.00    +0.195 A 
ENDBRANCH  23  25
ENDBRANCH   1  23
ENDBRANCH  21   1
ENDBRANCH  17  10
BRANCH  18   7
ATOM      7  O   UNL     1     -10.145  -9.139  17.675  0.00  0.00    -0.442 OA
BRANCH   7  22
ATOM      8  O   UNL     1      -9.557 -11.319  18.046  0.00  0.00    -0.226 OA
ATOM     14  N   UNL     1      -7.968  -9.599  18.049  0.00  0.00    -0.251 N 
ATOM     22  C   UNL     1      -9.233 -10.142  17.939  0.00  0.00    +0.405 C 
ATOM     35  H   UNL     1      -7.899  -8.592  17.927  0.00  0.00    +0.158 HD
BRANCH  14  24
ATOM     24  C   UNL     1      -6.753 -10.272  18.313  0.00  0.00    +0.037 A 
ATOM     26  C   UNL     1      -5.781 -10.371  17.317  0.00  0.00    +0.035 A 
ATOM     27  C   UNL     1      -6.526 -10.835  19.568  0.00  0.00    +0.023 A 
ATOM     28  C   UNL     1      -4.582 -11.035  17.578  0.00  0.00    +0.057 A 
ATOM     30  C   UNL     1      -5.327 -11.499  19.829  0.00  0.00    +0.002 A 
ATOM     31  C   UNL     1      -4.355 -11.598  18.833  0.00  0.00    +0.012 A 
BRANCH  28  33
ATOM      2  F   UNL     1      -3.543 -12.347  15.868  0.00  0.00    -0.166 F 
ATOM      3  F   UNL     1      -3.672 -10.209  15.525  0.00  0.00    -0.166 F 
ATOM      4  F   UNL     1      -2.276 -10.988  16.999  0.00  0.00    -0.166 F 
ATOM     33  C   UNL     1      -3.543 -11.142  16.514  0.00  0.00    +0.417 C 
ENDBRANCH  28  33
ENDBRANCH  14  24
ENDBRANCH   7  22
ENDBRANCH  18   7
TORSDOF 8
ENDMDL
MODEL 3
REMARK VINA RESULT:      -7.4     16.411     17.776
REMARK  Name = 11886012
REMARK  8 active torsions:
REMARK  status: ('A' for Active; 'I' for Inactive)
REMARK    1  A    between atoms: S_1  and  C_21
REMARK    2  A    between atoms: S_1  and  C_23
REMARK    3  A    between atoms: O_7  and  C_18
REMARK    4  A    between atoms: O_7  and  C_22
REMARK    5  A    between atoms: N_10  and  C_17
REMARK    6  A    between atoms: N_14  and  C_24
REMARK    7  A    between atoms: C_23  and  C_25
REMARK    8  A    between atoms: C_28  and  C_33
REMARK                            x       y       z     vdW  Elec       q    Type
REMARK                         _______ _______ _______ _____ _____    ______ ____
ROOT
ATOM      5  O   UNL     1      -9.867 -10.228  17.929  0.00  0.00    -0.368 OA
ATOM      6  O   UNL     1      -8.112  -9.712  15.438  0.00  0.00    -0.368 OA
ATOM     15  C   UNL     1      -7.815  -9.709  16.851  0.00  0.00    +0.177 C 
ATOM     16  C   UNL     1      -9.026  -9.127  17.553  0.00  0.00    +0.192 C 
ATOM     17  C   UNL     1      -7.732 -11.137  17.356  0.00  0.00    +0.168 C 
ATOM     18  C   UNL     1      -9.662  -8.284  16.474  0.00  0.00    +0.235 C 
ATOM     19  C   UNL     1      -9.187 -11.466  17.672  0.00  0.00    +0.190 C 
ATOM     20  C   UNL     1      -9.394  -9.102  15.232  0.00  0.00    +0.207 C 
ENDROOT
BRANCH  17  10
ATOM     10  N   UNL     1      -6.798 -11.283  18.475  0.00  0.00    -0.212 N 
ATOM     11  N   UNL     1      -7.193 -11.011  19.726  0.00  0.00    -0.043 NA
ATOM     12  N   UNL     1      -5.059 -11.657  19.715  0.00  0.00    -0.101 NA
ATOM     13  N   UNL     1      -6.125 -11.242  20.480  0.00  0.00    -0.022 NA
ATOM     21  C   UNL     1      -5.497 -11.676  18.477  0.00  0.00    +0.210 A 
BRANCH  21   1
ATOM      1  S   UNL     1      -4.625 -12.114  17.061  0.00  0.00    -0.077 S 
BRANCH   1  23
ATOM     23  C   UNL     1      -3.895 -10.521  16.577  0.00  0.00    +0.151 C 
BRANCH  23  25
ATOM      9  O   UNL     1      -4.203 -10.530  14.165  0.00  0.00    -0.467 OA
ATOM     25  C   UNL     1      -3.315 -10.587  15.193  0.00  0.00    +0.115 A 
ATOM     29  C   UNL     1      -2.030 -10.696  14.716  0.00  0.00    +0.045 A 
ATOM     32  C   UNL     1      -2.134 -10.707  13.305  0.00  0.00    +0.041 A 
ATOM     34  C   UNL     1      -3.476 -10.604  13.020  0.00  0.00    +0.195 A 
ENDBRANCH  23  25
ENDBRANCH   1  23
ENDBRANCH  21   1
ENDBRANCH  17  10
BRANCH  18   7
ATOM      7  O   UNL     1     -11.038  -8.057  16.673  0.00  0.00    -0.442 OA
BRANCH   7  22
ATOM      8  O   UNL     1     -11.276  -5.783  16.589  0.00  0.00    -0.226 OA
ATOM     14  N   UNL     1     -12.410  -7.194  15.104  0.00  0.00    -0.251 N 
ATOM     22  C   UNL     1     -11.561  -6.891  16.150  0.00  0.00    +0.405 C 
ATOM     35  H   UNL     1     -12.520  -8.181  14.885  0.00  0.00    +0.158 HD
BRANCH  14  24
ATOM     24  C   UNL     1     -13.149  -6.299  14.296  0.00  0.00    +0.037 A 
ATOM     26  C   UNL     1     -12.488  -5.471  13.388  0.00  0.00    +0.035 A 
ATOM     27  C   UNL     1     -14.538  -6.245  14.407  0.00  0.00    +0.023 A 
ATOM     28  C   UNL     1     -13.218  -4.589  12.592  0.00  0.00    +0.057 A 
ATOM     30  C   UNL     1     -15.268  -5.362  13.610  0.00  0.00    +0.002 A 
ATOM     31  C   UNL     1     -14.607  -4.534  12.703  0.00  0.00    +0.012 A 
BRANCH  28  33
ATOM      2  F   UNL     1     -13.352  -3.054  10.761  0.00  0.00    -0.166 F 
ATOM      3  F   UNL     1     -11.781  -2.714  12.216  0.00  0.00    -0.166 F 
ATOM      4  F   UNL     1     -11.633  -4.384  10.831  0.00  0.00    -0.166 F 
ATOM     33  C   UNL     1     -12.513  -3.702  11.622  0.00  0.00    +0.417 C 
ENDBRANCH  28  33
ENDBRANCH  14  24
ENDBRANCH   7  22
ENDBRANCH  18   7
TORSDOF 8
ENDMDL
MODEL 4
REMARK VINA RESULT:      -7.3     15.883     16.995
REMARK  Name = 11886012
REMARK  8 active torsions:
REMARK  status: ('A' for Active; 'I' for Inactive)
REMARK    1  A    between atoms: S_1  and  C_21
REMARK    2  A    between atoms: S_1  and  C_23
REMARK    3  A    between atoms: O_7  and  C_18
REMARK    4  A    between atoms: O_7  and  C_22
REMARK    5  A    between atoms: N_10  and  C_17
REMARK    6  A    between atoms: N_14  and  C_24
REMARK    7  A    between atoms: C_23  and  C_25
REMARK    8  A    between atoms: C_28  and  C_33
REMARK                            x       y       z     vdW  Elec       q    Type
REMARK                         _______ _______ _______ _____ _____    ______ ____
ROOT
ATOM      5  O   UNL     1     -11.170  -8.841  17.507  0.00  0.00    -0.368 OA
ATOM      6  O   UNL     1      -9.483  -8.816  14.916  0.00  0.00    -0.368 OA
ATOM     15  C   UNL     1      -9.116  -8.855  16.312  0.00  0.00    +0.177 C 
ATOM     16  C   UNL     1     -10.112  -7.983  17.052  0.00  0.00    +0.192 C 
ATOM     17  C   UNL     1      -9.349 -10.249  16.861  0.00  0.00    +0.168 C 
ATOM     18  C   UNL     1     -10.585  -7.035  15.977  0.00  0.00    +0.235 C 
ATOM     19  C   UNL     1     -10.821 -10.211  17.259  0.00  0.00    +0.190 C 
ATOM     20  C   UNL     1     -10.591  -7.920  14.753  0.00  0.00    +0.207 C 
ENDROOT
BRANCH  17  10
ATOM     10  N   UNL     1      -8.417 -10.592  17.937  0.00  0.00    -0.212 N 
ATOM     11  N   UNL     1      -8.851 -10.697  19.200  0.00  0.00    -0.043 NA
ATOM     12  N   UNL     1      -6.661 -11.108  19.101  0.00  0.00    -0.101 NA
ATOM     13  N   UNL     1      -7.773 -11.012  19.908  0.00  0.00    -0.022 NA
ATOM     21  C   UNL     1      -7.083 -10.845  17.885  0.00  0.00    +0.210 A 
BRANCH  21   1
ATOM      1  S   UNL     1      -6.156 -10.810  16.438  0.00  0.00    -0.077 S 
BRANCH   1  23
ATOM     23  C   UNL     1      -4.509 -10.369  17.070  0.00  0.00    +0.151 C 
BRANCH  23  25
ATOM      9  O   UNL     1      -2.180 -10.796  16.522  0.00  0.00    -0.467 OA
ATOM     25  C   UNL     1      -3.444 -10.638  16.048  0.00  0.00    +0.115 A 
ATOM     29  C   UNL     1      -3.465 -10.766  14.678  0.00  0.00    +0.045 A 
ATOM     32  C   UNL     1      -2.129 -11.018  14.286  0.00  0.00    +0.041 A 
ATOM     34  C   UNL     1      -1.386 -11.027  15.444  0.00  0.00    +0.195 A 
ENDBRANCH  23  25
ENDBRANCH   1  23
ENDBRANCH  21   1
ENDBRANCH  17  10
BRANCH  18   7
ATOM      7  O   UNL     1     -11.854  -6.478  16.235  0.00  0.00    -0.442 OA
BRANCH   7  22
ATOM      8  O   UNL     1     -13.624  -6.929  14.858  0.00  0.00    -0.226 OA
ATOM     14  N   UNL     1     -12.203  -5.108  14.478  0.00  0.00    -0.251 N 
ATOM     22  C   UNL     1     -12.661  -6.229  15.143  0.00  0.00    +0.405 C 
ATOM     35  H   UNL     1     -11.381  -4.656  14.871  0.00  0.00    +0.158 HD
BRANCH  14  24
ATOM     24  C   UNL     1     -12.737  -4.509  13.314  0.00  0.00    +0.037 A 
ATOM     26  C   UNL     1     -11.991  -4.487  12.135  0.00  0.00    +0.035 A 
ATOM     27  C   UNL     1     -14.010  -3.941  13.344  0.00  0.00    +0.023 A 
ATOM     28  C   UNL     1     -12.519  -3.896  10.988  0.00  0.00    +0.057 A 
ATOM     30  C   UNL     1     -14.538  -3.349  12.196  0.00  0.00    +0.002 A 
ATOM     31  C   UNL     1     -13.792  -3.328  11.018  0.00  0.00    +0.012 A 
BRANCH  28  33
ATOM      2  F   UNL     1     -12.485  -3.880   8.595  0.00  0.00    -0.166 F 
ATOM      3  F   UNL     1     -10.920  -2.772   9.608  0.00  0.00    -0.166 F 
ATOM      4  F   UNL     1     -10.886  -4.946   9.613  0.00  0.00    -0.166 F 
ATOM     33  C   UNL     1     -11.721  -3.871   9.728  0.00  0.00    +0.417 C 
ENDBRANCH  28  33
ENDBRANCH  14  24
ENDBRANCH   7  22
ENDBRANCH  18   7
TORSDOF 8
ENDMDL
MODEL 5
REMARK VINA RESULT:      -7.2      2.292      3.274
REMARK  Name = 11886012
REMARK  8 active torsions:
REMARK  status: ('A' for Active; 'I' for Inactive)
REMARK    1  A    between atoms: S_1  and  C_21
REMARK    2  A    between atoms: S_1  and  C_23
REMARK    3  A    between atoms: O_7  and  C_18
REMARK    4  A    between atoms: O_7  and  C_22
REMARK    5  A    between atoms: N_10  and  C_17
REMARK    6  A    between atoms: N_14  and  C_24
REMARK    7  A    between atoms: C_23  and  C_25
REMARK    8  A    between atoms: C_28  and  C_33
REMARK                            x       y       z     vdW  Elec       q    Type
REMARK                         _______ _______ _______ _____ _____    ______ ____
ROOT
ATOM      5  O   UNL     1     -15.375   3.051  24.387  0.00  0.00    -0.368 OA
ATOM      6  O   UNL     1     -17.797   4.972  24.378  0.00  0.00    -0.368 OA
ATOM     15  C   UNL     1     -17.702   3.531  24.343  0.00  0.00    +0.177 C 
ATOM     16  C   UNL     1     -16.491   3.193  23.495  0.00  0.00    +0.192 C 
ATOM     17  C   UNL     1     -17.356   3.010  25.724  0.00  0.00    +0.168 C 
ATOM     18  C   UNL     1     -16.351   4.412  22.615  0.00  0.00    +0.235 C 
ATOM     19  C   UNL     1     -15.834   3.102  25.746  0.00  0.00    +0.190 C 
ATOM     20  C   UNL     1     -16.768   5.526  23.547  0.00  0.00    +0.207 C 
ENDROOT
BRANCH  17  10
ATOM     10  N   UNL     1     -17.908   1.677  25.976  0.00  0.00    -0.212 N 
ATOM     11  N   UNL     1     -18.433   0.962  24.972  0.00  0.00    -0.043 NA
ATOM     12  N   UNL     1     -18.568  -0.178  26.884  0.00  0.00    -0.101 NA
ATOM     13  N   UNL     1     -18.835  -0.172  25.534  0.00  0.00    -0.022 NA
ATOM     21  C   UNL     1     -17.994   0.976  27.137  0.00  0.00    +0.210 A 
BRANCH  21   1
ATOM      1  S   UNL     1     -17.426   1.557  28.652  0.00  0.00    -0.077 S 
BRANCH   1  23
ATOM     23  C   UNL     1     -15.718   0.934  28.664  0.00  0.00    +0.151 C 
BRANCH  23  25
ATOM      9  O   UNL     1     -15.528   0.772  31.082  0.00  0.00    -0.467 OA
ATOM     25  C   UNL     1     -15.014   1.298  29.939  0.00  0.00    +0.115 A 
ATOM     29  C   UNL     1     -13.918   2.081  30.218  0.00  0.00    +0.045 A 
ATOM     32  C   UNL     1     -13.747   2.032  31.621  0.00  0.00    +0.041 A 
ATOM     34  C   UNL     1     -14.751   1.224  32.101  0.00  0.00    +0.195 A 
ENDBRANCH  23  25
ENDBRANCH   1  23
ENDBRANCH  21   1
ENDBRANCH  17  10
BRANCH  18   7
ATOM      7  O   UNL     1     -15.047   4.599  22.114  0.00  0.00    -0.442 OA
BRANCH   7  22
ATOM      8  O   UNL     1     -15.645   6.126  20.520  0.00  0.00    -0.226 OA
ATOM     14  N   UNL     1     -13.598   6.264  21.647  0.00  0.00    -0.251 N 
ATOM     22  C   UNL     1     -14.830   5.721  21.339  0.00  0.00    +0.405 C 
ATOM     35  H   UNL     1     -13.060   5.781  22.362  0.00  0.00    +0.158 HD
BRANCH  14  24
ATOM     24  C   UNL     1     -12.989   7.411  21.088  0.00  0.00    +0.037 A 
ATOM     26  C   UNL     1     -12.281   7.312  19.891  0.00  0.00    +0.035 A 
ATOM     27  C   UNL     1     -13.098   8.642  21.735  0.00  0.00    +0.023 A 
ATOM     28  C   UNL     1     -11.681   8.445  19.341  0.00  0.00    +0.057 A 
ATOM     30  C   UNL     1     -12.499   9.775  21.185  0.00  0.00    +0.002 A 
ATOM     31  C   UNL     1     -11.790   9.676  19.987  0.00  0.00    +0.012 A 
BRANCH  28  33
ATOM      2  F   UNL     1     -11.624   8.773  16.971  0.00  0.00    -0.166 F 
ATOM      3  F   UNL     1      -9.765   9.064  18.049  0.00  0.00    -0.166 F 
ATOM      4  F   UNL     1     -10.555   7.058  17.772  0.00  0.00    -0.166 F 
ATOM     33  C   UNL     1     -10.923   8.340  18.061  0.00  0.00    +0.417 C 
ENDBRANCH  28  33
ENDBRANCH  14  24
ENDBRANCH   7  22
ENDBRANCH  18   7
TORSDOF 8
ENDMDL
MODEL 6
REMARK VINA RESULT:      -7.1      1.800      2.507
REMARK  Name = 11886012
REMARK  8 active torsions:
REMARK  status: ('A' for Active; 'I' for Inactive)
REMARK    1  A    between atoms: S_1  and  C_21
REMARK    2  A    between atoms: S_1  and  C_23
REMARK    3  A    between atoms: O_7  and  C_18
REMARK    4  A    between atoms: O_7  and  C_22
REMARK    5  A    between atoms: N_10  and  C_17
REMARK    6  A    between atoms: N_14  and  C_24
REMARK    7  A    between atoms: C_23  and  C_25
REMARK    8  A    between atoms: C_28  and  C_33
REMARK                            x       y       z     vdW  Elec       q    Type
REMARK                         _______ _______ _______ _____ _____    ______ ____
ROOT
ATOM      5  O   UNL     1     -15.993   4.867  21.605  0.00  0.00    -0.368 OA
ATOM      6  O   UNL     1     -16.816   6.568  24.052  0.00  0.00    -0.368 OA
ATOM     15  C   UNL     1     -17.187   5.238  23.626  0.00  0.00    +0.177 C 
ATOM     16  C   UNL     1     -17.273   5.272  22.112  0.00  0.00    +0.192 C 
ATOM     17  C   UNL     1     -16.054   4.275  23.920  0.00  0.00    +0.168 C 
ATOM     18  C   UNL     1     -17.551   6.729  21.828  0.00  0.00    +0.235 C 
ATOM     19  C   UNL     1     -15.166   4.413  22.687  0.00  0.00    +0.190 C 
ATOM     20  C   UNL     1     -16.745   7.421  22.901  0.00  0.00    +0.207 C 
ENDROOT
BRANCH  17  10
ATOM     10  N   UNL     1     -16.529   2.919  24.203  0.00  0.00    -0.212 N 
ATOM     11  N   UNL     1     -16.894   2.108  23.201  0.00  0.00    -0.043 NA
ATOM     12  N   UNL     1     -17.138   1.071  25.160  0.00  0.00    -0.101 NA
ATOM     13  N   UNL     1     -17.266   0.979  23.792  0.00  0.00    -0.022 NA
ATOM     21  C   UNL     1     -16.680   2.280  25.392  0.00  0.00    +0.210 A 
BRANCH  21   1
ATOM      1  S   UNL     1     -16.314   2.989  26.915  0.00  0.00    -0.077 S 
BRANCH   1  23
ATOM     23  C   UNL     1     -16.701   1.625  28.054  0.00  0.00    +0.151 C 
BRANCH  23  25
ATOM      9  O   UNL     1     -15.181  -0.022  28.996  0.00  0.00    -0.467 OA
ATOM     25  C   UNL     1     -15.523   1.292  28.923  0.00  0.00    +0.115 A 
ATOM     29  C   UNL     1     -14.677   2.055  29.694  0.00  0.00    +0.045 A 
ATOM     32  C   UNL     1     -13.758   1.152  30.279  0.00  0.00    +0.041 A 
ATOM     34  C   UNL     1     -14.106  -0.098  29.823  0.00  0.00    +0.195 A 
ENDBRANCH  23  25
ENDBRANCH   1  23
ENDBRANCH  21   1
ENDBRANCH  17  10
BRANCH  18   7
ATOM      7  O   UNL     1     -17.169   7.133  20.532  0.00  0.00    -0.442 OA
BRANCH   7  22
ATOM      8  O   UNL     1     -15.971   9.081  20.580  0.00  0.00    -0.226 OA
ATOM     14  N   UNL     1     -14.952   7.021  20.130  0.00  0.00    -0.251 N 
ATOM     22  C   UNL     1     -16.004   7.866  20.426  0.00  0.00    +0.405 C 
ATOM     35  H   UNL     1     -15.180   6.034  20.039  0.00  0.00    +0.158 HD
BRANCH  14  24
ATOM     24  C   UNL     1     -13.593   7.360  19.938  0.00  0.00    +0.037 A 
ATOM     26  C   UNL     1     -13.177   7.914  18.727  0.00  0.00    +0.035 A 
ATOM     27  C   UNL     1     -12.669   7.140  20.959  0.00  0.00    +0.023 A 
ATOM     28  C   UNL     1     -11.835   8.247  18.538  0.00  0.00    +0.057 A 
ATOM     30  C   UNL     1     -11.327   7.473  20.770  0.00  0.00    +0.002 A 
ATOM     31  C   UNL     1     -10.911   8.028  19.559  0.00  0.00    +0.012 A 
BRANCH  28  33
ATOM      2  F   UNL     1     -10.682   7.972  16.460  0.00  0.00    -0.166 F 
ATOM      3  F   UNL     1     -12.418   9.271  16.456  0.00  0.00    -0.166 F 
ATOM      4  F   UNL     1     -10.578   9.923  17.414  0.00  0.00    -0.166 F 
ATOM     33  C   UNL     1     -11.390   8.839  17.244  0.00  0.00    +0.417 C 
ENDBRANCH  28  33
ENDBRANCH  14  24
ENDBRANCH   7  22
ENDBRANCH  18   7
TORSDOF 8
ENDMDL
MODEL 7
REMARK VINA RESULT:      -7.1     28.582     34.038
REMARK  Name = 11886012
REMARK  8 active torsions:
REMARK  status: ('A' for Active; 'I' for Inactive)
REMARK    1  A    between atoms: S_1  and  C_21
REMARK    2  A    between atoms: S_1  and  C_23
REMARK    3  A    between atoms: O_7  and  C_18
REMARK    4  A    between atoms: O_7  and  C_22
REMARK    5  A    between atoms: N_10  and  C_17
REMARK    6  A    between atoms: N_14  and  C_24
REMARK    7  A    between atoms: C_23  and  C_25
REMARK    8  A    between atoms: C_28  and  C_33
REMARK                            x       y       z     vdW  Elec       q    Type
REMARK                         _______ _______ _______ _____ _____    ______ ____
ROOT
ATOM      5  O   UNL     1      12.795   3.420   1.155  0.00  0.00    -0.368 OA
ATOM      6  O   UNL     1      10.865   4.982  -0.686  0.00  0.00    -0.368 OA
ATOM     15  C   UNL     1      12.292   5.070  -0.479  0.00  0.00    +0.177 C 
ATOM     16  C   UNL     1      12.536   4.823   0.997  0.00  0.00    +0.192 C 
ATOM     17  C   UNL     1      12.979   3.913  -1.177  0.00  0.00    +0.168 C 
ATOM     18  C   UNL     1      11.221   5.221   1.622  0.00  0.00    +0.235 C 
ATOM     19  C   UNL     1      12.905   2.801  -0.135  0.00  0.00    +0.190 C 
ATOM     20  C   UNL     1      10.224   4.772   0.580  0.00  0.00    +0.207 C 
ENDROOT
BRANCH  17  10
ATOM     10  N   UNL     1      14.328   4.255  -1.635  0.00  0.00    -0.212 N 
ATOM     11  N   UNL     1      15.390   4.011  -0.855  0.00  0.00    -0.043 NA
ATOM     12  N   UNL     1      16.040   4.941  -2.774  0.00  0.00    -0.101 NA
ATOM     13  N   UNL     1      16.434   4.433  -1.557  0.00  0.00    -0.022 NA
ATOM     21  C   UNL     1      14.733   4.820  -2.802  0.00  0.00    +0.210 A 
BRANCH  21   1
ATOM      1  S   UNL     1      13.663   5.280  -4.067  0.00  0.00    -0.077 S 
BRANCH   1  23
ATOM     23  C   UNL     1      12.941   3.677  -4.533  0.00  0.00    +0.151 C 
BRANCH  23  25
ATOM      9  O   UNL     1      10.782   4.782  -4.697  0.00  0.00    -0.467 OA
ATOM     25  C   UNL     1      11.456   3.666  -4.314  0.00  0.00    +0.115 A 
ATOM     29  C   UNL     1      10.590   2.735  -3.789  0.00  0.00    +0.045 A 
ATOM     32  C   UNL     1       9.302   3.316  -3.853  0.00  0.00    +0.041 A 
ATOM     34  C   UNL     1       9.472   4.561  -4.413  0.00  0.00    +0.195 A 
ENDBRANCH  23  25
ENDBRANCH   1  23
ENDBRANCH  21   1
ENDBRANCH  17  10
BRANCH  18   7
ATOM      7  O   UNL     1      10.986   4.619   2.875  0.00  0.00    -0.442 OA
BRANCH   7  22
ATOM      8  O   UNL     1      11.868   6.293   4.161  0.00  0.00    -0.226 OA
ATOM     14  N   UNL     1       9.916   5.161   4.785  0.00  0.00    -0.251 N 
ATOM     22  C   UNL     1      11.000   5.448   3.979  0.00  0.00    +0.405 C 
ATOM     35  H   UNL     1       9.300   4.419   4.463  0.00  0.00    +0.158 HD
BRANCH  14  24
ATOM     24  C   UNL     1       9.555   5.774   6.007  0.00  0.00    +0.037 A 
ATOM     26  C   UNL     1       9.630   5.051   7.198  0.00  0.00    +0.035 A 
ATOM     27  C   UNL     1       9.125   7.100   6.022  0.00  0.00    +0.023 A 
ATOM     28  C   UNL     1       9.274   5.656   8.403  0.00  0.00    +0.057 A 
ATOM     30  C   UNL     1       8.769   7.705   7.228  0.00  0.00    +0.002 A 
ATOM     31  C   UNL     1       8.844   6.982   8.418  0.00  0.00    +0.012 A 
BRANCH  28  33
ATOM      2  F   UNL     1      10.424   5.218  10.455  0.00  0.00    -0.166 F 
ATOM      3  F   UNL     1       8.263   5.045  10.484  0.00  0.00    -0.166 F 
ATOM      4  F   UNL     1       9.457   3.538   9.470  0.00  0.00    -0.166 F 
ATOM     33  C   UNL     1       9.352   4.883   9.677  0.00  0.00    +0.417 C 
ENDBRANCH  28  33
ENDBRANCH  14  24
ENDBRANCH   7  22
ENDBRANCH  18   7
TORSDOF 8
ENDMDL
MODEL 8
REMARK VINA RESULT:      -7.1     29.334     32.160
REMARK  Name = 11886012
REMARK  8 active torsions:
REMARK  status: ('A' for Active; 'I' for Inactive)
REMARK    1  A    between atoms: S_1  and  C_21
REMARK    2  A    between atoms: S_1  and  C_23
REMARK    3  A    between atoms: O_7  and  C_18
REMARK    4  A    between atoms: O_7  and  C_22
REMARK    5  A    between atoms: N_10  and  C_17
REMARK    6  A    between atoms: N_14  and  C_24
REMARK    7  A    between atoms: C_23  and  C_25
REMARK    8  A    between atoms: C_28  and  C_33
REMARK                            x       y       z     vdW  Elec       q    Type
REMARK                         _______ _______ _______ _____ _____    ______ ____
ROOT
ATOM      5  O   UNL     1      19.251   6.240  20.311  0.00  0.00    -0.368 OA
ATOM      6  O   UNL     1      19.188   8.793  22.054  0.00  0.00    -0.368 OA
ATOM     15  C   UNL     1      19.431   7.406  22.374  0.00  0.00    +0.177 C 
ATOM     16  C   UNL     1      18.511   6.584  21.492  0.00  0.00    +0.192 C 
ATOM     17  C   UNL     1      20.828   7.019  21.931  0.00  0.00    +0.168 C 
ATOM     18  C   UNL     1      17.393   7.552  21.187  0.00  0.00    +0.235 C 
ATOM     19  C   UNL     1      20.622   6.635  20.469  0.00  0.00    +0.190 C 
ATOM     20  C   UNL     1      18.129   8.867  21.089  0.00  0.00    +0.207 C 
ENDROOT
BRANCH  17  10
ATOM     10  N   UNL     1      21.417   5.978  22.776  0.00  0.00    -0.212 N 
ATOM     11  N   UNL     1      21.449   4.705  22.358  0.00  0.00    -0.043 NA
ATOM     12  N   UNL     1      22.375   4.876  24.379  0.00  0.00    -0.101 NA
ATOM     13  N   UNL     1      22.036   4.035  23.343  0.00  0.00    -0.022 NA
ATOM     21  C   UNL     1      21.984   6.073  24.007  0.00  0.00    +0.210 A 
BRANCH  21   1
ATOM      1  S   UNL     1      22.134   7.546  24.882  0.00  0.00    -0.077 S 
BRANCH   1  23
ATOM     23  C   UNL     1      20.466   7.725  25.582  0.00  0.00    +0.151 C 
BRANCH  23  25
ATOM      9  O   UNL     1      20.560   5.831  27.104  0.00  0.00    -0.467 OA
ATOM     25  C   UNL     1      20.400   7.175  26.978  0.00  0.00    +0.115 A 
ATOM     29  C   UNL     1      20.206   7.756  28.210  0.00  0.00    +0.045 A 
ATOM     32  C   UNL     1      20.249   6.702  29.152  0.00  0.00    +0.041 A 
ATOM     34  C   UNL     1      20.466   5.552  28.430  0.00  0.00    +0.195 A 
ENDBRANCH  23  25
ENDBRANCH   1  23
ENDBRANCH  21   1
ENDBRANCH  17  10
BRANCH  18   7
ATOM      7  O   UNL     1      16.691   7.247  20.003  0.00  0.00    -0.442 OA
BRANCH   7  22
ATOM      8  O   UNL     1      14.933   8.216  18.906  0.00  0.00    -0.226 OA
ATOM     14  N   UNL     1      14.737   7.458  21.112  0.00  0.00    -0.251 N 
ATOM     22  C   UNL     1      15.388   7.695  19.917  0.00  0.00    +0.405 C 
ATOM     35  H   UNL     1      15.287   7.011  21.842  0.00  0.00    +0.158 HD
BRANCH  14  24
ATOM     24  C   UNL     1      13.398   7.760  21.448  0.00  0.00    +0.037 A 
ATOM     26  C   UNL     1      13.066   9.033  21.912  0.00  0.00    +0.035 A 
ATOM     27  C   UNL     1      12.409   6.785  21.316  0.00  0.00    +0.023 A 
ATOM     28  C   UNL     1      11.744   9.330  22.243  0.00  0.00    +0.057 A 
ATOM     30  C   UNL     1      11.087   7.082  21.647  0.00  0.00    +0.002 A 
ATOM     31  C   UNL     1      10.755   8.356  22.111  0.00  0.00    +0.012 A 
BRANCH  28  33
ATOM      2  F   UNL     1      10.407  10.687  23.692  0.00  0.00    -0.166 F 
ATOM      3  F   UNL     1      12.434  11.356  23.310  0.00  0.00    -0.166 F 
ATOM      4  F   UNL     1      10.930  11.509  21.748  0.00  0.00    -0.166 F 
ATOM     33  C   UNL     1      11.388  10.690  22.740  0.00  0.00    +0.417 C 
ENDBRANCH  28  33
ENDBRANCH  14  24
ENDBRANCH   7  22
ENDBRANCH  18   7
TORSDOF 8
ENDMDL
MODEL 9
REMARK VINA RESULT:      -7.1     31.162     33.852
REMARK  Name = 11886012
REMARK  8 active torsions:
REMARK  status: ('A' for Active; 'I' for Inactive)
REMARK    1  A    between atoms: S_1  and  C_21
REMARK    2  A    between atoms: S_1  and  C_23
REMARK    3  A    between atoms: O_7  and  C_18
REMARK    4  A    between atoms: O_7  and  C_22
REMARK    5  A    between atoms: N_10  and  C_17
REMARK    6  A    between atoms: N_14  and  C_24
REMARK    7  A    between atoms: C_23  and  C_25
REMARK    8  A    between atoms: C_28  and  C_33
REMARK                            x       y       z     vdW  Elec       q    Type
REMARK                         _______ _______ _______ _____ _____    ______ ____
ROOT
ATOM      5  O   UNL     1      21.288   6.808  20.217  0.00  0.00    -0.368 OA
ATOM      6  O   UNL     1      20.644   6.144  23.167  0.00  0.00    -0.368 OA
ATOM     15  C   UNL     1      21.236   5.365  22.104  0.00  0.00    +0.177 C 
ATOM     16  C   UNL     1      20.523   5.756  20.824  0.00  0.00    +0.192 C 
ATOM     17  C   UNL     1      22.671   5.806  21.889  0.00  0.00    +0.168 C 
ATOM     18  C   UNL     1      19.189   6.256  21.327  0.00  0.00    +0.235 C 
ATOM     19  C   UNL     1      22.521   6.983  20.931  0.00  0.00    +0.190 C 
ATOM     20  C   UNL     1      19.570   6.926  22.626  0.00  0.00    +0.207 C 
ENDROOT
BRANCH  17  10
ATOM     10  N   UNL     1      23.528   4.716  21.416  0.00  0.00    -0.212 N 
ATOM     11  N   UNL     1      23.813   4.598  20.112  0.00  0.00    -0.043 NA
ATOM     12  N   UNL     1      24.806   2.971  21.270  0.00  0.00    -0.101 NA
ATOM     13  N   UNL     1      24.595   3.528  20.028  0.00  0.00    -0.022 NA
ATOM     21  C   UNL     1      24.137   3.722  22.114  0.00  0.00    +0.210 A 
BRANCH  21   1
ATOM      1  S   UNL     1      24.014   3.532  23.818  0.00  0.00    -0.077 S 
BRANCH   1  23
ATOM     23  C   UNL     1      22.543   2.473  23.961  0.00  0.00    +0.151 C 
BRANCH  23  25
ATOM      9  O   UNL     1      21.900   0.574  25.336  0.00  0.00    -0.467 OA
ATOM     25  C   UNL     1      22.882   1.156  24.598  0.00  0.00    +0.115 A 
ATOM     29  C   UNL     1      24.014   0.374  24.598  0.00  0.00    +0.045 A 
ATOM     32  C   UNL     1      23.709  -0.759  25.387  0.00  0.00    +0.041 A 
ATOM     34  C   UNL     1      22.412  -0.591  25.813  0.00  0.00    +0.195 A 
ENDBRANCH  23  25
ENDBRANCH   1  23
ENDBRANCH  21   1
ENDBRANCH  17  10
BRANCH  18   7
ATOM      7  O   UNL     1      18.549   7.143  20.439  0.00  0.00    -0.442 OA
BRANCH   7  22
ATOM      8  O   UNL     1      17.358   5.648  19.182  0.00  0.00    -0.226 OA
ATOM     14  N   UNL     1      16.368   7.579  20.062  0.00  0.00    -0.251 N 
ATOM     22  C   UNL     1      17.398   6.690  19.825  0.00  0.00    +0.405 C 
ATOM     35  H   UNL     1      16.598   8.394  20.624  0.00  0.00    +0.158 HD
BRANCH  14  24
ATOM     24  C   UNL     1      15.028   7.495  19.617  0.00  0.00    +0.037 A 
ATOM     26  C   UNL     1      13.998   7.303  20.539  0.00  0.00    +0.035 A 
ATOM     27  C   UNL     1      14.736   7.606  18.258  0.00  0.00    +0.023 A 
ATOM     28  C   UNL     1      12.677   7.221  20.099  0.00  0.00    +0.057 A 
ATOM     30  C   UNL     1      13.415   7.524  17.819  0.00  0.00    +0.002 A 
ATOM     31  C   UNL     1      12.385   7.332  18.740  0.00  0.00    +0.012 A 
BRANCH  28  33
ATOM      2  F   UNL     1      11.186   5.710  21.203  0.00  0.00    -0.166 F 
ATOM      3  F   UNL     1      11.894   7.407  22.352  0.00  0.00    -0.166 F 
ATOM      4  F   UNL     1      10.444   7.705  20.759  0.00  0.00    -0.166 F 
ATOM     33  C   UNL     1      11.576   7.014  21.083  0.00  0.00    +0.417 C 
ENDBRANCH  28  33
ENDBRANCH  14  24
ENDBRANCH   7  22
ENDBRANCH  18   7
TORSDOF 8
ENDMDL
MODEL 10
REMARK VINA RESULT:      -7.0     30.111     33.288
REMARK  Name = 11886012
REMARK  8 active torsions:
REMARK  status: ('A' for Active; 'I' for Inactive)
REMARK    1  A    between atoms: S_1  and  C_21
REMARK    2  A    between atoms: S_1  and  C_23
REMARK    3  A    between atoms: O_7  and  C_18
REMARK    4  A    between atoms: O_7  and  C_22
REMARK    5  A    between atoms: N_10  and  C_17
REMARK    6  A    between atoms: N_14  and  C_24
REMARK    7  A    between atoms: C_23  and  C_25
REMARK    8  A    between atoms: C_28  and  C_33
REMARK                            x       y       z     vdW  Elec       q    Type
REMARK                         _______ _______ _______ _____ _____    ______ ____
ROOT
ATOM      5  O   UNL     1      19.072   5.844  20.495  0.00  0.00    -0.368 OA
ATOM      6  O   UNL     1      18.765   8.694  21.651  0.00  0.00    -0.368 OA
ATOM     15  C   UNL     1      19.275   7.468  22.218  0.00  0.00    +0.177 C 
ATOM     16  C   UNL     1      18.417   6.343  21.671  0.00  0.00    +0.192 C 
ATOM     17  C   UNL     1      20.660   7.191  21.669  0.00  0.00    +0.168 C 
ATOM     18  C   UNL     1      17.124   7.045  21.333  0.00  0.00    +0.235 C 
ATOM     19  C   UNL     1      20.364   6.455  20.366  0.00  0.00    +0.190 C 
ATOM     20  C   UNL     1      17.610   8.393  20.855  0.00  0.00    +0.207 C 
ENDROOT
BRANCH  17  10
ATOM     10  N   UNL     1      21.507   6.467  22.620  0.00  0.00    -0.212 N 
ATOM     11  N   UNL     1      20.975   5.929  23.725  0.00  0.00    -0.043 NA
ATOM     12  N   UNL     1      23.168   5.534  23.654  0.00  0.00    -0.101 NA
ATOM     13  N   UNL     1      21.996   5.359  24.355  0.00  0.00    -0.022 NA
ATOM     21  C   UNL     1      22.843   6.222  22.584  0.00  0.00    +0.210 A 
BRANCH  21   1
ATOM      1  S   UNL     1      23.881   6.750  21.320  0.00  0.00    -0.077 S 
BRANCH   1  23
ATOM     23  C   UNL     1      25.399   5.817  21.682  0.00  0.00    +0.151 C 
BRANCH  23  25
ATOM      9  O   UNL     1      24.857   4.229  19.922  0.00  0.00    -0.467 OA
ATOM     25  C   UNL     1      25.295   4.399  21.197  0.00  0.00    +0.115 A 
ATOM     29  C   UNL     1      25.555   3.183  21.785  0.00  0.00    +0.045 A 
ATOM     32  C   UNL     1      25.259   2.203  20.808  0.00  0.00    +0.041 A 
ATOM     34  C   UNL     1      24.838   2.890  19.693  0.00  0.00    +0.195 A 
ENDBRANCH  23  25
ENDBRANCH   1  23
ENDBRANCH  21   1
ENDBRANCH  17  10
BRANCH  18   7
ATOM      7  O   UNL     1      16.359   6.378  20.355  0.00  0.00    -0.442 OA
BRANCH   7  22
ATOM      8  O   UNL     1      14.629   7.056  19.020  0.00  0.00    -0.226 OA
ATOM     14  N   UNL     1      14.438   7.013  21.353  0.00  0.00    -0.251 N 
ATOM     22  C   UNL     1      15.077   6.844  20.140  0.00  0.00    +0.405 C 
ATOM     35  H   UNL     1      14.980   6.782  22.183  0.00  0.00    +0.158 HD
BRANCH  14  24
ATOM     24  C   UNL     1      13.121   7.470  21.586  0.00  0.00    +0.037 A 
ATOM     26  C   UNL     1      12.902   8.781  22.009  0.00  0.00    +0.035 A 
ATOM     27  C   UNL     1      12.040   6.610  21.391  0.00  0.00    +0.023 A 
ATOM     28  C   UNL     1      11.601   9.230  22.238  0.00  0.00    +0.057 A 
ATOM     30  C   UNL     1      10.740   7.059  21.620  0.00  0.00    +0.002 A 
ATOM     31  C   UNL     1      10.521   8.370  22.043  0.00  0.00    +0.012 A 
BRANCH  28  33
ATOM      2  F   UNL     1      12.469  11.222  23.241  0.00  0.00    -0.166 F 
ATOM      3  F   UNL     1      10.974  11.473  21.691  0.00  0.00    -0.166 F 
ATOM      4  F   UNL     1      10.393  10.718  23.646  0.00  0.00    -0.166 F 
ATOM     33  C   UNL     1      11.366  10.631  22.692  0.00  0.00    +0.417 C 
ENDBRANCH  28  33
ENDBRANCH  14  24
ENDBRANCH   7  22
ENDBRANCH  18   7
TORSDOF 8
ENDMDL
