MODEL 1
REMARK VINA RESULT:      -7.8      0.000      0.000
REMARK  Name = 45360660
REMARK  10 active torsions:
REMARK  status: ('A' for Active; 'I' for Inactive)
REMARK    1  A    between atoms: O_3  and  C_31
REMARK    2  A    between atoms: O_3  and  C_32
REMARK    3  A    between atoms: N_6  and  C_9
REMARK    4  A    between atoms: N_6  and  C_17
REMARK    5  A    between atoms: N_7  and  C_22
REMARK    6  A    between atoms: C_10  and  C_15
REMARK    7  A    between atoms: C_15  and  C_16
REMARK    8  A    between atoms: C_16  and  C_18
REMARK    9  A    between atoms: C_17  and  C_19
REMARK   10  A    between atoms: C_22  and  C_26
REMARK                            x       y       z     vdW  Elec       q    Type
REMARK                         _______ _______ _______ _____ _____    ______ ____
ROOT
ATOM      1  O   UNL     1      11.672   7.567  17.774  0.00  0.00    -0.274 OA
ATOM      4  N   UNL     1      13.756   6.724  20.650  0.00  0.00    -0.286 NA
ATOM      5  N   UNL     1      13.922   7.755  18.045  0.00  0.00    -0.313 N 
ATOM      8  C   UNL     1      12.557   6.644  19.806  0.00  0.00    +0.145 C 
ATOM      9  C   UNL     1      12.137   7.689  21.958  0.00  0.00    +0.070 C 
ATOM     10  C   UNL     1      15.014   6.607  19.918  0.00  0.00    +0.075 C 
ATOM     11  C   UNL     1      11.440   7.257  20.667  0.00  0.00    +0.048 C 
ATOM     12  C   UNL     1      13.587   7.874  21.534  0.00  0.00    +0.104 C 
ATOM     13  C   UNL     1      15.120   7.685  18.850  0.00  0.00    +0.123 C 
ATOM     14  C   UNL     1      12.672   7.379  18.473  0.00  0.00    +0.230 C 
ATOM     33  H   UNL     1      13.988   8.224  17.147  0.00  0.00    +0.149 HD
ENDROOT
BRANCH   9   6
ATOM      6  N   UNL     1      11.550   8.880  22.551  0.00  0.00    -0.308 NA
ATOM     34  H   UNL     1      10.554   8.720  22.703  0.00  0.00    +0.123 HD
BRANCH   6  17
ATOM     17  C   UNL     1      11.713  10.035  21.676  0.00  0.00    +0.116 C 
BRANCH  17  19
ATOM     19  C   UNL     1      11.284  11.312  22.349  0.00  0.00    -0.034 A 
ATOM     20  C   UNL     1      11.258  12.505  21.627  0.00  0.00    +0.005 A 
ATOM     21  C   UNL     1      10.915  11.302  23.694  0.00  0.00    +0.005 A 
ATOM     23  C   UNL     1      10.861  13.689  22.250  0.00  0.00    +0.000 A 
ATOM     24  C   UNL     1      10.518  12.486  24.317  0.00  0.00    +0.000 A 
ATOM     25  C   UNL     1      10.492  13.679  23.595  0.00  0.00    +0.000 A 
ENDBRANCH  17  19
ENDBRANCH   6  17
ENDBRANCH   9   6
BRANCH  10  15
ATOM     15  C   UNL     1      16.237   6.621  20.836  0.00  0.00    +0.029 C 
BRANCH  15  16
ATOM     16  C   UNL     1      17.499   6.233  20.077  0.00  0.00    +0.097 C 
BRANCH  16  18
ATOM      2  O   UNL     1      18.733   7.582  21.664  0.00  0.00    -0.276 OA
ATOM      7  N   UNL     1      19.901   6.240  20.173  0.00  0.00    -0.311 N 
ATOM     18  C   UNL     1      18.753   6.773  20.740  0.00  0.00    +0.213 C 
ATOM     35  H   UNL     1      19.829   5.595  19.392  0.00  0.00    +0.149 HD
BRANCH   7  22
ATOM     22  C   UNL     1      21.223   6.597  20.628  0.00  0.00    +0.139 C 
BRANCH  22  26
ATOM     26  C   UNL     1      21.999   5.393  21.096  0.00  0.00    -0.030 A 
ATOM     27  C   UNL     1      21.566   4.676  22.212  0.00  0.00    +0.009 A 
ATOM     28  C   UNL     1      23.148   4.995  20.413  0.00  0.00    +0.009 A 
ATOM     29  C   UNL     1      22.283   3.560  22.644  0.00  0.00    +0.046 A 
ATOM     30  C   UNL     1      23.865   3.879  20.846  0.00  0.00    +0.046 A 
ATOM     31  C   UNL     1      23.432   3.162  21.961  0.00  0.00    +0.120 A 
BRANCH  31   3
ATOM      3  O   UNL     1      24.131   2.072  22.382  0.00  0.00    -0.495 OA
ATOM     32  C   UNL     1      24.333   1.025  21.434  0.00  0.00    +0.277 C 
ENDBRANCH  31   3
ENDBRANCH  22  26
ENDBRANCH   7  22
ENDBRANCH  16  18
ENDBRANCH  15  16
ENDBRANCH  10  15
TORSDOF 9
ENDMDL
MODEL 2
REMARK VINA RESULT:      -7.3     26.776     29.673
REMARK  Name = 45360660
REMARK  10 active torsions:
REMARK  status: ('A' for Active; 'I' for Inactive)
REMARK    1  A    between atoms: O_3  and  C_31
REMARK    2  A    between atoms: O_3  and  C_32
REMARK    3  A    between atoms: N_6  and  C_9
REMARK    4  A    between atoms: N_6  and  C_17
REMARK    5  A    between atoms: N_7  and  C_22
REMARK    6  A    between atoms: C_10  and  C_15
REMARK    7  A    between atoms: C_15  and  C_16
REMARK    8  A    between atoms: C_16  and  C_18
REMARK    9  A    between atoms: C_17  and  C_19
REMARK   10  A    between atoms: C_22  and  C_26
REMARK                            x       y       z     vdW  Elec       q    Type
REMARK                         _______ _______ _______ _____ _____    ______ ____
ROOT
ATOM      1  O   UNL     1      -7.598 -12.566  19.523  0.00  0.00    -0.274 OA
ATOM      4  N   UNL     1      -5.406 -10.809  17.193  0.00  0.00    -0.286 NA
ATOM      5  N   UNL     1      -6.252 -13.393  17.887  0.00  0.00    -0.313 N 
ATOM      8  C   UNL     1      -6.186 -10.964  18.427  0.00  0.00    +0.145 C 
ATOM      9  C   UNL     1      -7.103  -9.288  16.927  0.00  0.00    +0.070 C 
ATOM     10  C   UNL     1      -4.546 -11.946  16.880  0.00  0.00    +0.075 C 
ATOM     11  C   UNL     1      -7.319  -9.933  18.296  0.00  0.00    +0.048 C 
ATOM     12  C   UNL     1      -6.324 -10.344  16.156  0.00  0.00    +0.104 C 
ATOM     13  C   UNL     1      -5.362 -13.224  16.761  0.00  0.00    +0.123 C 
ATOM     14  C   UNL     1      -6.755 -12.363  18.643  0.00  0.00    +0.230 C 
ATOM     33  H   UNL     1      -6.623 -14.323  18.055  0.00  0.00    +0.149 HD
ENDROOT
BRANCH   9   6
ATOM      6  N   UNL     1      -8.344  -8.895  16.279  0.00  0.00    -0.308 NA
ATOM     34  H   UNL     1      -8.162  -8.104  15.661  0.00  0.00    +0.123 HD
BRANCH   6  17
ATOM     17  C   UNL     1      -9.346  -8.504  17.263  0.00  0.00    +0.116 C 
BRANCH  17  19
ATOM     19  C   UNL     1     -10.526  -7.824  16.620  0.00  0.00    -0.034 A 
ATOM     20  C   UNL     1     -11.804  -8.365  16.761  0.00  0.00    +0.005 A 
ATOM     21  C   UNL     1     -10.341  -6.654  15.883  0.00  0.00    +0.005 A 
ATOM     23  C   UNL     1     -12.898  -7.735  16.166  0.00  0.00    +0.000 A 
ATOM     24  C   UNL     1     -11.435  -6.024  15.288  0.00  0.00    +0.000 A 
ATOM     25  C   UNL     1     -12.713  -6.565  15.429  0.00  0.00    +0.000 A 
ENDBRANCH  17  19
ENDBRANCH   6  17
ENDBRANCH   9   6
BRANCH  10  15
ATOM     15  C   UNL     1      -3.695 -11.720  15.629  0.00  0.00    +0.029 C 
BRANCH  15  16
ATOM     16  C   UNL     1      -2.547 -10.760  15.911  0.00  0.00    +0.097 C 
BRANCH  16  18
ATOM      2  O   UNL     1      -0.965  -9.466  14.615  0.00  0.00    -0.276 OA
ATOM      7  N   UNL     1      -2.296 -11.031  13.536  0.00  0.00    -0.311 N 
ATOM     18  C   UNL     1      -1.837 -10.330  14.641  0.00  0.00    +0.213 C 
ATOM     35  H   UNL     1      -3.042 -11.713  13.640  0.00  0.00    +0.149 HD
BRANCH   7  22
ATOM     22  C   UNL     1      -1.778 -10.804  12.208  0.00  0.00    +0.139 C 
BRANCH  22  26
ATOM     26  C   UNL     1      -2.880 -10.593  11.203  0.00  0.00    -0.030 A 
ATOM     27  C   UNL     1      -2.945  -9.403  10.478  0.00  0.00    +0.009 A 
ATOM     28  C   UNL     1      -3.834 -11.589  10.996  0.00  0.00    +0.009 A 
ATOM     29  C   UNL     1      -3.963  -9.209   9.546  0.00  0.00    +0.046 A 
ATOM     30  C   UNL     1      -4.854 -11.395  10.064  0.00  0.00    +0.046 A 
ATOM     31  C   UNL     1      -4.918 -10.205   9.339  0.00  0.00    +0.120 A 
BRANCH  31   3
ATOM      3  O   UNL     1      -5.912 -10.016   8.428  0.00  0.00    -0.495 OA
ATOM     32  C   UNL     1      -5.542 -10.037   7.050  0.00  0.00    +0.277 C 
ENDBRANCH  31   3
ENDBRANCH  22  26
ENDBRANCH   7  22
ENDBRANCH  16  18
ENDBRANCH  15  16
ENDBRANCH  10  15
TORSDOF 9
ENDMDL
MODEL 3
REMARK VINA RESULT:      -7.3      4.890      7.239
REMARK  Name = 45360660
REMARK  10 active torsions:
REMARK  status: ('A' for Active; 'I' for Inactive)
REMARK    1  A    between atoms: O_3  and  C_31
REMARK    2  A    between atoms: O_3  and  C_32
REMARK    3  A    between atoms: N_6  and  C_9
REMARK    4  A    between atoms: N_6  and  C_17
REMARK    5  A    between atoms: N_7  and  C_22
REMARK    6  A    between atoms: C_10  and  C_15
REMARK    7  A    between atoms: C_15  and  C_16
REMARK    8  A    between atoms: C_16  and  C_18
REMARK    9  A    between atoms: C_17  and  C_19
REMARK   10  A    between atoms: C_22  and  C_26
REMARK                            x       y       z     vdW  Elec       q    Type
REMARK                         _______ _______ _______ _____ _____    ______ ____
ROOT
ATOM      1  O   UNL     1      10.889   5.923  21.225  0.00  0.00    -0.274 OA
ATOM      4  N   UNL     1      13.463   8.510  21.301  0.00  0.00    -0.286 NA
ATOM      5  N   UNL     1      12.429   6.491  19.649  0.00  0.00    -0.313 N 
ATOM      8  C   UNL     1      12.506   7.568  21.893  0.00  0.00    +0.145 C 
ATOM      9  C   UNL     1      11.882   9.891  22.226  0.00  0.00    +0.070 C 
ATOM     10  C   UNL     1      14.316   7.929  20.269  0.00  0.00    +0.075 C 
ATOM     11  C   UNL     1      11.444   8.462  22.552  0.00  0.00    +0.048 C 
ATOM     12  C   UNL     1      12.726   9.726  20.970  0.00  0.00    +0.104 C 
ATOM     13  C   UNL     1      13.480   7.343  19.142  0.00  0.00    +0.123 C 
ATOM     14  C   UNL     1      11.859   6.612  20.893  0.00  0.00    +0.230 C 
ATOM     33  H   UNL     1      12.002   5.837  19.001  0.00  0.00    +0.149 HD
ENDROOT
BRANCH   9   6
ATOM      6  N   UNL     1      10.764  10.806  22.058  0.00  0.00    -0.308 NA
ATOM     34  H   UNL     1      10.231  10.532  21.233  0.00  0.00    +0.123 HD
BRANCH   6  17
ATOM     17  C   UNL     1      11.231  12.176  21.884  0.00  0.00    +0.116 C 
BRANCH  17  19
ATOM     19  C   UNL     1      11.208  12.944  23.178  0.00  0.00    -0.034 A 
ATOM     20  C   UNL     1      10.620  12.382  24.312  0.00  0.00    +0.005 A 
ATOM     21  C   UNL     1      11.772  14.218  23.244  0.00  0.00    +0.005 A 
ATOM     23  C   UNL     1      10.598  13.094  25.512  0.00  0.00    +0.000 A 
ATOM     24  C   UNL     1      11.750  14.930  24.444  0.00  0.00    +0.000 A 
ATOM     25  C   UNL     1      11.163  14.368  25.578  0.00  0.00    +0.000 A 
ENDBRANCH  17  19
ENDBRANCH   6  17
ENDBRANCH   9   6
BRANCH  10  15
ATOM     15  C   UNL     1      15.349   8.919  19.727  0.00  0.00    +0.029 C 
BRANCH  15  16
ATOM     16  C   UNL     1      16.577   8.981  20.626  0.00  0.00    +0.097 C 
BRANCH  16  18
ATOM      2  O   UNL     1      17.934  10.811  21.442  0.00  0.00    -0.276 OA
ATOM      7  N   UNL     1      15.633  11.084  21.308  0.00  0.00    -0.311 N 
ATOM     18  C   UNL     1      16.818  10.378  21.168  0.00  0.00    +0.213 C 
ATOM     35  H   UNL     1      14.748  10.641  21.083  0.00  0.00    +0.149 HD
BRANCH   7  22
ATOM     22  C   UNL     1      15.597  12.438  21.806  0.00  0.00    +0.139 C 
BRANCH  22  26
ATOM     26  C   UNL     1      15.175  12.493  23.251  0.00  0.00    -0.030 A 
ATOM     27  C   UNL     1      14.545  11.394  23.836  0.00  0.00    +0.009 A 
ATOM     28  C   UNL     1      15.415  13.641  24.005  0.00  0.00    +0.009 A 
ATOM     29  C   UNL     1      14.157  11.443  25.174  0.00  0.00    +0.046 A 
ATOM     30  C   UNL     1      15.027  13.691  25.344  0.00  0.00    +0.046 A 
ATOM     31  C   UNL     1      14.397  12.592  25.928  0.00  0.00    +0.120 A 
BRANCH  31   3
ATOM      3  O   UNL     1      14.019  12.640  27.236  0.00  0.00    -0.495 OA
ATOM     32  C   UNL     1      14.065  13.912  27.878  0.00  0.00    +0.277 C 
ENDBRANCH  31   3
ENDBRANCH  22  26
ENDBRANCH   7  22
ENDBRANCH  16  18
ENDBRANCH  15  16
ENDBRANCH  10  15
TORSDOF 9
ENDMDL
MODEL 4
REMARK VINA RESULT:      -7.3      2.062     11.521
REMARK  Name = 45360660
REMARK  10 active torsions:
REMARK  status: ('A' for Active; 'I' for Inactive)
REMARK    1  A    between atoms: O_3  and  C_31
REMARK    2  A    between atoms: O_3  and  C_32
REMARK    3  A    between atoms: N_6  and  C_9
REMARK    4  A    between atoms: N_6  and  C_17
REMARK    5  A    between atoms: N_7  and  C_22
REMARK    6  A    between atoms: C_10  and  C_15
REMARK    7  A    between atoms: C_15  and  C_16
REMARK    8  A    between atoms: C_16  and  C_18
REMARK    9  A    between atoms: C_17  and  C_19
REMARK   10  A    between atoms: C_22  and  C_26
REMARK                            x       y       z     vdW  Elec       q    Type
REMARK                         _______ _______ _______ _____ _____    ______ ____
ROOT
ATOM      1  O   UNL     1      20.809   8.262  23.868  0.00  0.00    -0.274 OA
ATOM      4  N   UNL     1      18.623   6.602  21.461  0.00  0.00    -0.286 NA
ATOM      5  N   UNL     1      19.215   9.140  22.503  0.00  0.00    -0.313 N 
ATOM      8  C   UNL     1      19.499   6.670  22.638  0.00  0.00    +0.145 C 
ATOM      9  C   UNL     1      20.456   5.384  20.814  0.00  0.00    +0.070 C 
ATOM     10  C   UNL     1      17.605   7.647  21.410  0.00  0.00    +0.075 C 
ATOM     11  C   UNL     1      20.729   5.835  22.249  0.00  0.00    +0.048 C 
ATOM     12  C   UNL     1      19.482   6.431  20.292  0.00  0.00    +0.104 C 
ATOM     13  C   UNL     1      18.244   9.027  21.440  0.00  0.00    +0.123 C 
ATOM     14  C   UNL     1      19.913   8.084  23.037  0.00  0.00    +0.230 C 
ATOM     33  H   UNL     1      19.486  10.074  22.792  0.00  0.00    +0.149 HD
ENDROOT
BRANCH   9   6
ATOM      6  N   UNL     1      21.665   5.267  20.013  0.00  0.00    -0.308 NA
ATOM     34  H   UNL     1      21.666   4.363  19.541  0.00  0.00    +0.123 HD
BRANCH   6  17
ATOM     17  C   UNL     1      22.856   5.365  20.848  0.00  0.00    +0.116 C 
BRANCH  17  19
ATOM     19  C   UNL     1      23.574   4.045  20.955  0.00  0.00    -0.034 A 
ATOM     20  C   UNL     1      24.592   3.731  20.056  0.00  0.00    +0.005 A 
ATOM     21  C   UNL     1      23.219   3.138  21.953  0.00  0.00    +0.005 A 
ATOM     23  C   UNL     1      25.258   2.508  20.155  0.00  0.00    +0.000 A 
ATOM     24  C   UNL     1      23.885   1.915  22.052  0.00  0.00    +0.000 A 
ATOM     25  C   UNL     1      24.904   1.601  21.153  0.00  0.00    +0.000 A 
ENDBRANCH  17  19
ENDBRANCH   6  17
ENDBRANCH   9   6
BRANCH  10  15
ATOM     15  C   UNL     1      16.666   7.502  20.211  0.00  0.00    +0.029 C 
BRANCH  15  16
ATOM     16  C   UNL     1      15.687   6.354  20.415  0.00  0.00    +0.097 C 
BRANCH  16  18
ATOM      2  O   UNL     1      13.936   7.072  18.905  0.00  0.00    -0.276 OA
ATOM      7  N   UNL     1      13.414   6.671  21.131  0.00  0.00    -0.311 N 
ATOM     18  C   UNL     1      14.268   6.741  20.040  0.00  0.00    +0.213 C 
ATOM     35  H   UNL     1      13.776   6.412  22.044  0.00  0.00    +0.149 HD
BRANCH   7  22
ATOM     22  C   UNL     1      12.010   6.991  21.033  0.00  0.00    +0.139 C 
BRANCH  22  26
ATOM     26  C   UNL     1      11.729   8.413  21.443  0.00  0.00    -0.030 A 
ATOM     27  C   UNL     1      12.207   9.470  20.667  0.00  0.00    +0.009 A 
ATOM     28  C   UNL     1      10.990   8.673  22.596  0.00  0.00    +0.009 A 
ATOM     29  C   UNL     1      11.944  10.786  21.045  0.00  0.00    +0.046 A 
ATOM     30  C   UNL     1      10.728   9.990  22.975  0.00  0.00    +0.046 A 
ATOM     31  C   UNL     1      11.205  11.046  22.199  0.00  0.00    +0.120 A 
BRANCH  31   3
ATOM      3  O   UNL     1      10.948  12.332  22.567  0.00  0.00    -0.495 OA
ATOM     32  C   UNL     1      12.048  13.100  23.052  0.00  0.00    +0.277 C 
ENDBRANCH  31   3
ENDBRANCH  22  26
ENDBRANCH   7  22
ENDBRANCH  16  18
ENDBRANCH  15  16
ENDBRANCH  10  15
TORSDOF 9
ENDMDL
MODEL 5
REMARK VINA RESULT:      -7.2     27.073     29.773
REMARK  Name = 45360660
REMARK  10 active torsions:
REMARK  status: ('A' for Active; 'I' for Inactive)
REMARK    1  A    between atoms: O_3  and  C_31
REMARK    2  A    between atoms: O_3  and  C_32
REMARK    3  A    between atoms: N_6  and  C_9
REMARK    4  A    between atoms: N_6  and  C_17
REMARK    5  A    between atoms: N_7  and  C_22
REMARK    6  A    between atoms: C_10  and  C_15
REMARK    7  A    between atoms: C_15  and  C_16
REMARK    8  A    between atoms: C_16  and  C_18
REMARK    9  A    between atoms: C_17  and  C_19
REMARK   10  A    between atoms: C_22  and  C_26
REMARK                            x       y       z     vdW  Elec       q    Type
REMARK                         _______ _______ _______ _____ _____    ______ ____
ROOT
ATOM      1  O   UNL     1      -7.516 -14.230  16.697  0.00  0.00    -0.274 OA
ATOM      4  N   UNL     1      -4.999 -11.769  17.661  0.00  0.00    -0.286 NA
ATOM      5  N   UNL     1      -6.219 -12.889  15.396  0.00  0.00    -0.313 N 
ATOM      8  C   UNL     1      -5.850 -12.949  17.858  0.00  0.00    +0.145 C 
ATOM      9  C   UNL     1      -6.459 -11.088  19.295  0.00  0.00    +0.070 C 
ATOM     10  C   UNL     1      -4.288 -11.747  16.387  0.00  0.00    +0.075 C 
ATOM     11  C   UNL     1      -6.825 -12.538  18.973  0.00  0.00    +0.048 C 
ATOM     12  C   UNL     1      -5.795 -10.597  18.016  0.00  0.00    +0.104 C 
ATOM     13  C   UNL     1      -5.263 -11.820  15.222  0.00  0.00    +0.123 C 
ATOM     14  C   UNL     1      -6.613 -13.392  16.612  0.00  0.00    +0.230 C 
ATOM     33  H   UNL     1      -6.721 -13.207  14.573  0.00  0.00    +0.149 HD
ENDROOT
BRANCH   9   6
ATOM      6  N   UNL     1      -7.604 -10.288  19.699  0.00  0.00    -0.308 NA
ATOM     34  H   UNL     1      -7.608 -10.201  20.715  0.00  0.00    +0.123 HD
BRANCH   6  17
ATOM     17  C   UNL     1      -8.852 -10.909  19.274  0.00  0.00    +0.116 C 
BRANCH  17  19
ATOM     19  C   UNL     1      -9.714  -9.955  18.491  0.00  0.00    -0.034 A 
ATOM     20  C   UNL     1     -11.104 -10.047  18.569  0.00  0.00    +0.005 A 
ATOM     21  C   UNL     1      -9.124  -8.981  17.686  0.00  0.00    +0.005 A 
ATOM     23  C   UNL     1     -11.904  -9.164  17.843  0.00  0.00    +0.000 A 
ATOM     24  C   UNL     1      -9.924  -8.097  16.960  0.00  0.00    +0.000 A 
ATOM     25  C   UNL     1     -11.314  -8.189  17.039  0.00  0.00    +0.000 A 
ENDBRANCH  17  19
ENDBRANCH   6  17
ENDBRANCH   9   6
BRANCH  10  15
ATOM     15  C   UNL     1      -3.356 -10.542  16.248  0.00  0.00    +0.029 C 
BRANCH  15  16
ATOM     16  C   UNL     1      -1.930 -10.980  15.946  0.00  0.00    +0.097 C 
BRANCH  16  18
ATOM      2  O   UNL     1      -1.460 -12.533  14.150  0.00  0.00    -0.276 OA
ATOM      7  N   UNL     1      -1.964 -10.327  13.633  0.00  0.00    -0.311 N 
ATOM     18  C   UNL     1      -1.753 -11.392  14.496  0.00  0.00    +0.213 C 
ATOM     35  H   UNL     1      -2.178  -9.406  14.005  0.00  0.00    +0.149 HD
BRANCH   7  22
ATOM     22  C   UNL     1      -1.854 -10.462  12.201  0.00  0.00    +0.139 C 
BRANCH  22  26
ATOM     26  C   UNL     1      -3.081  -9.948  11.493  0.00  0.00    -0.030 A 
ATOM     27  C   UNL     1      -4.339 -10.104  12.076  0.00  0.00    +0.009 A 
ATOM     28  C   UNL     1      -2.958  -9.314  10.257  0.00  0.00    +0.009 A 
ATOM     29  C   UNL     1      -5.474  -9.625  11.422  0.00  0.00    +0.046 A 
ATOM     30  C   UNL     1      -4.094  -8.835   9.603  0.00  0.00    +0.046 A 
ATOM     31  C   UNL     1      -5.351  -8.991  10.186  0.00  0.00    +0.120 A 
BRANCH  31   3
ATOM      3  O   UNL     1      -6.460  -8.522   9.549  0.00  0.00    -0.495 OA
ATOM     32  C   UNL     1      -7.424  -9.487   9.131  0.00  0.00    +0.277 C 
ENDBRANCH  31   3
ENDBRANCH  22  26
ENDBRANCH   7  22
ENDBRANCH  16  18
ENDBRANCH  15  16
ENDBRANCH  10  15
TORSDOF 9
ENDMDL
MODEL 6
REMARK VINA RESULT:      -7.0     28.072     29.959
REMARK  Name = 45360660
REMARK  10 active torsions:
REMARK  status: ('A' for Active; 'I' for Inactive)
REMARK    1  A    between atoms: O_3  and  C_31
REMARK    2  A    between atoms: O_3  and  C_32
REMARK    3  A    between atoms: N_6  and  C_9
REMARK    4  A    between atoms: N_6  and  C_17
REMARK    5  A    between atoms: N_7  and  C_22
REMARK    6  A    between atoms: C_10  and  C_15
REMARK    7  A    between atoms: C_15  and  C_16
REMARK    8  A    between atoms: C_16  and  C_18
REMARK    9  A    between atoms: C_17  and  C_19
REMARK   10  A    between atoms: C_22  and  C_26
REMARK                            x       y       z     vdW  Elec       q    Type
REMARK                         _______ _______ _______ _____ _____    ______ ____
ROOT
ATOM      1  O   UNL     1      -8.542 -13.176  13.566  0.00  0.00    -0.274 OA
ATOM      4  N   UNL     1      -6.851 -10.477  11.782  0.00  0.00    -0.286 NA
ATOM      5  N   UNL     1      -9.416 -11.459  12.356  0.00  0.00    -0.313 N 
ATOM      8  C   UNL     1      -6.951 -11.803  12.405  0.00  0.00    +0.145 C 
ATOM      9  C   UNL     1      -5.466 -10.299  13.603  0.00  0.00    +0.070 C 
ATOM     10  C   UNL     1      -7.954 -10.152  10.883  0.00  0.00    +0.075 C 
ATOM     11  C   UNL     1      -6.008 -11.730  13.617  0.00  0.00    +0.048 C 
ATOM     12  C   UNL     1      -6.532  -9.524  12.841  0.00  0.00    +0.104 C 
ATOM     13  C   UNL     1      -9.286 -10.227  11.612  0.00  0.00    +0.123 C 
ATOM     14  C   UNL     1      -8.360 -12.190  12.844  0.00  0.00    +0.230 C 
ATOM     33  H   UNL     1     -10.350 -11.740  12.638  0.00  0.00    +0.149 HD
ENDROOT
BRANCH   9   6
ATOM      6  N   UNL     1      -5.208  -9.775  14.934  0.00  0.00    -0.308 NA
ATOM     34  H   UNL     1      -4.750  -8.867  14.852  0.00  0.00    +0.123 HD
BRANCH   6  17
ATOM     17  C   UNL     1      -4.343 -10.672  15.691  0.00  0.00    +0.116 C 
BRANCH  17  19
ATOM     19  C   UNL     1      -4.835 -10.867  17.100  0.00  0.00    -0.034 A 
ATOM     20  C   UNL     1      -6.043 -10.297  17.502  0.00  0.00    +0.005 A 
ATOM     21  C   UNL     1      -4.082 -11.616  18.004  0.00  0.00    +0.005 A 
ATOM     23  C   UNL     1      -6.500 -10.477  18.808  0.00  0.00    +0.000 A 
ATOM     24  C   UNL     1      -4.539 -11.797  19.311  0.00  0.00    +0.000 A 
ATOM     25  C   UNL     1      -5.747 -11.227  19.712  0.00  0.00    +0.000 A 
ENDBRANCH  17  19
ENDBRANCH   6  17
ENDBRANCH   9   6
BRANCH  10  15
ATOM     15  C   UNL     1      -7.779  -8.797  10.196  0.00  0.00    +0.029 C 
BRANCH  15  16
ATOM     16  C   UNL     1      -7.484  -8.965   8.712  0.00  0.00    +0.097 C 
BRANCH  16  18
ATOM      2  O   UNL     1      -5.629  -9.863   7.444  0.00  0.00    -0.276 OA
ATOM      7  N   UNL     1      -5.212  -8.847   9.488  0.00  0.00    -0.311 N 
ATOM     18  C   UNL     1      -6.023  -9.286   8.453  0.00  0.00    +0.213 C 
ATOM     35  H   UNL     1      -5.623  -8.401  10.303  0.00  0.00    +0.149 HD
BRANCH   7  22
ATOM     22  C   UNL     1      -3.781  -9.035   9.479  0.00  0.00    +0.139 C 
BRANCH  22  26
ATOM     26  C   UNL     1      -3.356 -10.162  10.384  0.00  0.00    -0.030 A 
ATOM     27  C   UNL     1      -2.454  -9.922  11.421  0.00  0.00    +0.009 A 
ATOM     28  C   UNL     1      -3.867 -11.445  10.186  0.00  0.00    +0.009 A 
ATOM     29  C   UNL     1      -2.064 -10.965  12.260  0.00  0.00    +0.046 A 
ATOM     30  C   UNL     1      -3.476 -12.488  11.026  0.00  0.00    +0.046 A 
ATOM     31  C   UNL     1      -2.574 -12.247  12.063  0.00  0.00    +0.120 A 
BRANCH  31   3
ATOM      3  O   UNL     1      -2.194 -13.265  12.883  0.00  0.00    -0.495 OA
ATOM     32  C   UNL     1      -1.520 -12.909  14.089  0.00  0.00    +0.277 C 
ENDBRANCH  31   3
ENDBRANCH  22  26
ENDBRANCH   7  22
ENDBRANCH  16  18
ENDBRANCH  15  16
ENDBRANCH  10  15
TORSDOF 9
ENDMDL
MODEL 7
REMARK VINA RESULT:      -6.9     27.557     29.795
REMARK  Name = 45360660
REMARK  10 active torsions:
REMARK  status: ('A' for Active; 'I' for Inactive)
REMARK    1  A    between atoms: O_3  and  C_31
REMARK    2  A    between atoms: O_3  and  C_32
REMARK    3  A    between atoms: N_6  and  C_9
REMARK    4  A    between atoms: N_6  and  C_17
REMARK    5  A    between atoms: N_7  and  C_22
REMARK    6  A    between atoms: C_10  and  C_15
REMARK    7  A    between atoms: C_15  and  C_16
REMARK    8  A    between atoms: C_16  and  C_18
REMARK    9  A    between atoms: C_17  and  C_19
REMARK   10  A    between atoms: C_22  and  C_26
REMARK                            x       y       z     vdW  Elec       q    Type
REMARK                         _______ _______ _______ _____ _____    ______ ____
ROOT
ATOM      1  O   UNL     1      -7.193 -12.382  19.508  0.00  0.00    -0.274 OA
ATOM      4  N   UNL     1      -5.064 -10.424  17.282  0.00  0.00    -0.286 NA
ATOM      5  N   UNL     1      -5.493 -13.056  18.155  0.00  0.00    -0.313 N 
ATOM      8  C   UNL     1      -5.970 -10.627  18.420  0.00  0.00    +0.145 C 
ATOM      9  C   UNL     1      -6.964  -9.310  16.638  0.00  0.00    +0.070 C 
ATOM     10  C   UNL     1      -3.968 -11.384  17.210  0.00  0.00    +0.075 C 
ATOM     11  C   UNL     1      -7.248  -9.864  18.034  0.00  0.00    +0.048 C 
ATOM     12  C   UNL     1      -5.895 -10.248  16.094  0.00  0.00    +0.104 C 
ATOM     13  C   UNL     1      -4.499 -12.807  17.137  0.00  0.00    +0.123 C 
ATOM     14  C   UNL     1      -6.287 -12.089  18.722  0.00  0.00    +0.230 C 
ATOM     33  H   UNL     1      -5.701 -14.024  18.381  0.00  0.00    +0.149 HD
ENDROOT
BRANCH   9   6
ATOM      6  N   UNL     1      -8.151  -9.236  15.801  0.00  0.00    -0.308 NA
ATOM     34  H   UNL     1      -8.978  -9.202  16.398  0.00  0.00    +0.123 HD
BRANCH   6  17
ATOM     17  C   UNL     1      -8.249 -10.400  14.928  0.00  0.00    +0.116 C 
BRANCH  17  19
ATOM     19  C   UNL     1      -8.172 -10.017  13.474  0.00  0.00    -0.034 A 
ATOM     20  C   UNL     1      -6.963  -9.581  12.932  0.00  0.00    +0.005 A 
ATOM     21  C   UNL     1      -9.309 -10.096  12.671  0.00  0.00    +0.005 A 
ATOM     23  C   UNL     1      -6.890  -9.226  11.584  0.00  0.00    +0.000 A 
ATOM     24  C   UNL     1      -9.236  -9.741  11.323  0.00  0.00    +0.000 A 
ATOM     25  C   UNL     1      -8.028  -9.305  10.780  0.00  0.00    +0.000 A 
ENDBRANCH  17  19
ENDBRANCH   6  17
ENDBRANCH   9   6
BRANCH  10  15
ATOM     15  C   UNL     1      -3.005 -11.098  16.056  0.00  0.00    +0.029 C 
BRANCH  15  16
ATOM     16  C   UNL     1      -2.836 -12.320  15.164  0.00  0.00    +0.097 C 
BRANCH  16  18
ATOM      2  O   UNL     1      -1.251 -12.737  13.383  0.00  0.00    -0.276 OA
ATOM      7  N   UNL     1      -2.479 -10.768  13.363  0.00  0.00    -0.311 N 
ATOM     18  C   UNL     1      -2.091 -11.994  13.883  0.00  0.00    +0.213 C 
ATOM     35  H   UNL     1      -3.163 -10.201  13.855  0.00  0.00    +0.149 HD
BRANCH   7  22
ATOM     22  C   UNL     1      -1.914 -10.232  12.148  0.00  0.00    +0.139 C 
BRANCH  22  26
ATOM     26  C   UNL     1      -2.873 -10.334  10.991  0.00  0.00    -0.030 A 
ATOM     27  C   UNL     1      -3.199  -9.195  10.254  0.00  0.00    +0.009 A 
ATOM     28  C   UNL     1      -3.431 -11.567  10.655  0.00  0.00    +0.009 A 
ATOM     29  C   UNL     1      -4.085  -9.291   9.180  0.00  0.00    +0.046 A 
ATOM     30  C   UNL     1      -4.317 -11.662   9.581  0.00  0.00    +0.046 A 
ATOM     31  C   UNL     1      -4.643 -10.523   8.845  0.00  0.00    +0.120 A 
BRANCH  31   3
ATOM      3  O   UNL     1      -5.507 -10.616   7.796  0.00  0.00    -0.495 OA
ATOM     32  C   UNL     1      -6.292  -9.463   7.498  0.00  0.00    +0.277 C 
ENDBRANCH  31   3
ENDBRANCH  22  26
ENDBRANCH   7  22
ENDBRANCH  16  18
ENDBRANCH  15  16
ENDBRANCH  10  15
TORSDOF 9
ENDMDL
MODEL 8
REMARK VINA RESULT:      -6.8     27.611     31.740
REMARK  Name = 45360660
REMARK  10 active torsions:
REMARK  status: ('A' for Active; 'I' for Inactive)
REMARK    1  A    between atoms: O_3  and  C_31
REMARK    2  A    between atoms: O_3  and  C_32
REMARK    3  A    between atoms: N_6  and  C_9
REMARK    4  A    between atoms: N_6  and  C_17
REMARK    5  A    between atoms: N_7  and  C_22
REMARK    6  A    between atoms: C_10  and  C_15
REMARK    7  A    between atoms: C_15  and  C_16
REMARK    8  A    between atoms: C_16  and  C_18
REMARK    9  A    between atoms: C_17  and  C_19
REMARK   10  A    between atoms: C_22  and  C_26
REMARK                            x       y       z     vdW  Elec       q    Type
REMARK                         _______ _______ _______ _____ _____    ______ ____
ROOT
ATOM      1  O   UNL     1     -18.311   7.374  26.937  0.00  0.00    -0.274 OA
ATOM      4  N   UNL     1     -17.282   4.944  24.415  0.00  0.00    -0.286 NA
ATOM      5  N   UNL     1     -17.182   7.690  24.987  0.00  0.00    -0.313 N 
ATOM      8  C   UNL     1     -18.094   5.438  25.534  0.00  0.00    +0.145 C 
ATOM      9  C   UNL     1     -16.654   3.583  26.152  0.00  0.00    +0.070 C 
ATOM     10  C   UNL     1     -17.132   5.894  23.317  0.00  0.00    +0.075 C 
ATOM     11  C   UNL     1     -17.720   4.525  26.712  0.00  0.00    +0.048 C 
ATOM     12  C   UNL     1     -16.068   4.365  24.984  0.00  0.00    +0.104 C 
ATOM     13  C   UNL     1     -16.512   7.194  23.807  0.00  0.00    +0.123 C 
ATOM     14  C   UNL     1     -17.854   6.902  25.891  0.00  0.00    +0.230 C 
ATOM     33  H   UNL     1     -17.047   8.667  25.227  0.00  0.00    +0.149 HD
ENDROOT
BRANCH   9   6
ATOM      6  N   UNL     1     -15.664   3.190  27.141  0.00  0.00    -0.308 NA
ATOM     34  H   UNL     1     -14.865   2.771  26.666  0.00  0.00    +0.123 HD
BRANCH   6  17
ATOM     17  C   UNL     1     -16.216   2.219  28.078  0.00  0.00    +0.116 C 
BRANCH  17  19
ATOM     19  C   UNL     1     -15.406   2.138  29.344  0.00  0.00    -0.034 A 
ATOM     20  C   UNL     1     -15.470   0.994  30.140  0.00  0.00    +0.005 A 
ATOM     21  C   UNL     1     -14.593   3.206  29.722  0.00  0.00    +0.005 A 
ATOM     23  C   UNL     1     -14.720   0.918  31.314  0.00  0.00    +0.000 A 
ATOM     24  C   UNL     1     -13.843   3.130  30.896  0.00  0.00    +0.000 A 
ATOM     25  C   UNL     1     -13.907   1.986  31.692  0.00  0.00    +0.000 A 
ENDBRANCH  17  19
ENDBRANCH   6  17
ENDBRANCH   9   6
BRANCH  10  15
ATOM     15  C   UNL     1     -16.342   5.320  22.140  0.00  0.00    +0.029 C 
BRANCH  15  16
ATOM     16  C   UNL     1     -15.488   6.390  21.474  0.00  0.00    +0.097 C 
BRANCH  16  18
ATOM      2  O   UNL     1     -13.561   5.069  22.104  0.00  0.00    -0.276 OA
ATOM      7  N   UNL     1     -13.243   7.026  20.899  0.00  0.00    -0.311 N 
ATOM     18  C   UNL     1     -14.008   6.065  21.543  0.00  0.00    +0.213 C 
ATOM     35  H   UNL     1     -13.691   7.836  20.481  0.00  0.00    +0.149 HD
BRANCH   7  22
ATOM     22  C   UNL     1     -11.804   6.944  20.825  0.00  0.00    +0.139 C 
BRANCH  22  26
ATOM     26  C   UNL     1     -11.250   7.793  19.711  0.00  0.00    -0.030 A 
ATOM     27  C   UNL     1     -10.775   9.077  19.983  0.00  0.00    +0.009 A 
ATOM     28  C   UNL     1     -11.210   7.296  18.409  0.00  0.00    +0.009 A 
ATOM     29  C   UNL     1     -10.259   9.861  18.952  0.00  0.00    +0.046 A 
ATOM     30  C   UNL     1     -10.694   8.081  17.377  0.00  0.00    +0.046 A 
ATOM     31  C   UNL     1     -10.219   9.364  17.650  0.00  0.00    +0.120 A 
BRANCH  31   3
ATOM      3  O   UNL     1      -9.714  10.130  16.643  0.00  0.00    -0.495 OA
ATOM     32  C   UNL     1     -10.415  11.332  16.329  0.00  0.00    +0.277 C 
ENDBRANCH  31   3
ENDBRANCH  22  26
ENDBRANCH   7  22
ENDBRANCH  16  18
ENDBRANCH  15  16
ENDBRANCH  10  15
TORSDOF 9
ENDMDL
MODEL 9
REMARK VINA RESULT:      -6.7     26.924     30.165
REMARK  Name = 45360660
REMARK  10 active torsions:
REMARK  status: ('A' for Active; 'I' for Inactive)
REMARK    1  A    between atoms: O_3  and  C_31
REMARK    2  A    between atoms: O_3  and  C_32
REMARK    3  A    between atoms: N_6  and  C_9
REMARK    4  A    between atoms: N_6  and  C_17
REMARK    5  A    between atoms: N_7  and  C_22
REMARK    6  A    between atoms: C_10  and  C_15
REMARK    7  A    between atoms: C_15  and  C_16
REMARK    8  A    between atoms: C_16  and  C_18
REMARK    9  A    between atoms: C_17  and  C_19
REMARK   10  A    between atoms: C_22  and  C_26
REMARK                            x       y       z     vdW  Elec       q    Type
REMARK                         _______ _______ _______ _____ _____    ______ ____
ROOT
ATOM      1  O   UNL     1      -7.592 -11.907  11.472  0.00  0.00    -0.274 OA
ATOM      4  N   UNL     1      -4.533  -9.928  11.697  0.00  0.00    -0.286 NA
ATOM      5  N   UNL     1      -5.420 -12.581  11.470  0.00  0.00    -0.313 N 
ATOM      8  C   UNL     1      -5.967 -10.186  11.876  0.00  0.00    +0.145 C 
ATOM      9  C   UNL     1      -5.511  -8.464  10.226  0.00  0.00    +0.070 C 
ATOM     10  C   UNL     1      -3.667 -11.009  12.157  0.00  0.00    +0.075 C 
ATOM     11  C   UNL     1      -6.658  -9.197  10.924  0.00  0.00    +0.048 C 
ATOM     12  C   UNL     1      -4.348  -9.441  10.333  0.00  0.00    +0.104 C 
ATOM     13  C   UNL     1      -4.001 -12.310  11.445  0.00  0.00    +0.123 C 
ATOM     14  C   UNL     1      -6.395 -11.618  11.567  0.00  0.00    +0.230 C 
ATOM     33  H   UNL     1      -5.718 -13.533  11.285  0.00  0.00    +0.149 HD
ENDROOT
BRANCH   9   6
ATOM      6  N   UNL     1      -5.826  -8.086   8.858  0.00  0.00    -0.308 NA
ATOM     34  H   UNL     1      -5.488  -7.138   8.688  0.00  0.00    +0.123 HD
BRANCH   6  17
ATOM     17  C   UNL     1      -7.264  -8.122   8.622  0.00  0.00    +0.116 C 
BRANCH  17  19
ATOM     19  C   UNL     1      -7.590  -8.198   7.155  0.00  0.00    -0.034 A 
ATOM     20  C   UNL     1      -6.935  -9.124   6.343  0.00  0.00    +0.005 A 
ATOM     21  C   UNL     1      -8.545  -7.342   6.607  0.00  0.00    +0.005 A 
ATOM     23  C   UNL     1      -7.236  -9.195   4.982  0.00  0.00    +0.000 A 
ATOM     24  C   UNL     1      -8.847  -7.413   5.246  0.00  0.00    +0.000 A 
ATOM     25  C   UNL     1      -8.192  -8.339   4.434  0.00  0.00    +0.000 A 
ENDBRANCH  17  19
ENDBRANCH   6  17
ENDBRANCH   9   6
BRANCH  10  15
ATOM     15  C   UNL     1      -2.180 -10.675  12.023  0.00  0.00    +0.029 C 
BRANCH  15  16
ATOM     16  C   UNL     1      -1.633 -10.072  13.309  0.00  0.00    +0.097 C 
BRANCH  16  18
ATOM      2  O   UNL     1      -1.579 -12.114  14.607  0.00  0.00    -0.276 OA
ATOM      7  N   UNL     1      -2.630 -10.242  15.490  0.00  0.00    -0.311 N 
ATOM     18  C   UNL     1      -1.928 -10.940  14.518  0.00  0.00    +0.213 C 
ATOM     35  H   UNL     1      -2.903  -9.278  15.325  0.00  0.00    +0.149 HD
BRANCH   7  22
ATOM     22  C   UNL     1      -3.031 -10.848  16.736  0.00  0.00    +0.139 C 
BRANCH  22  26
ATOM     26  C   UNL     1      -4.472 -10.556  17.064  0.00  0.00    -0.030 A 
ATOM     27  C   UNL     1      -5.272  -9.877  16.144  0.00  0.00    +0.009 A 
ATOM     28  C   UNL     1      -5.007 -10.967  18.284  0.00  0.00    +0.009 A 
ATOM     29  C   UNL     1      -6.607  -9.609  16.447  0.00  0.00    +0.046 A 
ATOM     30  C   UNL     1      -6.343 -10.699  18.586  0.00  0.00    +0.046 A 
ATOM     31  C   UNL     1      -7.142 -10.020  17.667  0.00  0.00    +0.120 A 
BRANCH  31   3
ATOM      3  O   UNL     1      -8.446  -9.760  17.961  0.00  0.00    -0.495 OA
ATOM     32  C   UNL     1      -9.122 -10.698  18.796  0.00  0.00    +0.277 C 
ENDBRANCH  31   3
ENDBRANCH  22  26
ENDBRANCH   7  22
ENDBRANCH  16  18
ENDBRANCH  15  16
ENDBRANCH  10  15
TORSDOF 9
ENDMDL
MODEL 10
REMARK VINA RESULT:      -6.7     27.312     29.853
REMARK  Name = 45360660
REMARK  10 active torsions:
REMARK  status: ('A' for Active; 'I' for Inactive)
REMARK    1  A    between atoms: O_3  and  C_31
REMARK    2  A    between atoms: O_3  and  C_32
REMARK    3  A    between atoms: N_6  and  C_9
REMARK    4  A    between atoms: N_6  and  C_17
REMARK    5  A    between atoms: N_7  and  C_22
REMARK    6  A    between atoms: C_10  and  C_15
REMARK    7  A    between atoms: C_15  and  C_16
REMARK    8  A    between atoms: C_16  and  C_18
REMARK    9  A    between atoms: C_17  and  C_19
REMARK   10  A    between atoms: C_22  and  C_26
REMARK                            x       y       z     vdW  Elec       q    Type
REMARK                         _______ _______ _______ _____ _____    ______ ____
ROOT
ATOM      1  O   UNL     1      -8.958 -12.999  20.145  0.00  0.00    -0.274 OA
ATOM      4  N   UNL     1      -7.033 -10.562  18.227  0.00  0.00    -0.286 NA
ATOM      5  N   UNL     1      -7.135 -13.303  18.818  0.00  0.00    -0.313 N 
ATOM      8  C   UNL     1      -7.943 -10.997  19.294  0.00  0.00    +0.145 C 
ATOM      9  C   UNL     1      -9.040  -9.644  17.601  0.00  0.00    +0.070 C 
ATOM     10  C   UNL     1      -5.815 -11.359  18.115  0.00  0.00    +0.075 C 
ATOM     11  C   UNL     1      -9.297 -10.371  18.922  0.00  0.00    +0.048 C 
ATOM     12  C   UNL     1      -7.837 -10.374  17.022  0.00  0.00    +0.104 C 
ATOM     13  C   UNL     1      -6.148 -12.824  17.879  0.00  0.00    +0.123 C 
ATOM     14  C   UNL     1      -8.071 -12.511  19.437  0.00  0.00    +0.230 C 
ATOM     33  H   UNL     1      -7.219 -14.308  18.938  0.00  0.00    +0.149 HD
ENDROOT
BRANCH   9   6
ATOM      6  N   UNL     1     -10.196  -9.640  16.719  0.00  0.00    -0.308 NA
ATOM     34  H   UNL     1      -9.952  -9.162  15.852  0.00  0.00    +0.123 HD
BRANCH   6  17
ATOM     17  C   UNL     1     -11.323  -8.951  17.335  0.00  0.00    +0.116 C 
BRANCH  17  19
ATOM     19  C   UNL     1     -11.846  -7.841  16.462  0.00  0.00    -0.034 A 
ATOM     20  C   UNL     1     -10.995  -6.812  16.059  0.00  0.00    +0.005 A 
ATOM     21  C   UNL     1     -13.181  -7.842  16.058  0.00  0.00    +0.005 A 
ATOM     23  C   UNL     1     -11.479  -5.783  15.249  0.00  0.00    +0.000 A 
ATOM     24  C   UNL     1     -13.665  -6.813  15.248  0.00  0.00    +0.000 A 
ATOM     25  C   UNL     1     -12.814  -5.784  14.845  0.00  0.00    +0.000 A 
ENDBRANCH  17  19
ENDBRANCH   6  17
ENDBRANCH   9   6
BRANCH  10  15
ATOM     15  C   UNL     1      -4.859 -10.833  17.044  0.00  0.00    +0.029 C 
BRANCH  15  16
ATOM     16  C   UNL     1      -3.407 -11.058  17.443  0.00  0.00    +0.097 C 
BRANCH  16  18
ATOM      2  O   UNL     1      -1.480 -10.278  16.204  0.00  0.00    -0.276 OA
ATOM      7  N   UNL     1      -2.877 -11.862  15.241  0.00  0.00    -0.311 N 
ATOM     18  C   UNL     1      -2.470 -11.002  16.251  0.00  0.00    +0.213 C 
ATOM     35  H   UNL     1      -3.726 -12.408  15.349  0.00  0.00    +0.149 HD
BRANCH   7  22
ATOM     22  C   UNL     1      -2.151 -11.991  14.000  0.00  0.00    +0.139 C 
BRANCH  22  26
ATOM     26  C   UNL     1      -2.728 -11.115  12.919  0.00  0.00    -0.030 A 
ATOM     27  C   UNL     1      -4.101 -10.864  12.883  0.00  0.00    +0.009 A 
ATOM     28  C   UNL     1      -1.891 -10.552  11.956  0.00  0.00    +0.009 A 
ATOM     29  C   UNL     1      -4.634 -10.051  11.884  0.00  0.00    +0.046 A 
ATOM     30  C   UNL     1      -2.425  -9.738  10.957  0.00  0.00    +0.046 A 
ATOM     31  C   UNL     1      -3.796  -9.488  10.921  0.00  0.00    +0.120 A 
BRANCH  31   3
ATOM      3  O   UNL     1      -4.318  -8.693   9.946  0.00  0.00    -0.495 OA
ATOM     32  C   UNL     1      -4.832  -9.342   8.786  0.00  0.00    +0.277 C 
ENDBRANCH  31   3
ENDBRANCH  22  26
ENDBRANCH   7  22
ENDBRANCH  16  18
ENDBRANCH  15  16
ENDBRANCH  10  15
TORSDOF 9
ENDMDL
