MODEL 1
REMARK VINA RESULT:      -6.9      0.000      0.000
REMARK  Name = 7051292
REMARK  8 active torsions:
REMARK  status: ('A' for Active; 'I' for Inactive)
REMARK    1  A    between atoms: S_1  and  N_12
REMARK    2  A    between atoms: S_1  and  C_27
REMARK    3  A    between atoms: O_7  and  C_26
REMARK    4  A    between atoms: O_7  and  C_30
REMARK    5  A    between atoms: N_12  and  C_23
REMARK    6  A    between atoms: C_22  and  C_25
REMARK    7  A    between atoms: C_25  and  C_26
REMARK    8  A    between atoms: C_31  and  C_34
REMARK                            x       y       z     vdW  Elec       q    Type
REMARK                         _______ _______ _______ _____ _____    ______ ____
ROOT
ATOM      5  O   UNL     1      -4.636 -14.042  16.319  0.00  0.00    -0.266 OA
ATOM      6  O   UNL     1      -9.563 -11.958  16.007  0.00  0.00    -0.276 OA
ATOM     10  N   UNL     1      -8.250 -10.746  17.493  0.00  0.00    -0.300 N 
ATOM     11  N   UNL     1      -5.348 -12.082  17.389  0.00  0.00    -0.310 N 
ATOM     13  C   UNL     1      -7.088 -12.069  19.266  0.00  0.00    +0.027 C 
ATOM     14  C   UNL     1      -6.114  -9.947  18.488  0.00  0.00    +0.054 C 
ATOM     15  C   UNL     1      -6.375 -10.802  19.727  0.00  0.00    +0.018 C 
ATOM     16  C   UNL     1      -8.417 -11.718  18.576  0.00  0.00    +0.113 C 
ATOM     17  C   UNL     1      -6.151 -12.857  18.344  0.00  0.00    +0.130 C 
ATOM     18  C   UNL     1      -7.455  -9.557  17.838  0.00  0.00    +0.117 C 
ATOM     19  C   UNL     1      -5.250 -10.688  17.485  0.00  0.00    +0.027 A 
ATOM     20  C   UNL     1      -4.419 -10.006  16.675  0.00  0.00    +0.024 A 
ATOM     21  C   UNL     1      -4.604 -12.818  16.442  0.00  0.00    +0.274 A 
ATOM     22  C   UNL     1      -8.900 -10.952  16.277  0.00  0.00    +0.218 C 
ATOM     23  C   UNL     1      -3.725 -12.008  15.562  0.00  0.00    +0.112 A 
ATOM     24  C   UNL     1      -3.632 -10.683  15.681  0.00  0.00    +0.031 A 
ENDROOT
BRANCH  23  12
ATOM     12  N   UNL     1      -2.944 -12.632  14.574  0.00  0.00    -0.211 N 
ATOM     35  H   UNL     1      -1.990 -12.248  14.517  0.00  0.00    +0.174 HD
BRANCH  12   1
ATOM      1  S   UNL     1      -3.680 -12.915  13.076  0.00  0.00    +0.073 S 
ATOM      8  O   UNL     1      -3.077 -14.076  12.447  0.00  0.00    -0.150 OA
ATOM      9  O   UNL     1      -5.121 -12.825  13.215  0.00  0.00    -0.150 OA
BRANCH   1  27
ATOM     27  C   UNL     1      -3.146 -11.491  12.173  0.00  0.00    +0.109 A 
ATOM     28  C   UNL     1      -4.039 -10.820  11.338  0.00  0.00    +0.041 A 
ATOM     29  C   UNL     1      -1.833 -11.039  12.297  0.00  0.00    +0.029 A 
ATOM     31  C   UNL     1      -3.618  -9.697  10.625  0.00  0.00    +0.057 A 
ATOM     32  C   UNL     1      -1.412  -9.915  11.585  0.00  0.00    +0.002 A 
ATOM     33  C   UNL     1      -2.305  -9.245  10.749  0.00  0.00    +0.012 A 
BRANCH  31  34
ATOM      2  F   UNL     1      -4.100  -8.792   8.463  0.00  0.00    -0.166 F 
ATOM      3  F   UNL     1      -5.765  -9.625   9.574  0.00  0.00    -0.166 F 
ATOM      4  F   UNL     1      -4.889  -7.734  10.192  0.00  0.00    -0.166 F 
ATOM     34  C   UNL     1      -4.572  -8.980   9.732  0.00  0.00    +0.417 C 
ENDBRANCH  31  34
ENDBRANCH   1  27
ENDBRANCH  12   1
ENDBRANCH  23  12
BRANCH  22  25
ATOM     25  C   UNL     1      -8.757  -9.864  15.243  0.00  0.00    +0.124 C 
BRANCH  25  26
ATOM     26  C   UNL     1     -10.007  -9.010  15.234  0.00  0.00    +0.168 C 
BRANCH  26   7
ATOM      7  O   UNL     1      -9.707  -7.723  15.757  0.00  0.00    -0.382 OA
ATOM     30  C   UNL     1     -10.479  -7.438  16.915  0.00  0.00    +0.194 C 
ENDBRANCH  26   7
ENDBRANCH  25  26
ENDBRANCH  22  25
TORSDOF 7
ENDMDL
MODEL 2
REMARK VINA RESULT:      -6.8     24.224     27.558
REMARK  Name = 7051292
REMARK  8 active torsions:
REMARK  status: ('A' for Active; 'I' for Inactive)
REMARK    1  A    between atoms: S_1  and  N_12
REMARK    2  A    between atoms: S_1  and  C_27
REMARK    3  A    between atoms: O_7  and  C_26
REMARK    4  A    between atoms: O_7  and  C_30
REMARK    5  A    between atoms: N_12  and  C_23
REMARK    6  A    between atoms: C_22  and  C_25
REMARK    7  A    between atoms: C_25  and  C_26
REMARK    8  A    between atoms: C_31  and  C_34
REMARK                            x       y       z     vdW  Elec       q    Type
REMARK                         _______ _______ _______ _____ _____    ______ ____
ROOT
ATOM      5  O   UNL     1      14.404   7.425   3.153  0.00  0.00    -0.266 OA
ATOM      6  O   UNL     1      12.353   7.072  -1.785  0.00  0.00    -0.276 OA
ATOM     10  N   UNL     1      11.985   5.108  -0.600  0.00  0.00    -0.300 N 
ATOM     11  N   UNL     1      13.154   5.621   2.330  0.00  0.00    -0.310 N 
ATOM     13  C   UNL     1      13.992   4.075   0.470  0.00  0.00    +0.027 C 
ATOM     14  C   UNL     1      11.764   3.713   1.448  0.00  0.00    +0.054 C 
ATOM     15  C   UNL     1      13.092   3.032   1.124  0.00  0.00    +0.018 C 
ATOM     16  C   UNL     1      13.346   4.613  -0.818  0.00  0.00    +0.113 C 
ATOM     17  C   UNL     1      14.274   5.191   1.482  0.00  0.00    +0.130 C 
ATOM     18  C   UNL     1      11.100   4.199   0.145  0.00  0.00    +0.117 C 
ATOM     19  C   UNL     1      11.965   4.884   2.392  0.00  0.00    +0.027 A 
ATOM     20  C   UNL     1      10.996   5.226   3.260  0.00  0.00    +0.024 A 
ATOM     21  C   UNL     1      13.377   6.748   3.150  0.00  0.00    +0.274 A 
ATOM     22  C   UNL     1      11.595   6.323  -1.163  0.00  0.00    +0.218 C 
ATOM     23  C   UNL     1      12.263   7.090   4.069  0.00  0.00    +0.112 A 
ATOM     24  C   UNL     1      11.145   6.364   4.126  0.00  0.00    +0.031 A 
ENDROOT
BRANCH  23  12
ATOM     12  N   UNL     1      12.366   8.198   4.926  0.00  0.00    -0.211 N 
ATOM     35  H   UNL     1      12.881   8.984   4.503  0.00  0.00    +0.174 HD
BRANCH  12   1
ATOM      1  S   UNL     1      12.758   7.889   6.543  0.00  0.00    +0.073 S 
ATOM      8  O   UNL     1      13.547   6.674   6.631  0.00  0.00    -0.150 OA
ATOM      9  O   UNL     1      13.221   9.110   7.176  0.00  0.00    -0.150 OA
BRANCH   1  27
ATOM     27  C   UNL     1      11.158   7.526   7.205  0.00  0.00    +0.109 A 
ATOM     28  C   UNL     1      10.973   6.396   8.002  0.00  0.00    +0.041 A 
ATOM     29  C   UNL     1      10.082   8.368   6.929  0.00  0.00    +0.029 A 
ATOM     31  C   UNL     1       9.711   6.109   8.523  0.00  0.00    +0.057 A 
ATOM     32  C   UNL     1       8.820   8.082   7.450  0.00  0.00    +0.002 A 
ATOM     33  C   UNL     1       8.635   6.952   8.247  0.00  0.00    +0.012 A 
BRANCH  31  34
ATOM      2  F   UNL     1      10.430   4.786  10.382  0.00  0.00    -0.166 F 
ATOM      3  F   UNL     1       8.297   4.863   9.996  0.00  0.00    -0.166 F 
ATOM      4  F   UNL     1       9.600   3.738   8.667  0.00  0.00    -0.166 F 
ATOM     34  C   UNL     1       9.513   4.902   9.375  0.00  0.00    +0.417 C 
ENDBRANCH  31  34
ENDBRANCH   1  27
ENDBRANCH  12   1
ENDBRANCH  23  12
BRANCH  22  25
ATOM     25  C   UNL     1      10.154   6.723  -0.976  0.00  0.00    +0.124 C 
BRANCH  25  26
ATOM     26  C   UNL     1      10.088   8.042  -0.235  0.00  0.00    +0.168 C 
BRANCH  26   7
ATOM      7  O   UNL     1      10.950   7.996   0.894  0.00  0.00    -0.382 OA
ATOM     30  C   UNL     1      11.536   9.264   1.154  0.00  0.00    +0.194 C 
ENDBRANCH  26   7
ENDBRANCH  25  26
ENDBRANCH  22  25
TORSDOF 7
ENDMDL
MODEL 3
REMARK VINA RESULT:      -6.8      3.315      7.457
REMARK  Name = 7051292
REMARK  8 active torsions:
REMARK  status: ('A' for Active; 'I' for Inactive)
REMARK    1  A    between atoms: S_1  and  N_12
REMARK    2  A    between atoms: S_1  and  C_27
REMARK    3  A    between atoms: O_7  and  C_26
REMARK    4  A    between atoms: O_7  and  C_30
REMARK    5  A    between atoms: N_12  and  C_23
REMARK    6  A    between atoms: C_22  and  C_25
REMARK    7  A    between atoms: C_25  and  C_26
REMARK    8  A    between atoms: C_31  and  C_34
REMARK                            x       y       z     vdW  Elec       q    Type
REMARK                         _______ _______ _______ _____ _____    ______ ____
ROOT
ATOM      5  O   UNL     1      -6.584  -9.694  13.725  0.00  0.00    -0.266 OA
ATOM      6  O   UNL     1      -5.177 -14.779  12.787  0.00  0.00    -0.276 OA
ATOM     10  N   UNL     1      -3.298 -13.455  13.121  0.00  0.00    -0.300 N 
ATOM     11  N   UNL     1      -4.396 -10.532  13.804  0.00  0.00    -0.310 N 
ATOM     13  C   UNL     1      -3.151 -11.381  11.736  0.00  0.00    +0.027 C 
ATOM     14  C   UNL     1      -2.056 -11.458  13.937  0.00  0.00    +0.054 C 
ATOM     15  C   UNL     1      -1.895 -10.974  12.497  0.00  0.00    +0.018 C 
ATOM     16  C   UNL     1      -3.327 -12.909  11.763  0.00  0.00    +0.113 C 
ATOM     17  C   UNL     1      -4.356 -10.652  12.341  0.00  0.00    +0.130 C 
ATOM     18  C   UNL     1      -2.176 -12.994  13.956  0.00  0.00    +0.117 C 
ATOM     19  C   UNL     1      -3.278 -10.837  14.589  0.00  0.00    +0.027 A 
ATOM     20  C   UNL     1      -3.294 -10.611  15.916  0.00  0.00    +0.024 A 
ATOM     21  C   UNL     1      -5.576  -9.997  14.364  0.00  0.00    +0.274 A 
ATOM     22  C   UNL     1      -4.243 -14.406  13.503  0.00  0.00    +0.218 C 
ATOM     23  C   UNL     1      -5.542  -9.792  15.833  0.00  0.00    +0.112 A 
ATOM     24  C   UNL     1      -4.460 -10.073  16.561  0.00  0.00    +0.031 A 
ENDROOT
BRANCH  23  12
ATOM     12  N   UNL     1      -6.664  -9.275  16.503  0.00  0.00    -0.211 N 
ATOM     35  H   UNL     1      -6.475  -8.373  16.963  0.00  0.00    +0.174 HD
BRANCH  12   1
ATOM      1  S   UNL     1      -7.577 -10.359  17.428  0.00  0.00    +0.073 S 
ATOM      8  O   UNL     1      -7.722 -11.612  16.710  0.00  0.00    -0.150 OA
ATOM      9  O   UNL     1      -7.101 -10.354  18.798  0.00  0.00    -0.150 OA
BRANCH   1  27
ATOM     27  C   UNL     1      -9.153  -9.558  17.413  0.00  0.00    +0.109 A 
ATOM     28  C   UNL     1      -9.360  -8.442  16.601  0.00  0.00    +0.041 A 
ATOM     29  C   UNL     1     -10.189 -10.040  18.212  0.00  0.00    +0.029 A 
ATOM     31  C   UNL     1     -10.603  -7.809  16.590  0.00  0.00    +0.057 A 
ATOM     32  C   UNL     1     -11.432  -9.408  18.200  0.00  0.00    +0.002 A 
ATOM     33  C   UNL     1     -11.639  -8.292  17.389  0.00  0.00    +0.012 A 
BRANCH  31  34
ATOM      2  F   UNL     1     -11.426  -6.910  14.531  0.00  0.00    -0.166 F 
ATOM      3  F   UNL     1     -11.616  -5.663  16.295  0.00  0.00    -0.166 F 
ATOM      4  F   UNL     1      -9.661  -5.979  15.397  0.00  0.00    -0.166 F 
ATOM     34  C   UNL     1     -10.825  -6.616  15.723  0.00  0.00    +0.417 C 
ENDBRANCH  31  34
ENDBRANCH   1  27
ENDBRANCH  12   1
ENDBRANCH  23  12
BRANCH  22  25
ATOM     25  C   UNL     1      -4.094 -14.991  14.884  0.00  0.00    +0.124 C 
BRANCH  25  26
ATOM     26  C   UNL     1      -5.257 -14.551  15.747  0.00  0.00    +0.168 C 
BRANCH  26   7
ATOM      7  O   UNL     1      -4.900 -14.662  17.119  0.00  0.00    -0.382 OA
ATOM     30  C   UNL     1      -4.924 -13.399  17.768  0.00  0.00    +0.194 C 
ENDBRANCH  26   7
ENDBRANCH  25  26
ENDBRANCH  22  25
TORSDOF 7
ENDMDL
MODEL 4
REMARK VINA RESULT:      -6.8      1.959      2.775
REMARK  Name = 7051292
REMARK  8 active torsions:
REMARK  status: ('A' for Active; 'I' for Inactive)
REMARK    1  A    between atoms: S_1  and  N_12
REMARK    2  A    between atoms: S_1  and  C_27
REMARK    3  A    between atoms: O_7  and  C_26
REMARK    4  A    between atoms: O_7  and  C_30
REMARK    5  A    between atoms: N_12  and  C_23
REMARK    6  A    between atoms: C_22  and  C_25
REMARK    7  A    between atoms: C_25  and  C_26
REMARK    8  A    between atoms: C_31  and  C_34
REMARK                            x       y       z     vdW  Elec       q    Type
REMARK                         _______ _______ _______ _____ _____    ______ ____
ROOT
ATOM      5  O   UNL     1      -5.945 -13.805  15.758  0.00  0.00    -0.266 OA
ATOM      6  O   UNL     1     -10.127 -10.460  15.937  0.00  0.00    -0.276 OA
ATOM     10  N   UNL     1      -9.665 -11.310  18.049  0.00  0.00    -0.300 N 
ATOM     11  N   UNL     1      -7.066 -13.139  17.706  0.00  0.00    -0.310 N 
ATOM     13  C   UNL     1      -9.485 -13.796  18.219  0.00  0.00    +0.027 C 
ATOM     14  C   UNL     1      -8.246 -12.371  19.796  0.00  0.00    +0.054 C 
ATOM     15  C   UNL     1      -9.067 -13.655  19.678  0.00  0.00    +0.018 C 
ATOM     16  C   UNL     1     -10.329 -12.587  17.781  0.00  0.00    +0.113 C 
ATOM     17  C   UNL     1      -8.229 -13.965  17.357  0.00  0.00    +0.130 C 
ATOM     18  C   UNL     1      -9.119 -11.162  19.407  0.00  0.00    +0.117 C 
ATOM     19  C   UNL     1      -7.015 -12.426  18.911  0.00  0.00    +0.027 A 
ATOM     20  C   UNL     1      -5.896 -11.769  19.268  0.00  0.00    +0.024 A 
ATOM     21  C   UNL     1      -5.967 -13.185  16.821  0.00  0.00    +0.274 A 
ATOM     22  C   UNL     1      -9.664 -10.315  17.071  0.00  0.00    +0.218 C 
ATOM     23  C   UNL     1      -4.771 -12.423  17.258  0.00  0.00    +0.112 A 
ATOM     24  C   UNL     1      -4.737 -11.764  18.417  0.00  0.00    +0.031 A 
ENDROOT
BRANCH  23  12
ATOM     12  N   UNL     1      -3.621 -12.387  16.452  0.00  0.00    -0.211 N 
ATOM     35  H   UNL     1      -2.818 -12.869  16.880  0.00  0.00    +0.174 HD
BRANCH  12   1
ATOM      1  S   UNL     1      -3.243 -10.911  15.713  0.00  0.00    +0.073 S 
ATOM      8  O   UNL     1      -4.363  -9.998  15.845  0.00  0.00    -0.150 OA
ATOM      9  O   UNL     1      -1.910 -10.496  16.105  0.00  0.00    -0.150 OA
BRANCH   1  27
ATOM     27  C   UNL     1      -3.165 -11.405  14.016  0.00  0.00    +0.109 A 
ATOM     28  C   UNL     1      -3.215 -10.443  13.007  0.00  0.00    +0.041 A 
ATOM     29  C   UNL     1      -3.054 -12.756  13.687  0.00  0.00    +0.029 A 
ATOM     31  C   UNL     1      -3.154 -10.833  11.669  0.00  0.00    +0.057 A 
ATOM     32  C   UNL     1      -2.992 -13.145  12.349  0.00  0.00    +0.002 A 
ATOM     33  C   UNL     1      -3.043 -12.183  11.340  0.00  0.00    +0.012 A 
BRANCH  31  34
ATOM      2  F   UNL     1      -4.128  -8.821  10.816  0.00  0.00    -0.166 F 
ATOM      3  F   UNL     1      -2.025  -9.148  10.400  0.00  0.00    -0.166 F 
ATOM      4  F   UNL     1      -3.531 -10.335   9.374  0.00  0.00    -0.166 F 
ATOM     34  C   UNL     1      -3.207  -9.805  10.590  0.00  0.00    +0.417 C 
ENDBRANCH  31  34
ENDBRANCH   1  27
ENDBRANCH  12   1
ENDBRANCH  23  12
BRANCH  22  25
ATOM     25  C   UNL     1      -9.043  -8.995  17.452  0.00  0.00    +0.124 C 
BRANCH  25  26
ATOM     26  C   UNL     1     -10.087  -7.903  17.364  0.00  0.00    +0.168 C 
BRANCH  26   7
ATOM      7  O   UNL     1      -9.906  -7.168  16.161  0.00  0.00    -0.382 OA
ATOM     30  C   UNL     1     -10.930  -6.199  15.982  0.00  0.00    +0.194 C 
ENDBRANCH  26   7
ENDBRANCH  25  26
ENDBRANCH  22  25
TORSDOF 7
ENDMDL
MODEL 5
REMARK VINA RESULT:      -6.6     24.965     27.026
REMARK  Name = 7051292
REMARK  8 active torsions:
REMARK  status: ('A' for Active; 'I' for Inactive)
REMARK    1  A    between atoms: S_1  and  N_12
REMARK    2  A    between atoms: S_1  and  C_27
REMARK    3  A    between atoms: O_7  and  C_26
REMARK    4  A    between atoms: O_7  and  C_30
REMARK    5  A    between atoms: N_12  and  C_23
REMARK    6  A    between atoms: C_22  and  C_25
REMARK    7  A    between atoms: C_25  and  C_26
REMARK    8  A    between atoms: C_31  and  C_34
REMARK                            x       y       z     vdW  Elec       q    Type
REMARK                         _______ _______ _______ _____ _____    ______ ____
ROOT
ATOM      5  O   UNL     1      10.047   7.085   1.946  0.00  0.00    -0.266 OA
ATOM      6  O   UNL     1      12.888   9.299   5.913  0.00  0.00    -0.276 OA
ATOM     10  N   UNL     1      11.133   8.038   6.764  0.00  0.00    -0.300 N 
ATOM     11  N   UNL     1       9.697   6.714   4.234  0.00  0.00    -0.310 N 
ATOM     13  C   UNL     1       8.868   8.533   5.832  0.00  0.00    +0.027 C 
ATOM     14  C   UNL     1       9.369   6.284   6.695  0.00  0.00    +0.054 C 
ATOM     15  C   UNL     1       8.296   7.370   6.635  0.00  0.00    +0.018 C 
ATOM     16  C   UNL     1      10.137   9.081   6.507  0.00  0.00    +0.113 C 
ATOM     17  C   UNL     1       9.136   8.062   4.398  0.00  0.00    +0.130 C 
ATOM     18  C   UNL     1      10.614   6.828   7.421  0.00  0.00    +0.117 C 
ATOM     19  C   UNL     1       9.748   5.812   5.304  0.00  0.00    +0.027 A 
ATOM     20  C   UNL     1      10.157   4.545   5.108  0.00  0.00    +0.024 A 
ATOM     21  C   UNL     1      10.083   6.344   2.928  0.00  0.00    +0.274 A 
ATOM     22  C   UNL     1      12.473   8.276   6.465  0.00  0.00    +0.218 C 
ATOM     23  C   UNL     1      10.547   4.942   2.780  0.00  0.00    +0.112 A 
ATOM     24  C   UNL     1      10.571   4.093   3.808  0.00  0.00    +0.031 A 
ENDROOT
BRANCH  23  12
ATOM     12  N   UNL     1      10.967   4.463   1.527  0.00  0.00    -0.211 N 
ATOM     35  H   UNL     1      10.342   3.740   1.145  0.00  0.00    +0.174 HD
BRANCH  12   1
ATOM      1  S   UNL     1      12.618   4.137   1.341  0.00  0.00    +0.073 S 
ATOM      8  O   UNL     1      13.391   5.314   1.689  0.00  0.00    -0.150 OA
ATOM      9  O   UNL     1      12.932   2.852   1.938  0.00  0.00    -0.150 OA
BRANCH   1  27
ATOM     27  C   UNL     1      12.717   3.942  -0.414  0.00  0.00    +0.109 A 
ATOM     28  C   UNL     1      11.628   3.435  -1.123  0.00  0.00    +0.041 A 
ATOM     29  C   UNL     1      13.885   4.295  -1.090  0.00  0.00    +0.029 A 
ATOM     31  C   UNL     1      11.707   3.280  -2.507  0.00  0.00    +0.057 A 
ATOM     32  C   UNL     1      13.963   4.141  -2.474  0.00  0.00    +0.002 A 
ATOM     33  C   UNL     1      12.874   3.633  -3.182  0.00  0.00    +0.012 A 
BRANCH  31  34
ATOM      2  F   UNL     1      10.141   1.502  -2.840  0.00  0.00    -0.166 F 
ATOM      3  F   UNL     1       9.426   3.520  -3.186  0.00  0.00    -0.166 F 
ATOM      4  F   UNL     1      10.800   2.600  -4.598  0.00  0.00    -0.166 F 
ATOM     34  C   UNL     1      10.542   2.737  -3.264  0.00  0.00    +0.417 C 
ENDBRANCH  31  34
ENDBRANCH   1  27
ENDBRANCH  12   1
ENDBRANCH  23  12
BRANCH  22  25
ATOM     25  C   UNL     1      13.453   7.194   6.844  0.00  0.00    +0.124 C 
BRANCH  25  26
ATOM     26  C   UNL     1      14.840   7.586   6.383  0.00  0.00    +0.168 C 
BRANCH  26   7
ATOM      7  O   UNL     1      15.100   7.008   5.111  0.00  0.00    -0.382 OA
ATOM     30  C   UNL     1      15.901   7.861   4.304  0.00  0.00    +0.194 C 
ENDBRANCH  26   7
ENDBRANCH  25  26
ENDBRANCH  22  25
TORSDOF 7
ENDMDL
MODEL 6
REMARK VINA RESULT:      -6.5     23.606     26.909
REMARK  Name = 7051292
REMARK  8 active torsions:
REMARK  status: ('A' for Active; 'I' for Inactive)
REMARK    1  A    between atoms: S_1  and  N_12
REMARK    2  A    between atoms: S_1  and  C_27
REMARK    3  A    between atoms: O_7  and  C_26
REMARK    4  A    between atoms: O_7  and  C_30
REMARK    5  A    between atoms: N_12  and  C_23
REMARK    6  A    between atoms: C_22  and  C_25
REMARK    7  A    between atoms: C_25  and  C_26
REMARK    8  A    between atoms: C_31  and  C_34
REMARK                            x       y       z     vdW  Elec       q    Type
REMARK                         _______ _______ _______ _____ _____    ______ ____
ROOT
ATOM      5  O   UNL     1      12.436   7.566   2.912  0.00  0.00    -0.266 OA
ATOM      6  O   UNL     1      11.785   6.062   8.014  0.00  0.00    -0.276 OA
ATOM     10  N   UNL     1      10.411   7.865   7.508  0.00  0.00    -0.300 N 
ATOM     11  N   UNL     1      10.868   8.469   4.402  0.00  0.00    -0.310 N 
ATOM     13  C   UNL     1      11.527   9.840   6.461  0.00  0.00    +0.027 C 
ATOM     14  C   UNL     1       9.152   9.394   6.000  0.00  0.00    +0.054 C 
ATOM     15  C   UNL     1      10.166  10.502   6.283  0.00  0.00    +0.018 C 
ATOM     16  C   UNL     1      11.494   8.843   7.631  0.00  0.00    +0.113 C 
ATOM     17  C   UNL     1      11.928   9.167   5.143  0.00  0.00    +0.130 C 
ATOM     18  C   UNL     1       9.088   8.433   7.203  0.00  0.00    +0.117 C 
ATOM     19  C   UNL     1       9.519   8.625   4.744  0.00  0.00    +0.027 A 
ATOM     20  C   UNL     1       8.556   8.072   3.984  0.00  0.00    +0.024 A 
ATOM     21  C   UNL     1      11.270   7.725   3.273  0.00  0.00    +0.274 A 
ATOM     22  C   UNL     1      10.667   6.518   7.760  0.00  0.00    +0.218 C 
ATOM     23  C   UNL     1      10.164   7.121   2.489  0.00  0.00    +0.112 A 
ATOM     24  C   UNL     1       8.884   7.295   2.821  0.00  0.00    +0.031 A 
ENDROOT
BRANCH  23  12
ATOM     12  N   UNL     1      10.444   6.348   1.349  0.00  0.00    -0.211 N 
ATOM     35  H   UNL     1       9.881   6.623   0.531  0.00  0.00    +0.174 HD
BRANCH  12   1
ATOM      1  S   UNL     1      10.597   4.677   1.569  0.00  0.00    +0.073 S 
ATOM      8  O   UNL     1      10.564   4.365   2.986  0.00  0.00    -0.150 OA
ATOM      9  O   UNL     1       9.718   3.980   0.647  0.00  0.00    -0.150 OA
BRANCH   1  27
ATOM     27  C   UNL     1      12.256   4.422   1.012  0.00  0.00    +0.109 A 
ATOM     28  C   UNL     1      12.671   4.957  -0.208  0.00  0.00    +0.041 A 
ATOM     29  C   UNL     1      13.148   3.688   1.792  0.00  0.00    +0.029 A 
ATOM     31  C   UNL     1      13.980   4.755  -0.648  0.00  0.00    +0.057 A 
ATOM     32  C   UNL     1      14.457   3.487   1.352  0.00  0.00    +0.002 A 
ATOM     33  C   UNL     1      14.872   4.021   0.132  0.00  0.00    +0.012 A 
BRANCH  31  34
ATOM      2  F   UNL     1      13.416   5.907  -2.668  0.00  0.00    -0.166 F 
ATOM      3  F   UNL     1      15.377   6.297  -1.828  0.00  0.00    -0.166 F 
ATOM      4  F   UNL     1      14.966   4.385  -2.780  0.00  0.00    -0.166 F 
ATOM     34  C   UNL     1      14.424   5.326  -1.952  0.00  0.00    +0.417 C 
ENDBRANCH  31  34
ENDBRANCH   1  27
ENDBRANCH  12   1
ENDBRANCH  23  12
BRANCH  22  25
ATOM     25  C   UNL     1       9.485   5.584   7.704  0.00  0.00    +0.124 C 
BRANCH  25  26
ATOM     26  C   UNL     1       9.895   4.220   8.217  0.00  0.00    +0.168 C 
BRANCH  26   7
ATOM      7  O   UNL     1       9.989   4.253   9.635  0.00  0.00    -0.382 OA
ATOM     30  C   UNL     1       8.782   4.713  10.227  0.00  0.00    +0.194 C 
ENDBRANCH  26   7
ENDBRANCH  25  26
ENDBRANCH  22  25
TORSDOF 7
ENDMDL
MODEL 7
REMARK VINA RESULT:      -6.4      4.389      8.081
REMARK  Name = 7051292
REMARK  8 active torsions:
REMARK  status: ('A' for Active; 'I' for Inactive)
REMARK    1  A    between atoms: S_1  and  N_12
REMARK    2  A    between atoms: S_1  and  C_27
REMARK    3  A    between atoms: O_7  and  C_26
REMARK    4  A    between atoms: O_7  and  C_30
REMARK    5  A    between atoms: N_12  and  C_23
REMARK    6  A    between atoms: C_22  and  C_25
REMARK    7  A    between atoms: C_25  and  C_26
REMARK    8  A    between atoms: C_31  and  C_34
REMARK                            x       y       z     vdW  Elec       q    Type
REMARK                         _______ _______ _______ _____ _____    ______ ____
ROOT
ATOM      5  O   UNL     1      -6.615  -9.830  13.745  0.00  0.00    -0.266 OA
ATOM      6  O   UNL     1      -4.949 -14.843  12.846  0.00  0.00    -0.276 OA
ATOM     10  N   UNL     1      -3.139 -13.415  13.131  0.00  0.00    -0.300 N 
ATOM     11  N   UNL     1      -4.384 -10.547  13.796  0.00  0.00    -0.310 N 
ATOM     13  C   UNL     1      -3.129 -11.355  11.718  0.00  0.00    +0.027 C 
ATOM     14  C   UNL     1      -1.995 -11.343  13.901  0.00  0.00    +0.054 C 
ATOM     15  C   UNL     1      -1.884 -10.871  12.453  0.00  0.00    +0.018 C 
ATOM     16  C   UNL     1      -3.221 -12.889  11.767  0.00  0.00    +0.113 C 
ATOM     17  C   UNL     1      -4.361 -10.684  12.334  0.00  0.00    +0.130 C 
ATOM     18  C   UNL     1      -2.031 -12.883  13.941  0.00  0.00    +0.117 C 
ATOM     19  C   UNL     1      -3.237 -10.781  14.566  0.00  0.00    +0.027 A 
ATOM     20  C   UNL     1      -3.244 -10.538  15.890  0.00  0.00    +0.024 A 
ATOM     21  C   UNL     1      -5.582 -10.069  14.369  0.00  0.00    +0.274 A 
ATOM     22  C   UNL     1      -4.025 -14.411  13.540  0.00  0.00    +0.218 C 
ATOM     23  C   UNL     1      -5.534  -9.843  15.836  0.00  0.00    +0.112 A 
ATOM     24  C   UNL     1      -4.427 -10.056  16.549  0.00  0.00    +0.031 A 
ENDROOT
BRANCH  23  12
ATOM     12  N   UNL     1      -6.672  -9.379  16.518  0.00  0.00    -0.211 N 
ATOM     35  H   UNL     1      -6.496  -8.511  17.044  0.00  0.00    +0.174 HD
BRANCH  12   1
ATOM      1  S   UNL     1      -7.597 -10.529  17.346  0.00  0.00    +0.073 S 
ATOM      8  O   UNL     1      -7.769 -11.707  16.516  0.00  0.00    -0.150 OA
ATOM      9  O   UNL     1      -7.111 -10.659  18.707  0.00  0.00    -0.150 OA
BRANCH   1  27
ATOM     27  C   UNL     1      -9.159  -9.703  17.419  0.00  0.00    +0.109 A 
ATOM     28  C   UNL     1     -10.177 -10.207  18.229  0.00  0.00    +0.041 A 
ATOM     29  C   UNL     1      -9.373  -8.549  16.667  0.00  0.00    +0.029 A 
ATOM     31  C   UNL     1     -11.410  -9.556  18.286  0.00  0.00    +0.057 A 
ATOM     32  C   UNL     1     -10.606  -7.898  16.725  0.00  0.00    +0.002 A 
ATOM     33  C   UNL     1     -11.624  -8.402  17.534  0.00  0.00    +0.012 A 
BRANCH  31  34
ATOM      2  F   UNL     1     -13.648 -10.380  18.471  0.00  0.00    -0.166 F 
ATOM      3  F   UNL     1     -12.166 -11.255  19.790  0.00  0.00    -0.166 F 
ATOM      4  F   UNL     1     -12.864  -9.226  20.139  0.00  0.00    -0.166 F 
ATOM     34  C   UNL     1     -12.498 -10.095  19.151  0.00  0.00    +0.417 C 
ENDBRANCH  31  34
ENDBRANCH   1  27
ENDBRANCH  12   1
ENDBRANCH  23  12
BRANCH  22  25
ATOM     25  C   UNL     1      -3.822 -14.969  14.926  0.00  0.00    +0.124 C 
BRANCH  25  26
ATOM     26  C   UNL     1      -5.065 -14.726  15.756  0.00  0.00    +0.168 C 
BRANCH  26   7
ATOM      7  O   UNL     1      -5.021 -13.416  16.305  0.00  0.00    -0.382 OA
ATOM     30  C   UNL     1      -4.942 -13.447  17.723  0.00  0.00    +0.194 C 
ENDBRANCH  26   7
ENDBRANCH  25  26
ENDBRANCH  22  25
TORSDOF 7
ENDMDL
MODEL 8
REMARK VINA RESULT:      -6.4      3.539      7.944
REMARK  Name = 7051292
REMARK  8 active torsions:
REMARK  status: ('A' for Active; 'I' for Inactive)
REMARK    1  A    between atoms: S_1  and  N_12
REMARK    2  A    between atoms: S_1  and  C_27
REMARK    3  A    between atoms: O_7  and  C_26
REMARK    4  A    between atoms: O_7  and  C_30
REMARK    5  A    between atoms: N_12  and  C_23
REMARK    6  A    between atoms: C_22  and  C_25
REMARK    7  A    between atoms: C_25  and  C_26
REMARK    8  A    between atoms: C_31  and  C_34
REMARK                            x       y       z     vdW  Elec       q    Type
REMARK                         _______ _______ _______ _____ _____    ______ ____
ROOT
ATOM      5  O   UNL     1      -6.277  -9.974  14.658  0.00  0.00    -0.266 OA
ATOM      6  O   UNL     1      -4.955 -14.566  12.233  0.00  0.00    -0.276 OA
ATOM     10  N   UNL     1      -3.119 -13.149  12.366  0.00  0.00    -0.300 N 
ATOM     11  N   UNL     1      -4.117 -10.570  13.969  0.00  0.00    -0.310 N 
ATOM     13  C   UNL     1      -3.457 -10.827  11.510  0.00  0.00    +0.027 C 
ATOM     14  C   UNL     1      -1.792 -11.248  13.272  0.00  0.00    +0.054 C 
ATOM     15  C   UNL     1      -2.059 -10.457  11.992  0.00  0.00    +0.018 C 
ATOM     16  C   UNL     1      -3.548 -12.335  11.227  0.00  0.00    +0.113 C 
ATOM     17  C   UNL     1      -4.479 -10.374  12.559  0.00  0.00    +0.130 C 
ATOM     18  C   UNL     1      -1.832 -12.758  12.964  0.00  0.00    +0.117 C 
ATOM     19  C   UNL     1      -2.812 -10.913  14.344  0.00  0.00    +0.027 A 
ATOM     20  C   UNL     1      -2.470 -10.974  15.644  0.00  0.00    +0.024 A 
ATOM     21  C   UNL     1      -5.119 -10.295  14.924  0.00  0.00    +0.274 A 
ATOM     22  C   UNL     1      -3.877 -14.255  12.748  0.00  0.00    +0.218 C 
ATOM     23  C   UNL     1      -4.688 -10.402  16.340  0.00  0.00    +0.112 A 
ATOM     24  C   UNL     1      -3.435 -10.713  16.677  0.00  0.00    +0.031 A 
ENDROOT
BRANCH  23  12
ATOM     12  N   UNL     1      -5.603 -10.161  17.379  0.00  0.00    -0.211 N 
ATOM     35  H   UNL     1      -5.276  -9.443  18.042  0.00  0.00    +0.174 HD
BRANCH  12   1
ATOM      1  S   UNL     1      -6.321 -11.512  18.103  0.00  0.00    +0.073 S 
ATOM      8  O   UNL     1      -6.436 -12.583  17.131  0.00  0.00    -0.150 OA
ATOM      9  O   UNL     1      -5.706 -11.759  19.394  0.00  0.00    -0.150 OA
BRANCH   1  27
ATOM     27  C   UNL     1      -7.951 -10.896  18.404  0.00  0.00    +0.109 A 
ATOM     28  C   UNL     1      -8.491  -9.916  17.571  0.00  0.00    +0.041 A 
ATOM     29  C   UNL     1      -8.697 -11.389  19.474  0.00  0.00    +0.029 A 
ATOM     31  C   UNL     1      -9.776  -9.429  17.808  0.00  0.00    +0.057 A 
ATOM     32  C   UNL     1      -9.983 -10.903  19.711  0.00  0.00    +0.002 A 
ATOM     33  C   UNL     1     -10.522  -9.923  18.878  0.00  0.00    +0.012 A 
BRANCH  31  34
ATOM      2  F   UNL     1     -11.421  -7.726  17.463  0.00  0.00    -0.166 F 
ATOM      3  F   UNL     1      -9.467  -7.398  16.583  0.00  0.00    -0.166 F 
ATOM      4  F   UNL     1     -10.803  -8.888  15.732  0.00  0.00    -0.166 F 
ATOM     34  C   UNL     1     -10.353  -8.381  16.918  0.00  0.00    +0.417 C 
ENDBRANCH  31  34
ENDBRANCH   1  27
ENDBRANCH  12   1
ENDBRANCH  23  12
BRANCH  22  25
ATOM     25  C   UNL     1      -3.325 -15.099  13.869  0.00  0.00    +0.124 C 
BRANCH  25  26
ATOM     26  C   UNL     1      -2.717 -16.362  13.297  0.00  0.00    +0.168 C 
BRANCH  26   7
ATOM      7  O   UNL     1      -2.277 -17.200  14.357  0.00  0.00    -0.382 OA
ATOM     30  C   UNL     1      -2.640 -16.672  15.625  0.00  0.00    +0.194 C 
ENDBRANCH  26   7
ENDBRANCH  25  26
ENDBRANCH  22  25
TORSDOF 7
ENDMDL
MODEL 9
REMARK VINA RESULT:      -6.3     25.908     29.095
REMARK  Name = 7051292
REMARK  8 active torsions:
REMARK  status: ('A' for Active; 'I' for Inactive)
REMARK    1  A    between atoms: S_1  and  N_12
REMARK    2  A    between atoms: S_1  and  C_27
REMARK    3  A    between atoms: O_7  and  C_26
REMARK    4  A    between atoms: O_7  and  C_30
REMARK    5  A    between atoms: N_12  and  C_23
REMARK    6  A    between atoms: C_22  and  C_25
REMARK    7  A    between atoms: C_25  and  C_26
REMARK    8  A    between atoms: C_31  and  C_34
REMARK                            x       y       z     vdW  Elec       q    Type
REMARK                         _______ _______ _______ _____ _____    ______ ____
ROOT
ATOM      5  O   UNL     1      14.090   6.491   7.344  0.00  0.00    -0.266 OA
ATOM      6  O   UNL     1      10.711   4.332   3.789  0.00  0.00    -0.276 OA
ATOM     10  N   UNL     1       9.700   6.091   4.919  0.00  0.00    -0.300 N 
ATOM     11  N   UNL     1      11.943   7.295   6.852  0.00  0.00    -0.310 N 
ATOM     13  C   UNL     1       9.807   6.003   7.414  0.00  0.00    +0.027 C 
ATOM     14  C   UNL     1       9.655   8.178   6.274  0.00  0.00    +0.054 C 
ATOM     15  C   UNL     1       9.158   7.381   7.479  0.00  0.00    +0.018 C 
ATOM     16  C   UNL     1       9.419   5.286   6.110  0.00  0.00    +0.113 C 
ATOM     17  C   UNL     1      11.325   6.162   7.554  0.00  0.00    +0.130 C 
ATOM     18  C   UNL     1       9.214   7.479   4.974  0.00  0.00    +0.117 C 
ATOM     19  C   UNL     1      11.166   8.319   6.297  0.00  0.00    +0.027 A 
ATOM     20  C   UNL     1      11.752   9.405   5.761  0.00  0.00    +0.024 A 
ATOM     21  C   UNL     1      13.354   7.349   6.859  0.00  0.00    +0.274 A 
ATOM     22  C   UNL     1      10.310   5.498   3.814  0.00  0.00    +0.218 C 
ATOM     23  C   UNL     1      13.942   8.560   6.232  0.00  0.00    +0.112 A 
ATOM     24  C   UNL     1      13.183   9.532   5.724  0.00  0.00    +0.031 A 
ENDROOT
BRANCH  23  12
ATOM     12  N   UNL     1      15.336   8.719   6.170  0.00  0.00    -0.211 N 
ATOM     35  H   UNL     1      15.661   9.582   6.629  0.00  0.00    +0.174 HD
BRANCH  12   1
ATOM      1  S   UNL     1      16.086   8.383   4.690  0.00  0.00    +0.073 S 
ATOM      8  O   UNL     1      15.735   7.043   4.258  0.00  0.00    -0.150 OA
ATOM      9  O   UNL     1      15.916   9.509   3.791  0.00  0.00    -0.150 OA
BRANCH   1  27
ATOM     27  C   UNL     1      17.784   8.351   5.182  0.00  0.00    +0.109 A 
ATOM     28  C   UNL     1      18.749   7.825   4.322  0.00  0.00    +0.041 A 
ATOM     29  C   UNL     1      18.159   8.851   6.428  0.00  0.00    +0.029 A 
ATOM     31  C   UNL     1      20.088   7.798   4.711  0.00  0.00    +0.057 A 
ATOM     32  C   UNL     1      19.499   8.825   6.816  0.00  0.00    +0.002 A 
ATOM     33  C   UNL     1      20.463   8.298   5.957  0.00  0.00    +0.012 A 
BRANCH  31  34
ATOM      2  F   UNL     1      20.699   7.125   2.497  0.00  0.00    -0.166 F 
ATOM      3  F   UNL     1      22.264   7.978   3.732  0.00  0.00    -0.166 F 
ATOM      4  F   UNL     1      21.518   5.980   4.154  0.00  0.00    -0.166 F 
ATOM     34  C   UNL     1      21.120   7.235   3.792  0.00  0.00    +0.417 C 
ENDBRANCH  31  34
ENDBRANCH   1  27
ENDBRANCH  12   1
ENDBRANCH  23  12
BRANCH  22  25
ATOM     25  C   UNL     1      10.483   6.364   2.593  0.00  0.00    +0.124 C 
BRANCH  25  26
ATOM     26  C   UNL     1      11.776   6.000   1.894  0.00  0.00    +0.168 C 
BRANCH  26   7
ATOM      7  O   UNL     1      12.868   6.612   2.566  0.00  0.00    -0.382 OA
ATOM     30  C   UNL     1      12.862   8.023   2.394  0.00  0.00    +0.194 C 
ENDBRANCH  26   7
ENDBRANCH  25  26
ENDBRANCH  22  25
TORSDOF 7
ENDMDL
MODEL 10
REMARK VINA RESULT:      -6.3      2.605      4.074
REMARK  Name = 7051292
REMARK  8 active torsions:
REMARK  status: ('A' for Active; 'I' for Inactive)
REMARK    1  A    between atoms: S_1  and  N_12
REMARK    2  A    between atoms: S_1  and  C_27
REMARK    3  A    between atoms: O_7  and  C_26
REMARK    4  A    between atoms: O_7  and  C_30
REMARK    5  A    between atoms: N_12  and  C_23
REMARK    6  A    between atoms: C_22  and  C_25
REMARK    7  A    between atoms: C_25  and  C_26
REMARK    8  A    between atoms: C_31  and  C_34
REMARK                            x       y       z     vdW  Elec       q    Type
REMARK                         _______ _______ _______ _____ _____    ______ ____
ROOT
ATOM      5  O   UNL     1      -7.107 -12.232  19.332  0.00  0.00    -0.266 OA
ATOM      6  O   UNL     1     -11.520 -13.940  16.817  0.00  0.00    -0.276 OA
ATOM     10  N   UNL     1     -11.809 -11.774  17.605  0.00  0.00    -0.300 N 
ATOM     11  N   UNL     1      -9.017 -10.939  18.918  0.00  0.00    -0.310 N 
ATOM     13  C   UNL     1     -11.281 -11.401  20.018  0.00  0.00    +0.027 C 
ATOM     14  C   UNL     1     -11.057  -9.546  18.418  0.00  0.00    +0.054 C 
ATOM     15  C   UNL     1     -11.521  -9.907  19.828  0.00  0.00    +0.018 C 
ATOM     16  C   UNL     1     -12.073 -12.210  18.978  0.00  0.00    +0.113 C 
ATOM     17  C   UNL     1      -9.775 -11.676  19.937  0.00  0.00    +0.130 C 
ATOM     18  C   UNL     1     -11.895 -10.322  17.384  0.00  0.00    +0.117 C 
ATOM     19  C   UNL     1      -9.584  -9.859  18.229  0.00  0.00    +0.027 A 
ATOM     20  C   UNL     1      -8.840  -9.123  17.384  0.00  0.00    +0.024 A 
ATOM     21  C   UNL     1      -7.666 -11.306  18.745  0.00  0.00    +0.274 A 
ATOM     22  C   UNL     1     -11.588 -12.725  16.610  0.00  0.00    +0.218 C 
ATOM     23  C   UNL     1      -6.903 -10.471  17.784  0.00  0.00    +0.112 A 
ATOM     24  C   UNL     1      -7.456  -9.436  17.151  0.00  0.00    +0.031 A 
ENDROOT
BRANCH  23  12
ATOM     12  N   UNL     1      -5.550 -10.749  17.522  0.00  0.00    -0.211 N 
ATOM     35  H   UNL     1      -4.972  -9.899  17.459  0.00  0.00    +0.174 HD
BRANCH  12   1
ATOM      1  S   UNL     1      -5.217 -11.916  16.342  0.00  0.00    +0.073 S 
ATOM      8  O   UNL     1      -4.846 -13.165  16.981  0.00  0.00    -0.150 OA
ATOM      9  O   UNL     1      -6.254 -11.894  15.327  0.00  0.00    -0.150 OA
BRANCH   1  27
ATOM     27  C   UNL     1      -3.753 -11.241  15.616  0.00  0.00    +0.109 A 
ATOM     28  C   UNL     1      -3.673 -11.072  14.234  0.00  0.00    +0.041 A 
ATOM     29  C   UNL     1      -2.677 -10.877  16.426  0.00  0.00    +0.029 A 
ATOM     31  C   UNL     1      -2.518 -10.540  13.662  0.00  0.00    +0.057 A 
ATOM     32  C   UNL     1      -1.522 -10.344  15.853  0.00  0.00    +0.002 A 
ATOM     33  C   UNL     1      -1.443 -10.176  14.471  0.00  0.00    +0.012 A 
BRANCH  31  34
ATOM      2  F   UNL     1      -3.500  -9.694  11.650  0.00  0.00    -0.166 F 
ATOM      3  F   UNL     1      -1.336  -9.655  11.780  0.00  0.00    -0.166 F 
ATOM      4  F   UNL     1      -2.371 -11.548  11.512  0.00  0.00    -0.166 F 
ATOM     34  C   UNL     1      -2.433 -10.361  12.184  0.00  0.00    +0.417 C 
ENDBRANCH  31  34
ENDBRANCH   1  27
ENDBRANCH  12   1
ENDBRANCH  23  12
BRANCH  22  25
ATOM     25  C   UNL     1     -11.416 -12.206  15.205  0.00  0.00    +0.124 C 
BRANCH  25  26
ATOM     26  C   UNL     1      -9.944 -12.178  14.854  0.00  0.00    +0.168 C 
BRANCH  26   7
ATOM      7  O   UNL     1      -9.568 -10.858  14.484  0.00  0.00    -0.382 OA
ATOM     30  C   UNL     1      -8.939 -10.832  13.210  0.00  0.00    +0.194 C 
ENDBRANCH  26   7
ENDBRANCH  25  26
ENDBRANCH  22  25
TORSDOF 7
ENDMDL
