REMARK  Name = 38027563
REMARK  11 active torsions:
REMARK  status: ('A' for Active; 'I' for Inactive)
REMARK    1  A    between atoms: N_4  and  C_11
REMARK    2  A    between atoms: N_5  and  C_23
REMARK    3  A    between atoms: C_6  and  C_10
REMARK    4  A    between atoms: C_7  and  C_11
REMARK    5  A    between atoms: C_9  and  C_17
REMARK    6  A    between atoms: C_10  and  C_19
REMARK    7  A    between atoms: C_10  and  C_20
REMARK    8  A    between atoms: C_12  and  C_21
REMARK    9  A    between atoms: C_13  and  C_18
REMARK   10  A    between atoms: C_17  and  C_22
REMARK   11  A    between atoms: C_23  and  C_24
REMARK                            x       y       z     vdW  Elec       q    Type
REMARK                         _______ _______ _______ _____ _____    ______ ____
ROOT
ATOM      6  C   UNL     1      -1.419  -0.432  -1.336  0.00  0.00    +0.000 C 
ATOM      7  C   UNL     1      -2.954  -0.297  -1.489  0.00  0.00    +0.032 C 
ATOM      8  C   UNL     1      -1.039  -1.881  -0.993  0.00  0.00    +0.012 C 
ATOM      9  C   UNL     1      -1.704  -2.365   0.310  0.00  0.00    +0.023 C 
ATOM     12  C   UNL     1      -3.180  -2.024   0.349  0.00  0.00    -0.073 C 
ATOM     14  C   UNL     1      -3.723  -1.108  -0.471  0.00  0.00    -0.022 C 
ATOM     21  C   UNL     1      -4.027  -2.796   1.323  0.00  0.00    +0.039 C 
ENDROOT
BRANCH   6  10
ATOM     10  C   UNL     1      -0.680   0.011  -2.602  0.00  0.00    -0.013 C 
ATOM     19  C   UNL     1      -0.674  -1.110  -3.635  0.00  0.00    +0.007 C 
ATOM     20  C   UNL     1       0.744   0.443  -2.264  0.00  0.00    +0.007 C 
ENDBRANCH   6  10
BRANCH   7  11
ATOM     11  C   UNL     1      -3.391   1.170  -1.409  0.00  0.00    +0.112 C 
BRANCH  11   4
ATOM      2  O   UNL     1      -1.690   3.422  -0.711  0.00  0.00    -0.276 OA
ATOM      4  N   UNL     1      -3.143   1.703  -0.106  0.00  0.00    -0.315 N 
ATOM     18  C   UNL     1      -2.309   2.789   0.136  0.00  0.00    +0.216 C 
ATOM     30  H   UNL     1      -3.636   1.294   0.682  0.00  0.00    +0.149 HD
BRANCH  18  13
ATOM     13  C   UNL     1      -2.197   3.178   1.573  0.00  0.00    +0.075 C 
ATOM     15  C   UNL     1      -0.969   3.902   2.040  0.00  0.00    +0.013 C 
ATOM     16  C   UNL     1      -1.197   2.475   2.443  0.00  0.00    +0.013 C 
ENDBRANCH  18  13
ENDBRANCH  11   4
ENDBRANCH   7  11
BRANCH   9  17
ATOM     17  C   UNL     1      -0.979  -1.806   1.540  0.00  0.00    +0.103 C 
BRANCH  17  22
ATOM      3  O   UNL     1       0.979  -3.118   0.995  0.00  0.00    -0.276 OA
ATOM      5  N   UNL     1       1.226  -1.121   2.158  0.00  0.00    -0.311 N 
ATOM     22  C   UNL     1       0.501  -2.115   1.516  0.00  0.00    +0.214 C 
ATOM     31  H   UNL     1       0.741  -0.323   2.556  0.00  0.00    +0.149 HD
BRANCH   5  23
ATOM     23  C   UNL     1       2.665  -1.155   2.289  0.00  0.00    +0.139 C 
BRANCH  23  24
ATOM      1  F   UNL     1       5.237   1.370  -2.037  0.00  0.00    -0.205 F 
ATOM     24  C   UNL     1       3.350  -0.481   1.135  0.00  0.00    -0.030 A 
ATOM     25  C   UNL     1       3.699  -1.219   0.004  0.00  0.00    +0.008 A 
ATOM     26  C   UNL     1       3.638   0.882   1.195  0.00  0.00    +0.008 A 
ATOM     27  C   UNL     1       4.336  -0.594  -1.068  0.00  0.00    +0.038 A 
ATOM     28  C   UNL     1       4.275   1.508   0.123  0.00  0.00    +0.038 A 
ATOM     29  C   UNL     1       4.624   0.770  -1.008  0.00  0.00    +0.123 A 
ENDBRANCH  23  24
ENDBRANCH   5  23
ENDBRANCH  17  22
ENDBRANCH   9  17
TORSDOF 8
