MODEL 1
REMARK VINA RESULT:      -7.7      0.000      0.000
REMARK  Name = 45361530
REMARK  12 active torsions:
REMARK  status: ('A' for Active; 'I' for Inactive)
REMARK    1  A    between atoms: O_1  and  C_10
REMARK    2  A    between atoms: N_4  and  C_14
REMARK    3  A    between atoms: N_5  and  C_24
REMARK    4  A    between atoms: N_5  and  C_25
REMARK    5  A    between atoms: C_7  and  C_17
REMARK    6  A    between atoms: C_9  and  C_19
REMARK    7  A    between atoms: C_12  and  C_18
REMARK    8  A    between atoms: C_18  and  C_20
REMARK    9  A    between atoms: C_18  and  C_21
REMARK   10  A    between atoms: C_22  and  C_23
REMARK   11  A    between atoms: C_23  and  C_26
REMARK   12  A    between atoms: C_24  and  C_27
REMARK                            x       y       z     vdW  Elec       q    Type
REMARK                         _______ _______ _______ _____ _____    ______ ____
ROOT
ATOM      7  C   UNL     1      20.147   7.899  21.876  0.00  0.00    -0.027 C 
ATOM      8  C   UNL     1      20.035   6.830  20.739  0.00  0.00    +0.028 C 
ATOM      9  C   UNL     1      18.581   6.241  20.668  0.00  0.00    +0.012 C 
ATOM     10  C   UNL     1      21.178   5.779  20.839  0.00  0.00    +0.122 C 
ATOM     11  C   UNL     1      21.555   8.540  21.846  0.00  0.00    +0.007 C 
ATOM     12  C   UNL     1      22.578   6.430  20.912  0.00  0.00    +0.029 C 
ATOM     13  C   UNL     1      19.114   9.021  21.617  0.00  0.00    +0.009 C 
ATOM     14  C   UNL     1      17.544   7.385  20.483  0.00  0.00    +0.076 C 
ATOM     15  C   UNL     1      22.676   7.517  21.982  0.00  0.00    +0.007 C 
ATOM     16  C   UNL     1      17.687   8.506  21.511  0.00  0.00    +0.023 C 
ATOM     17  C   UNL     1      19.904   7.298  23.284  0.00  0.00    +0.011 C 
ATOM     19  C   UNL     1      18.391   5.201  19.550  0.00  0.00    +0.010 C 
ENDROOT
BRANCH  14   4
ATOM      3  O   UNL     1      15.301   8.362  18.968  0.00  0.00    -0.275 OA
ATOM      4  N   UNL     1      16.184   6.890  20.529  0.00  0.00    -0.312 N 
ATOM     22  C   UNL     1      15.169   7.431  19.756  0.00  0.00    +0.218 C 
ATOM     37  H   UNL     1      15.971   6.161  21.204  0.00  0.00    +0.149 HD
BRANCH  22  23
ATOM     23  C   UNL     1      13.851   6.719  19.998  0.00  0.00    +0.130 C 
BRANCH  23  26
ATOM     26  C   UNL     1      12.903   7.497  20.871  0.00  0.00    -0.039 A 
ATOM     28  C   UNL     1      13.302   8.717  21.418  0.00  0.00    +0.004 A 
ATOM     29  C   UNL     1      11.627   6.999  21.132  0.00  0.00    +0.004 A 
ATOM     32  C   UNL     1      12.424   9.438  22.227  0.00  0.00    +0.000 A 
ATOM     33  C   UNL     1      10.749   7.721  21.941  0.00  0.00    +0.000 A 
ATOM     34  C   UNL     1      11.147   8.941  22.488  0.00  0.00    +0.000 A 
ENDBRANCH  23  26
ENDBRANCH  22  23
ENDBRANCH  14   4
BRANCH  10   1
ATOM      1  O   UNL     1      21.171   4.955  19.673  0.00  0.00    -0.391 OA
ATOM     38  H   UNL     1      20.863   5.494  18.924  0.00  0.00    +0.210 HD
ENDBRANCH  10   1
BRANCH  12  18
ATOM     18  C   UNL     1      23.679   5.386  21.142  0.00  0.00    +0.078 C 
ATOM     20  C   UNL     1      23.988   5.292  22.636  0.00  0.00    +0.017 C 
BRANCH  18  21
ATOM      2  O   UNL     1      25.409   6.899  20.471  0.00  0.00    -0.275 OA
ATOM      5  N   UNL     1      25.470   4.809  19.481  0.00  0.00    -0.300 N 
ATOM     21  C   UNL     1      24.929   5.767  20.345  0.00  0.00    +0.219 C 
ATOM     25  C   UNL     1      26.648   5.148  18.690  0.00  0.00    +0.132 C 
BRANCH   5  24
ATOM     24  C   UNL     1      24.987   3.442  19.299  0.00  0.00    +0.144 C 
BRANCH  24  27
ATOM      6  N   UNL     1      26.864   1.867  22.180  0.00  0.00    -0.263 NA
ATOM     27  C   UNL     1      25.289   2.576  20.489  0.00  0.00    -0.012 A 
ATOM     30  C   UNL     1      24.334   1.705  21.003  0.00  0.00    +0.008 A 
ATOM     31  C   UNL     1      26.527   2.620  21.108  0.00  0.00    +0.115 A 
ATOM     35  C   UNL     1      24.644   0.915  22.104  0.00  0.00    +0.020 A 
ATOM     36  C   UNL     1      25.911   1.033  22.651  0.00  0.00    +0.111 A 
ENDBRANCH  24  27
ENDBRANCH   5  24
ENDBRANCH  18  21
ENDBRANCH  12  18
TORSDOF 8
ENDMDL
MODEL 2
REMARK VINA RESULT:      -7.5     29.731     32.661
REMARK  Name = 45361530
REMARK  12 active torsions:
REMARK  status: ('A' for Active; 'I' for Inactive)
REMARK    1  A    between atoms: O_1  and  C_10
REMARK    2  A    between atoms: N_4  and  C_14
REMARK    3  A    between atoms: N_5  and  C_24
REMARK    4  A    between atoms: N_5  and  C_25
REMARK    5  A    between atoms: C_7  and  C_17
REMARK    6  A    between atoms: C_9  and  C_19
REMARK    7  A    between atoms: C_12  and  C_18
REMARK    8  A    between atoms: C_18  and  C_20
REMARK    9  A    between atoms: C_18  and  C_21
REMARK   10  A    between atoms: C_22  and  C_23
REMARK   11  A    between atoms: C_23  and  C_26
REMARK   12  A    between atoms: C_24  and  C_27
REMARK                            x       y       z     vdW  Elec       q    Type
REMARK                         _______ _______ _______ _____ _____    ______ ____
ROOT
ATOM      7  C   UNL     1      -3.841 -10.635  10.366  0.00  0.00    -0.027 C 
ATOM      8  C   UNL     1      -5.210 -10.345  11.068  0.00  0.00    +0.028 C 
ATOM      9  C   UNL     1      -5.977  -9.185  10.338  0.00  0.00    +0.012 C 
ATOM     10  C   UNL     1      -5.029 -10.165  12.602  0.00  0.00    +0.122 C 
ATOM     11  C   UNL     1      -3.165 -11.853  11.037  0.00  0.00    +0.007 C 
ATOM     12  C   UNL     1      -4.261 -11.339  13.252  0.00  0.00    +0.029 C 
ATOM     13  C   UNL     1      -4.101 -10.997   8.885  0.00  0.00    +0.009 C 
ATOM     14  C   UNL     1      -6.166  -9.527   8.833  0.00  0.00    +0.076 C 
ATOM     15  C   UNL     1      -2.951 -11.665  12.534  0.00  0.00    +0.007 C 
ATOM     16  C   UNL     1      -4.866  -9.919   8.132  0.00  0.00    +0.023 C 
ATOM     17  C   UNL     1      -2.872  -9.428  10.433  0.00  0.00    +0.011 C 
ATOM     19  C   UNL     1      -7.348  -8.866  10.959  0.00  0.00    +0.010 C 
ENDROOT
BRANCH  14   4
ATOM      3  O   UNL     1      -8.364  -9.684   6.982  0.00  0.00    -0.275 OA
ATOM      4  N   UNL     1      -6.767  -8.429   8.104  0.00  0.00    -0.312 N 
ATOM     22  C   UNL     1      -7.828  -8.608   7.230  0.00  0.00    +0.218 C 
ATOM     37  H   UNL     1      -6.343  -7.511   8.201  0.00  0.00    +0.149 HD
BRANCH  22  23
ATOM     23  C   UNL     1      -8.262  -7.294   6.611  0.00  0.00    +0.130 C 
BRANCH  23  26
ATOM     26  C   UNL     1      -9.385  -6.624   7.358  0.00  0.00    -0.039 A 
ATOM     28  C   UNL     1     -10.703  -7.019   7.135  0.00  0.00    +0.004 A 
ATOM     29  C   UNL     1      -9.106  -5.608   8.273  0.00  0.00    +0.004 A 
ATOM     32  C   UNL     1     -11.744  -6.399   7.826  0.00  0.00    +0.000 A 
ATOM     33  C   UNL     1     -10.147  -4.988   8.964  0.00  0.00    +0.000 A 
ATOM     34  C   UNL     1     -11.466  -5.384   8.741  0.00  0.00    +0.000 A 
ENDBRANCH  23  26
ENDBRANCH  22  23
ENDBRANCH  14   4
BRANCH  10   1
ATOM      1  O   UNL     1      -6.311 -10.119  13.231  0.00  0.00    -0.391 OA
ATOM     38  H   UNL     1      -6.231 -10.525  14.111  0.00  0.00    +0.210 HD
ENDBRANCH  10   1
BRANCH  12  18
ATOM     18  C   UNL     1      -3.979 -11.082  14.738  0.00  0.00    +0.078 C 
ATOM     20  C   UNL     1      -2.520 -10.661  14.915  0.00  0.00    +0.017 C 
BRANCH  18  21
ATOM      2  O   UNL     1      -4.163 -13.452  15.022  0.00  0.00    -0.275 OA
ATOM      5  N   UNL     1      -4.731 -12.177  16.867  0.00  0.00    -0.300 N 
ATOM     21  C   UNL     1      -4.291 -12.342  15.550  0.00  0.00    +0.219 C 
ATOM     25  C   UNL     1      -5.058 -13.357  17.662  0.00  0.00    +0.132 C 
BRANCH   5  24
ATOM     24  C   UNL     1      -4.875 -10.906  17.576  0.00  0.00    +0.144 C 
BRANCH  24  27
ATOM      6  N   UNL     1      -8.465 -10.471  18.681  0.00  0.00    -0.263 NA
ATOM     27  C   UNL     1      -6.301 -10.437  17.604  0.00  0.00    -0.012 A 
ATOM     30  C   UNL     1      -6.791  -9.572  16.631  0.00  0.00    +0.008 A 
ATOM     31  C   UNL     1      -7.171 -10.853  18.598  0.00  0.00    +0.115 A 
ATOM     35  C   UNL     1      -8.117  -9.156  16.683  0.00  0.00    +0.020 A 
ATOM     36  C   UNL     1      -8.905  -9.629  17.718  0.00  0.00    +0.111 A 
ENDBRANCH  24  27
ENDBRANCH   5  24
ENDBRANCH  18  21
ENDBRANCH  12  18
TORSDOF 8
ENDMDL
MODEL 3
REMARK VINA RESULT:      -7.3     31.870     36.278
REMARK  Name = 45361530
REMARK  12 active torsions:
REMARK  status: ('A' for Active; 'I' for Inactive)
REMARK    1  A    between atoms: O_1  and  C_10
REMARK    2  A    between atoms: N_4  and  C_14
REMARK    3  A    between atoms: N_5  and  C_24
REMARK    4  A    between atoms: N_5  and  C_25
REMARK    5  A    between atoms: C_7  and  C_17
REMARK    6  A    between atoms: C_9  and  C_19
REMARK    7  A    between atoms: C_12  and  C_18
REMARK    8  A    between atoms: C_18  and  C_20
REMARK    9  A    between atoms: C_18  and  C_21
REMARK   10  A    between atoms: C_22  and  C_23
REMARK   11  A    between atoms: C_23  and  C_26
REMARK   12  A    between atoms: C_24  and  C_27
REMARK                            x       y       z     vdW  Elec       q    Type
REMARK                         _______ _______ _______ _____ _____    ______ ____
ROOT
ATOM      7  C   UNL     1     -16.970   5.608  22.394  0.00  0.00    -0.027 C 
ATOM      8  C   UNL     1     -15.692   5.208  23.205  0.00  0.00    +0.028 C 
ATOM      9  C   UNL     1     -14.420   5.217  22.284  0.00  0.00    +0.012 C 
ATOM     10  C   UNL     1     -15.924   3.899  24.012  0.00  0.00    +0.122 C 
ATOM     11  C   UNL     1     -18.181   5.700  23.351  0.00  0.00    +0.007 C 
ATOM     12  C   UNL     1     -17.196   3.959  24.890  0.00  0.00    +0.029 C 
ATOM     13  C   UNL     1     -16.754   7.007  21.772  0.00  0.00    +0.009 C 
ATOM     14  C   UNL     1     -14.256   6.606  21.605  0.00  0.00    +0.076 C 
ATOM     15  C   UNL     1     -18.435   4.406  24.115  0.00  0.00    +0.007 C 
ATOM     16  C   UNL     1     -15.518   7.085  20.888  0.00  0.00    +0.023 C 
ATOM     17  C   UNL     1     -17.299   4.595  21.268  0.00  0.00    +0.011 C 
ATOM     19  C   UNL     1     -13.120   4.860  23.025  0.00  0.00    +0.010 C 
ENDROOT
BRANCH  14   4
ATOM      3  O   UNL     1     -12.397   8.754  21.140  0.00  0.00    -0.275 OA
ATOM      4  N   UNL     1     -13.159   6.616  20.659  0.00  0.00    -0.312 N 
ATOM     22  C   UNL     1     -12.316   7.705  20.508  0.00  0.00    +0.218 C 
ATOM     37  H   UNL     1     -13.058   5.810  20.048  0.00  0.00    +0.149 HD
BRANCH  22  23
ATOM     23  C   UNL     1     -11.255   7.440  19.457  0.00  0.00    +0.130 C 
BRANCH  23  26
ATOM     26  C   UNL     1     -11.640   7.927  18.085  0.00  0.00    -0.039 A 
ATOM     28  C   UNL     1     -12.982   8.134  17.771  0.00  0.00    +0.004 A 
ATOM     29  C   UNL     1     -10.653   8.171  17.130  0.00  0.00    +0.004 A 
ATOM     32  C   UNL     1     -13.339   8.585  16.500  0.00  0.00    +0.000 A 
ATOM     33  C   UNL     1     -11.011   8.622  15.859  0.00  0.00    +0.000 A 
ATOM     34  C   UNL     1     -12.353   8.830  15.544  0.00  0.00    +0.000 A 
ENDBRANCH  23  26
ENDBRANCH  22  23
ENDBRANCH  14   4
BRANCH  10   1
ATOM      1  O   UNL     1     -14.825   3.684  24.899  0.00  0.00    -0.391 OA
ATOM     38  H   UNL     1     -15.080   4.010  25.780  0.00  0.00    +0.210 HD
ENDBRANCH  10   1
BRANCH  12  18
ATOM     18  C   UNL     1     -17.478   2.615  25.574  0.00  0.00    +0.078 C 
ATOM     20  C   UNL     1     -18.288   1.723  24.632  0.00  0.00    +0.017 C 
BRANCH  18  21
ATOM      2  O   UNL     1     -19.457   2.731  26.917  0.00  0.00    -0.275 OA
ATOM      5  N   UNL     1     -17.477   3.215  28.011  0.00  0.00    -0.300 N 
ATOM     21  C   UNL     1     -18.227   2.851  26.888  0.00  0.00    +0.219 C 
ATOM     25  C   UNL     1     -18.163   3.468  29.274  0.00  0.00    +0.132 C 
BRANCH   5  24
ATOM     24  C   UNL     1     -16.022   3.343  28.072  0.00  0.00    +0.144 C 
BRANCH  24  27
ATOM      6  N   UNL     1     -15.171  -0.071  29.457  0.00  0.00    -0.263 NA
ATOM     27  C   UNL     1     -15.399   2.276  28.925  0.00  0.00    -0.012 A 
ATOM     30  C   UNL     1     -14.508   2.600  29.942  0.00  0.00    +0.008 A 
ATOM     31  C   UNL     1     -15.695   0.937  28.725  0.00  0.00    +0.115 A 
ATOM     35  C   UNL     1     -13.948   1.590  30.716  0.00  0.00    +0.020 A 
ATOM     36  C   UNL     1     -14.309   0.283  30.436  0.00  0.00    +0.111 A 
ENDBRANCH  24  27
ENDBRANCH   5  24
ENDBRANCH  18  21
ENDBRANCH  12  18
TORSDOF 8
ENDMDL
MODEL 4
REMARK VINA RESULT:      -7.1     17.301     21.695
REMARK  Name = 45361530
REMARK  12 active torsions:
REMARK  status: ('A' for Active; 'I' for Inactive)
REMARK    1  A    between atoms: O_1  and  C_10
REMARK    2  A    between atoms: N_4  and  C_14
REMARK    3  A    between atoms: N_5  and  C_24
REMARK    4  A    between atoms: N_5  and  C_25
REMARK    5  A    between atoms: C_7  and  C_17
REMARK    6  A    between atoms: C_9  and  C_19
REMARK    7  A    between atoms: C_12  and  C_18
REMARK    8  A    between atoms: C_18  and  C_20
REMARK    9  A    between atoms: C_18  and  C_21
REMARK   10  A    between atoms: C_22  and  C_23
REMARK   11  A    between atoms: C_23  and  C_26
REMARK   12  A    between atoms: C_24  and  C_27
REMARK                            x       y       z     vdW  Elec       q    Type
REMARK                         _______ _______ _______ _____ _____    ______ ____
ROOT
ATOM      7  C   UNL     1       9.638   6.671   6.338  0.00  0.00    -0.027 C 
ATOM      8  C   UNL     1      10.365   7.489   5.219  0.00  0.00    +0.028 C 
ATOM      9  C   UNL     1      11.423   6.599   4.474  0.00  0.00    +0.012 C 
ATOM     10  C   UNL     1      10.899   8.843   5.769  0.00  0.00    +0.122 C 
ATOM     11  C   UNL     1       8.527   7.540   6.973  0.00  0.00    +0.007 C 
ATOM     12  C   UNL     1       9.807   9.662   6.495  0.00  0.00    +0.029 C 
ATOM     13  C   UNL     1       8.961   5.436   5.699  0.00  0.00    +0.009 C 
ATOM     14  C   UNL     1      10.745   5.322   3.902  0.00  0.00    +0.076 C 
ATOM     15  C   UNL     1       9.053   8.850   7.547  0.00  0.00    +0.007 C 
ATOM     16  C   UNL     1       9.934   4.547   4.939  0.00  0.00    +0.023 C 
ATOM     17  C   UNL     1      10.604   6.202   7.455  0.00  0.00    +0.011 C 
ATOM     19  C   UNL     1      12.158   7.333   3.340  0.00  0.00    +0.010 C 
ENDROOT
BRANCH  14   4
ATOM      3  O   UNL     1      10.520   3.978   1.367  0.00  0.00    -0.275 OA
ATOM      4  N   UNL     1      11.711   4.421   3.308  0.00  0.00    -0.312 N 
ATOM     22  C   UNL     1      11.510   3.820   2.076  0.00  0.00    +0.218 C 
ATOM     37  H   UNL     1      12.532   4.183   3.857  0.00  0.00    +0.149 HD
BRANCH  22  23
ATOM     23  C   UNL     1      12.680   2.934   1.695  0.00  0.00    +0.130 C 
BRANCH  23  26
ATOM     26  C   UNL     1      13.590   3.555   0.668  0.00  0.00    -0.039 A 
ATOM     28  C   UNL     1      14.813   4.099   1.060  0.00  0.00    +0.004 A 
ATOM     29  C   UNL     1      13.211   3.586  -0.673  0.00  0.00    +0.004 A 
ATOM     32  C   UNL     1      15.657   4.675   0.110  0.00  0.00    +0.000 A 
ATOM     33  C   UNL     1      14.054   4.161  -1.623  0.00  0.00    +0.000 A 
ATOM     34  C   UNL     1      15.277   4.705  -1.232  0.00  0.00    +0.000 A 
ENDBRANCH  23  26
ENDBRANCH  22  23
ENDBRANCH  14   4
BRANCH  10   1
ATOM      1  O   UNL     1      11.360   9.649   4.684  0.00  0.00    -0.391 OA
ATOM     38  H   UNL     1      10.618  10.200   4.380  0.00  0.00    +0.210 HD
ENDBRANCH  10   1
BRANCH  12  18
ATOM     18  C   UNL     1      10.382  10.929   7.141  0.00  0.00    +0.078 C 
ATOM     20  C   UNL     1      11.195  10.547   8.378  0.00  0.00    +0.017 C 
BRANCH  18  21
ATOM      2  O   UNL     1       8.940  12.046   8.693  0.00  0.00    -0.275 OA
ATOM      5  N   UNL     1       8.576  12.534   6.461  0.00  0.00    -0.300 N 
ATOM     21  C   UNL     1       9.244  11.886   7.505  0.00  0.00    +0.219 C 
ATOM     25  C   UNL     1       7.472  13.436   6.772  0.00  0.00    +0.132 C 
BRANCH   5  24
ATOM     24  C   UNL     1       8.893  12.429   5.038  0.00  0.00    +0.144 C 
BRANCH  24  27
ATOM      6  N   UNL     1       6.114  12.049   2.502  0.00  0.00    -0.263 NA
ATOM     27  C   UNL     1       7.765  11.824   4.253  0.00  0.00    -0.012 A 
ATOM     30  C   UNL     1       7.319  10.533   4.518  0.00  0.00    +0.008 A 
ATOM     31  C   UNL     1       7.135  12.533   3.244  0.00  0.00    +0.115 A 
ATOM     35  C   UNL     1       6.271  10.000   3.775  0.00  0.00    +0.020 A 
ATOM     36  C   UNL     1       5.708  10.791   2.788  0.00  0.00    +0.111 A 
ENDBRANCH  24  27
ENDBRANCH   5  24
ENDBRANCH  18  21
ENDBRANCH  12  18
TORSDOF 8
ENDMDL
MODEL 5
REMARK VINA RESULT:      -7.1     16.030     19.511
REMARK  Name = 45361530
REMARK  12 active torsions:
REMARK  status: ('A' for Active; 'I' for Inactive)
REMARK    1  A    between atoms: O_1  and  C_10
REMARK    2  A    between atoms: N_4  and  C_14
REMARK    3  A    between atoms: N_5  and  C_24
REMARK    4  A    between atoms: N_5  and  C_25
REMARK    5  A    between atoms: C_7  and  C_17
REMARK    6  A    between atoms: C_9  and  C_19
REMARK    7  A    between atoms: C_12  and  C_18
REMARK    8  A    between atoms: C_18  and  C_20
REMARK    9  A    between atoms: C_18  and  C_21
REMARK   10  A    between atoms: C_22  and  C_23
REMARK   11  A    between atoms: C_23  and  C_26
REMARK   12  A    between atoms: C_24  and  C_27
REMARK                            x       y       z     vdW  Elec       q    Type
REMARK                         _______ _______ _______ _____ _____    ______ ____
ROOT
ATOM      7  C   UNL     1       9.617   6.821   6.695  0.00  0.00    -0.027 C 
ATOM      8  C   UNL     1      10.590   7.531   5.696  0.00  0.00    +0.028 C 
ATOM      9  C   UNL     1      11.473   6.479   4.933  0.00  0.00    +0.012 C 
ATOM     10  C   UNL     1      11.373   8.680   6.393  0.00  0.00    +0.122 C 
ATOM     11  C   UNL     1       8.687   7.872   7.344  0.00  0.00    +0.007 C 
ATOM     12  C   UNL     1      10.443   9.672   7.128  0.00  0.00    +0.029 C 
ATOM     13  C   UNL     1       8.728   5.826   5.912  0.00  0.00    +0.009 C 
ATOM     14  C   UNL     1      10.568   5.439   4.211  0.00  0.00    +0.076 C 
ATOM     15  C   UNL     1       9.450   8.979   8.061  0.00  0.00    +0.007 C 
ATOM     16  C   UNL     1       9.530   4.797   5.129  0.00  0.00    +0.023 C 
ATOM     17  C   UNL     1      10.368   6.059   7.816  0.00  0.00    +0.011 C 
ATOM     19  C   UNL     1      12.435   7.107   3.911  0.00  0.00    +0.010 C 
ENDROOT
BRANCH  14   4
ATOM      3  O   UNL     1      10.246   4.390   1.551  0.00  0.00    -0.275 OA
ATOM      4  N   UNL     1      11.348   4.387   3.593  0.00  0.00    -0.312 N 
ATOM     22  C   UNL     1      11.113   3.949   2.299  0.00  0.00    +0.218 C 
ATOM     37  H   UNL     1      12.047   3.921   4.165  0.00  0.00    +0.149 HD
BRANCH  22  23
ATOM     23  C   UNL     1      12.078   2.847   1.906  0.00  0.00    +0.130 C 
BRANCH  23  26
ATOM     26  C   UNL     1      13.191   3.319   1.008  0.00  0.00    -0.039 A 
ATOM     28  C   UNL     1      14.448   3.594   1.544  0.00  0.00    +0.004 A 
ATOM     29  C   UNL     1      12.964   3.480  -0.358  0.00  0.00    +0.004 A 
ATOM     32  C   UNL     1      15.480   4.032   0.713  0.00  0.00    +0.000 A 
ATOM     33  C   UNL     1      13.995   3.918  -1.189  0.00  0.00    +0.000 A 
ATOM     34  C   UNL     1      15.253   4.193  -0.654  0.00  0.00    +0.000 A 
ENDBRANCH  23  26
ENDBRANCH  22  23
ENDBRANCH  14   4
BRANCH  10   1
ATOM      1  O   UNL     1      12.083   9.437   5.411  0.00  0.00    -0.391 OA
ATOM     38  H   UNL     1      12.765   8.863   5.023  0.00  0.00    +0.210 HD
ENDBRANCH  10   1
BRANCH  12  18
ATOM     18  C   UNL     1      11.239  10.720   7.917  0.00  0.00    +0.078 C 
ATOM     20  C   UNL     1      10.465  11.107   9.177  0.00  0.00    +0.017 C 
BRANCH  18  21
ATOM      2  O   UNL     1      10.647  12.292   6.210  0.00  0.00    -0.275 OA
ATOM      5  N   UNL     1      12.718  12.613   7.189  0.00  0.00    -0.300 N 
ATOM     21  C   UNL     1      11.499  11.944   7.034  0.00  0.00    +0.219 C 
ATOM     25  C   UNL     1      13.007  13.770   6.348  0.00  0.00    +0.132 C 
BRANCH   5  24
ATOM     24  C   UNL     1      13.761  12.290   8.160  0.00  0.00    +0.144 C 
BRANCH  24  27
ATOM      6  N   UNL     1      17.366  11.967   7.065  0.00  0.00    -0.263 NA
ATOM     27  C   UNL     1      14.998  11.753   7.499  0.00  0.00    -0.012 A 
ATOM     30  C   UNL     1      14.954  10.594   6.731  0.00  0.00    +0.008 A 
ATOM     31  C   UNL     1      16.217  12.396   7.634  0.00  0.00    +0.115 A 
ATOM     35  C   UNL     1      16.115  10.122   6.129  0.00  0.00    +0.020 A 
ATOM     36  C   UNL     1      17.284  10.838   6.325  0.00  0.00    +0.111 A 
ENDBRANCH  24  27
ENDBRANCH   5  24
ENDBRANCH  18  21
ENDBRANCH  12  18
TORSDOF 8
ENDMDL
MODEL 6
REMARK VINA RESULT:      -7.0     28.582     32.378
REMARK  Name = 45361530
REMARK  12 active torsions:
REMARK  status: ('A' for Active; 'I' for Inactive)
REMARK    1  A    between atoms: O_1  and  C_10
REMARK    2  A    between atoms: N_4  and  C_14
REMARK    3  A    between atoms: N_5  and  C_24
REMARK    4  A    between atoms: N_5  and  C_25
REMARK    5  A    between atoms: C_7  and  C_17
REMARK    6  A    between atoms: C_9  and  C_19
REMARK    7  A    between atoms: C_12  and  C_18
REMARK    8  A    between atoms: C_18  and  C_20
REMARK    9  A    between atoms: C_18  and  C_21
REMARK   10  A    between atoms: C_22  and  C_23
REMARK   11  A    between atoms: C_23  and  C_26
REMARK   12  A    between atoms: C_24  and  C_27
REMARK                            x       y       z     vdW  Elec       q    Type
REMARK                         _______ _______ _______ _____ _____    ______ ____
ROOT
ATOM      7  C   UNL     1      -5.791 -11.135  17.567  0.00  0.00    -0.027 C 
ATOM      8  C   UNL     1      -6.292 -10.381  16.289  0.00  0.00    +0.028 C 
ATOM      9  C   UNL     1      -7.861 -10.387  16.215  0.00  0.00    +0.012 C 
ATOM     10  C   UNL     1      -5.560 -10.889  15.014  0.00  0.00    +0.122 C 
ATOM     11  C   UNL     1      -4.253 -11.012  17.669  0.00  0.00    +0.007 C 
ATOM     12  C   UNL     1      -4.021 -10.862  15.160  0.00  0.00    +0.029 C 
ATOM     13  C   UNL     1      -6.401 -10.462  18.819  0.00  0.00    +0.009 C 
ATOM     14  C   UNL     1      -8.463  -9.778  17.513  0.00  0.00    +0.076 C 
ATOM     15  C   UNL     1      -3.531 -11.545  16.437  0.00  0.00    +0.007 C 
ATOM     16  C   UNL     1      -7.921 -10.415  18.792  0.00  0.00    +0.023 C 
ATOM     17  C   UNL     1      -6.173 -12.636  17.558  0.00  0.00    +0.011 C 
ATOM     19  C   UNL     1      -8.423  -9.637  14.996  0.00  0.00    +0.010 C 
ENDROOT
BRANCH  14   4
ATOM      3  O   UNL     1     -10.335  -7.592  17.495  0.00  0.00    -0.275 OA
ATOM      4  N   UNL     1      -9.908  -9.873  17.529  0.00  0.00    -0.312 N 
ATOM     22  C   UNL     1     -10.728  -8.755  17.519  0.00  0.00    +0.218 C 
ATOM     37  H   UNL     1     -10.318 -10.798  17.615  0.00  0.00    +0.149 HD
BRANCH  22  23
ATOM     23  C   UNL     1     -12.193  -9.144  17.535  0.00  0.00    +0.130 C 
BRANCH  23  26
ATOM     26  C   UNL     1     -12.538 -10.131  18.619  0.00  0.00    -0.039 A 
ATOM     28  C   UNL     1     -12.693  -9.693  19.934  0.00  0.00    +0.004 A 
ATOM     29  C   UNL     1     -12.703 -11.480  18.308  0.00  0.00    +0.004 A 
ATOM     32  C   UNL     1     -13.012 -10.606  20.940  0.00  0.00    +0.000 A 
ATOM     33  C   UNL     1     -13.023 -12.393  19.314  0.00  0.00    +0.000 A 
ATOM     34  C   UNL     1     -13.178 -11.956  20.629  0.00  0.00    +0.000 A 
ENDBRANCH  23  26
ENDBRANCH  22  23
ENDBRANCH  14   4
BRANCH  10   1
ATOM      1  O   UNL     1      -5.880 -10.039  13.911  0.00  0.00    -0.391 OA
ATOM     38  H   UNL     1      -5.055  -9.833  13.439  0.00  0.00    +0.210 HD
ENDBRANCH  10   1
BRANCH  12  18
ATOM     18  C   UNL     1      -3.323 -11.487  13.945  0.00  0.00    +0.078 C 
ATOM     20  C   UNL     1      -2.711 -12.830  14.344  0.00  0.00    +0.017 C 
BRANCH  18  21
ATOM      2  O   UNL     1      -1.517  -9.938  14.212  0.00  0.00    -0.275 OA
ATOM      5  N   UNL     1      -2.164 -10.353  12.030  0.00  0.00    -0.300 N 
ATOM     21  C   UNL     1      -2.252 -10.531  13.415  0.00  0.00    +0.219 C 
ATOM     25  C   UNL     1      -1.168  -9.431  11.492  0.00  0.00    +0.132 C 
BRANCH   5  24
ATOM     24  C   UNL     1      -2.967 -11.039  11.020  0.00  0.00    +0.144 C 
BRANCH  24  27
ATOM      6  N   UNL     1      -5.849  -8.600  10.806  0.00  0.00    -0.263 NA
ATOM     27  C   UNL     1      -4.026 -10.145  10.441  0.00  0.00    -0.012 A 
ATOM     30  C   UNL     1      -4.185 -10.019   9.065  0.00  0.00    +0.008 A 
ATOM     31  C   UNL     1      -4.876  -9.421  11.261  0.00  0.00    +0.115 A 
ATOM     35  C   UNL     1      -5.175  -9.184   8.559  0.00  0.00    +0.020 A 
ATOM     36  C   UNL     1      -5.973  -8.504   9.463  0.00  0.00    +0.111 A 
ENDBRANCH  24  27
ENDBRANCH   5  24
ENDBRANCH  18  21
ENDBRANCH  12  18
TORSDOF 8
ENDMDL
MODEL 7
REMARK VINA RESULT:      -7.0     35.514     37.202
REMARK  Name = 45361530
REMARK  12 active torsions:
REMARK  status: ('A' for Active; 'I' for Inactive)
REMARK    1  A    between atoms: O_1  and  C_10
REMARK    2  A    between atoms: N_4  and  C_14
REMARK    3  A    between atoms: N_5  and  C_24
REMARK    4  A    between atoms: N_5  and  C_25
REMARK    5  A    between atoms: C_7  and  C_17
REMARK    6  A    between atoms: C_9  and  C_19
REMARK    7  A    between atoms: C_12  and  C_18
REMARK    8  A    between atoms: C_18  and  C_20
REMARK    9  A    between atoms: C_18  and  C_21
REMARK   10  A    between atoms: C_22  and  C_23
REMARK   11  A    between atoms: C_23  and  C_26
REMARK   12  A    between atoms: C_24  and  C_27
REMARK                            x       y       z     vdW  Elec       q    Type
REMARK                         _______ _______ _______ _____ _____    ______ ____
ROOT
ATOM      7  C   UNL     1     -15.016   1.813  30.947  0.00  0.00    -0.027 C 
ATOM      8  C   UNL     1     -15.709   3.169  30.583  0.00  0.00    +0.028 C 
ATOM      9  C   UNL     1     -15.716   3.394  29.029  0.00  0.00    +0.012 C 
ATOM     10  C   UNL     1     -15.130   4.341  31.426  0.00  0.00    +0.122 C 
ATOM     11  C   UNL     1     -15.127   1.570  32.470  0.00  0.00    +0.007 C 
ATOM     12  C   UNL     1     -15.148   4.049  32.944  0.00  0.00    +0.029 C 
ATOM     13  C   UNL     1     -15.757   0.661  30.230  0.00  0.00    +0.009 C 
ATOM     14  C   UNL     1     -16.396   2.192  28.314  0.00  0.00    +0.076 C 
ATOM     15  C   UNL     1     -14.526   2.698  33.298  0.00  0.00    +0.007 C 
ATOM     16  C   UNL     1     -15.819   0.837  28.721  0.00  0.00    +0.023 C 
ATOM     17  C   UNL     1     -13.520   1.785  30.545  0.00  0.00    +0.011 C 
ATOM     19  C   UNL     1     -16.409   4.697  28.597  0.00  0.00    +0.010 C 
ENDROOT
BRANCH  14   4
ATOM      3  O   UNL     1     -18.559   1.896  26.438  0.00  0.00    -0.275 OA
ATOM      4  N   UNL     1     -16.318   2.311  26.872  0.00  0.00    -0.312 N 
ATOM     22  C   UNL     1     -17.422   2.149  26.051  0.00  0.00    +0.218 C 
ATOM     37  H   UNL     1     -15.400   2.455  26.461  0.00  0.00    +0.149 HD
BRANCH  22  23
ATOM     23  C   UNL     1     -17.056   2.332  24.591  0.00  0.00    +0.130 C 
BRANCH  23  26
ATOM     26  C   UNL     1     -16.725   3.757  24.232  0.00  0.00    -0.039 A 
ATOM     28  C   UNL     1     -15.463   4.075  23.732  0.00  0.00    +0.004 A 
ATOM     29  C   UNL     1     -17.681   4.758  24.400  0.00  0.00    +0.004 A 
ATOM     32  C   UNL     1     -15.156   5.394  23.399  0.00  0.00    +0.000 A 
ATOM     33  C   UNL     1     -17.375   6.078  24.068  0.00  0.00    +0.000 A 
ATOM     34  C   UNL     1     -16.113   6.396  23.567  0.00  0.00    +0.000 A 
ENDBRANCH  23  26
ENDBRANCH  22  23
ENDBRANCH  14   4
BRANCH  10   1
ATOM      1  O   UNL     1     -15.925   5.511  31.226  0.00  0.00    -0.391 OA
ATOM     38  H   UNL     1     -15.514   6.243  31.716  0.00  0.00    +0.210 HD
ENDBRANCH  10   1
BRANCH  12  18
ATOM     18  C   UNL     1     -14.455   5.158  33.745  0.00  0.00    +0.078 C 
ATOM     20  C   UNL     1     -14.180   4.665  35.166  0.00  0.00    +0.017 C 
BRANCH  18  21
ATOM      2  O   UNL     1     -16.549   6.302  33.946  0.00  0.00    -0.275 OA
ATOM      5  N   UNL     1     -14.711   7.646  33.536  0.00  0.00    -0.300 N 
ATOM     21  C   UNL     1     -15.332   6.413  33.759  0.00  0.00    +0.219 C 
ATOM     25  C   UNL     1     -15.522   8.859  33.521  0.00  0.00    +0.132 C 
BRANCH   5  24
ATOM     24  C   UNL     1     -13.279   7.868  33.342  0.00  0.00    +0.144 C 
BRANCH  24  27
ATOM      6  N   UNL     1     -11.422  10.301  35.562  0.00  0.00    -0.263 NA
ATOM     27  C   UNL     1     -12.633   8.465  34.559  0.00  0.00    -0.012 A 
ATOM     30  C   UNL     1     -12.627   7.788  35.773  0.00  0.00    +0.008 A 
ATOM     31  C   UNL     1     -12.023   9.708  34.507  0.00  0.00    +0.115 A 
ATOM     35  C   UNL     1     -12.019   8.366  36.882  0.00  0.00    +0.020 A 
ATOM     36  C   UNL     1     -11.437   9.613  36.726  0.00  0.00    +0.111 A 
ENDBRANCH  24  27
ENDBRANCH   5  24
ENDBRANCH  18  21
ENDBRANCH  12  18
TORSDOF 8
ENDMDL
MODEL 8
REMARK VINA RESULT:      -7.0     15.931     18.499
REMARK  Name = 45361530
REMARK  12 active torsions:
REMARK  status: ('A' for Active; 'I' for Inactive)
REMARK    1  A    between atoms: O_1  and  C_10
REMARK    2  A    between atoms: N_4  and  C_14
REMARK    3  A    between atoms: N_5  and  C_24
REMARK    4  A    between atoms: N_5  and  C_25
REMARK    5  A    between atoms: C_7  and  C_17
REMARK    6  A    between atoms: C_9  and  C_19
REMARK    7  A    between atoms: C_12  and  C_18
REMARK    8  A    between atoms: C_18  and  C_20
REMARK    9  A    between atoms: C_18  and  C_21
REMARK   10  A    between atoms: C_22  and  C_23
REMARK   11  A    between atoms: C_23  and  C_26
REMARK   12  A    between atoms: C_24  and  C_27
REMARK                            x       y       z     vdW  Elec       q    Type
REMARK                         _______ _______ _______ _____ _____    ______ ____
ROOT
ATOM      7  C   UNL     1       9.556   6.108   6.085  0.00  0.00    -0.027 C 
ATOM      8  C   UNL     1      10.526   7.212   5.546  0.00  0.00    +0.028 C 
ATOM      9  C   UNL     1      10.025   8.644   5.956  0.00  0.00    +0.012 C 
ATOM     10  C   UNL     1      10.819   7.014   4.031  0.00  0.00    +0.122 C 
ATOM     11  C   UNL     1      10.136   4.711   5.763  0.00  0.00    +0.007 C 
ATOM     12  C   UNL     1      11.301   5.583   3.701  0.00  0.00    +0.029 C 
ATOM     13  C   UNL     1       9.454   6.233   7.623  0.00  0.00    +0.009 C 
ATOM     14  C   UNL     1       9.854   8.733   7.499  0.00  0.00    +0.076 C 
ATOM     15  C   UNL     1      10.388   4.499   4.275  0.00  0.00    +0.007 C 
ATOM     16  C   UNL     1       8.998   7.610   8.081  0.00  0.00    +0.023 C 
ATOM     17  C   UNL     1       8.138   6.212   5.470  0.00  0.00    +0.011 C 
ATOM     19  C   UNL     1      10.949   9.779   5.483  0.00  0.00    +0.010 C 
ENDROOT
BRANCH  14   4
ATOM      3  O   UNL     1      11.067  10.703   9.211  0.00  0.00    -0.275 OA
ATOM      4  N   UNL     1       9.284  10.002   7.903  0.00  0.00    -0.312 N 
ATOM     22  C   UNL     1       9.950  10.886   8.736  0.00  0.00    +0.218 C 
ATOM     37  H   UNL     1       8.334  10.206   7.606  0.00  0.00    +0.149 HD
BRANCH  22  23
ATOM     23  C   UNL     1       9.127  12.134   8.989  0.00  0.00    +0.130 C 
BRANCH  23  26
ATOM     26  C   UNL     1       9.294  12.688  10.380  0.00  0.00    -0.039 A 
ATOM     28  C   UNL     1      10.075  13.824  10.587  0.00  0.00    +0.004 A 
ATOM     29  C   UNL     1       8.668  12.065  11.459  0.00  0.00    +0.004 A 
ATOM     32  C   UNL     1      10.230  14.337  11.875  0.00  0.00    +0.000 A 
ATOM     33  C   UNL     1       8.823  12.578  12.746  0.00  0.00    +0.000 A 
ATOM     34  C   UNL     1       9.604  13.715  12.955  0.00  0.00    +0.000 A 
ENDBRANCH  23  26
ENDBRANCH  22  23
ENDBRANCH  14   4
BRANCH  10   1
ATOM      1  O   UNL     1      11.865   7.900   3.629  0.00  0.00    -0.391 OA
ATOM     38  H   UNL     1      11.460   8.666   3.187  0.00  0.00    +0.210 HD
ENDBRANCH  10   1
BRANCH  12  18
ATOM     18  C   UNL     1      11.458   5.371   2.190  0.00  0.00    +0.078 C 
ATOM     20  C   UNL     1      10.167   4.781   1.620  0.00  0.00    +0.017 C 
BRANCH  18  21
ATOM      2  O   UNL     1      12.524   3.230   2.071  0.00  0.00    -0.275 OA
ATOM      5  N   UNL     1      13.854   5.041   1.519  0.00  0.00    -0.300 N 
ATOM     21  C   UNL     1      12.650   4.450   1.917  0.00  0.00    +0.219 C 
ATOM     25  C   UNL     1      15.016   4.193   1.273  0.00  0.00    +0.132 C 
BRANCH   5  24
ATOM     24  C   UNL     1      14.078   6.466   1.281  0.00  0.00    +0.144 C 
BRANCH  24  27
ATOM      6  N   UNL     1      17.139   8.246   2.608  0.00  0.00    -0.263 NA
ATOM     27  C   UNL     1      15.071   7.047   2.246  0.00  0.00    -0.012 A 
ATOM     30  C   UNL     1      14.881   6.945   3.620  0.00  0.00    +0.008 A 
ATOM     31  C   UNL     1      16.205   7.702   1.795  0.00  0.00    +0.115 A 
ATOM     35  C   UNL     1      15.819   7.492   4.488  0.00  0.00    +0.020 A 
ATOM     36  C   UNL     1      16.920   8.126   3.937  0.00  0.00    +0.111 A 
ENDBRANCH  24  27
ENDBRANCH   5  24
ENDBRANCH  18  21
ENDBRANCH  12  18
TORSDOF 8
ENDMDL
MODEL 9
REMARK VINA RESULT:      -6.9     29.422     34.120
REMARK  Name = 45361530
REMARK  12 active torsions:
REMARK  status: ('A' for Active; 'I' for Inactive)
REMARK    1  A    between atoms: O_1  and  C_10
REMARK    2  A    between atoms: N_4  and  C_14
REMARK    3  A    between atoms: N_5  and  C_24
REMARK    4  A    between atoms: N_5  and  C_25
REMARK    5  A    between atoms: C_7  and  C_17
REMARK    6  A    between atoms: C_9  and  C_19
REMARK    7  A    between atoms: C_12  and  C_18
REMARK    8  A    between atoms: C_18  and  C_20
REMARK    9  A    between atoms: C_18  and  C_21
REMARK   10  A    between atoms: C_22  and  C_23
REMARK   11  A    between atoms: C_23  and  C_26
REMARK   12  A    between atoms: C_24  and  C_27
REMARK                            x       y       z     vdW  Elec       q    Type
REMARK                         _______ _______ _______ _____ _____    ______ ____
ROOT
ATOM      7  C   UNL     1      -6.521 -11.729  18.695  0.00  0.00    -0.027 C 
ATOM      8  C   UNL     1      -7.149 -11.603  17.266  0.00  0.00    +0.028 C 
ATOM      9  C   UNL     1      -6.130 -10.951  16.265  0.00  0.00    +0.012 C 
ATOM     10  C   UNL     1      -8.552 -10.935  17.324  0.00  0.00    +0.122 C 
ATOM     11  C   UNL     1      -7.505 -12.477  19.626  0.00  0.00    +0.007 C 
ATOM     12  C   UNL     1      -9.498 -11.624  18.334  0.00  0.00    +0.029 C 
ATOM     13  C   UNL     1      -5.227 -12.570  18.605  0.00  0.00    +0.009 C 
ATOM     14  C   UNL     1      -4.804 -11.762  16.239  0.00  0.00    +0.076 C 
ATOM     15  C   UNL     1      -8.868 -11.803  19.716  0.00  0.00    +0.007 C 
ATOM     16  C   UNL     1      -4.211 -12.000  17.627  0.00  0.00    +0.023 C 
ATOM     17  C   UNL     1      -6.191 -10.351  19.322  0.00  0.00    +0.011 C 
ATOM     19  C   UNL     1      -6.672 -10.822  14.831  0.00  0.00    +0.010 C 
ENDROOT
BRANCH  14   4
ATOM      3  O   UNL     1      -3.023 -13.052  14.384  0.00  0.00    -0.275 OA
ATOM      4  N   UNL     1      -3.800 -11.124  15.413  0.00  0.00    -0.312 N 
ATOM     22  C   UNL     1      -2.986 -11.836  14.547  0.00  0.00    +0.218 C 
ATOM     37  H   UNL     1      -3.658 -10.125  15.533  0.00  0.00    +0.149 HD
BRANCH  22  23
ATOM     23  C   UNL     1      -2.033 -10.919  13.804  0.00  0.00    +0.130 C 
BRANCH  23  26
ATOM     26  C   UNL     1      -2.623 -10.336  12.547  0.00  0.00    -0.039 A 
ATOM     28  C   UNL     1      -4.001 -10.380  12.340  0.00  0.00    +0.004 A 
ATOM     29  C   UNL     1      -1.791  -9.753  11.592  0.00  0.00    +0.004 A 
ATOM     32  C   UNL     1      -4.549  -9.840  11.176  0.00  0.00    +0.000 A 
ATOM     33  C   UNL     1      -2.339  -9.213  10.428  0.00  0.00    +0.000 A 
ATOM     34  C   UNL     1      -3.717  -9.256  10.220  0.00  0.00    +0.000 A 
ENDBRANCH  23  26
ENDBRANCH  22  23
ENDBRANCH  14   4
BRANCH  10   1
ATOM      1  O   UNL     1      -9.179 -11.032  16.045  0.00  0.00    -0.391 OA
ATOM     38  H   UNL     1      -9.586 -10.173  15.841  0.00  0.00    +0.210 HD
ENDBRANCH  10   1
BRANCH  12  18
ATOM     18  C   UNL     1     -10.828 -10.872  18.472  0.00  0.00    +0.078 C 
ATOM     20  C   UNL     1     -11.421 -11.134  19.857  0.00  0.00    +0.017 C 
BRANCH  18  21
ATOM      2  O   UNL     1     -11.675 -12.445  16.878  0.00  0.00    -0.275 OA
ATOM      5  N   UNL     1     -12.763 -10.405  16.944  0.00  0.00    -0.300 N 
ATOM     21  C   UNL     1     -11.791 -11.317  17.368  0.00  0.00    +0.219 C 
ATOM     25  C   UNL     1     -13.683 -10.790  15.878  0.00  0.00    +0.132 C 
BRANCH   5  24
ATOM     24  C   UNL     1     -12.991  -9.070  17.493  0.00  0.00    +0.144 C 
BRANCH  24  27
ATOM      6  N   UNL     1     -12.712  -6.205  15.041  0.00  0.00    -0.263 NA
ATOM     27  C   UNL     1     -12.391  -7.998  16.631  0.00  0.00    -0.012 A 
ATOM     30  C   UNL     1     -11.016  -7.789  16.599  0.00  0.00    +0.008 A 
ATOM     31  C   UNL     1     -13.188  -7.186  15.841  0.00  0.00    +0.115 A 
ATOM     35  C   UNL     1     -10.489  -6.789  15.789  0.00  0.00    +0.020 A 
ATOM     36  C   UNL     1     -11.372  -6.032  15.037  0.00  0.00    +0.111 A 
ENDBRANCH  24  27
ENDBRANCH   5  24
ENDBRANCH  18  21
ENDBRANCH  12  18
TORSDOF 8
ENDMDL
MODEL 10
REMARK VINA RESULT:      -6.9     30.419     32.834
REMARK  Name = 45361530
REMARK  12 active torsions:
REMARK  status: ('A' for Active; 'I' for Inactive)
REMARK    1  A    between atoms: O_1  and  C_10
REMARK    2  A    between atoms: N_4  and  C_14
REMARK    3  A    between atoms: N_5  and  C_24
REMARK    4  A    between atoms: N_5  and  C_25
REMARK    5  A    between atoms: C_7  and  C_17
REMARK    6  A    between atoms: C_9  and  C_19
REMARK    7  A    between atoms: C_12  and  C_18
REMARK    8  A    between atoms: C_18  and  C_20
REMARK    9  A    between atoms: C_18  and  C_21
REMARK   10  A    between atoms: C_22  and  C_23
REMARK   11  A    between atoms: C_23  and  C_26
REMARK   12  A    between atoms: C_24  and  C_27
REMARK                            x       y       z     vdW  Elec       q    Type
REMARK                         _______ _______ _______ _____ _____    ______ ____
ROOT
ATOM      7  C   UNL     1      -5.423  -9.867   9.387  0.00  0.00    -0.027 C 
ATOM      8  C   UNL     1      -4.841 -11.259   9.806  0.00  0.00    +0.028 C 
ATOM      9  C   UNL     1      -4.110 -11.164  11.193  0.00  0.00    +0.012 C 
ATOM     10  C   UNL     1      -4.010 -11.891   8.653  0.00  0.00    +0.122 C 
ATOM     11  C   UNL     1      -6.232 -10.019   8.077  0.00  0.00    +0.007 C 
ATOM     12  C   UNL     1      -4.788 -11.945   7.319  0.00  0.00    +0.029 C 
ATOM     13  C   UNL     1      -6.395  -9.376  10.486  0.00  0.00    +0.009 C 
ATOM     14  C   UNL     1      -5.075 -10.598  12.273  0.00  0.00    +0.076 C 
ATOM     15  C   UNL     1      -5.409 -10.602   6.935  0.00  0.00    +0.007 C 
ATOM     16  C   UNL     1      -5.748  -9.290  11.860  0.00  0.00    +0.023 C 
ATOM     17  C   UNL     1      -4.319  -8.802   9.171  0.00  0.00    +0.011 C 
ATOM     19  C   UNL     1      -3.537 -12.506  11.680  0.00  0.00    +0.010 C 
ENDROOT
BRANCH  14   4
ATOM      3  O   UNL     1      -5.462 -12.093  14.701  0.00  0.00    -0.275 OA
ATOM      4  N   UNL     1      -4.401 -10.389  13.538  0.00  0.00    -0.312 N 
ATOM     22  C   UNL     1      -4.659 -11.166  14.656  0.00  0.00    +0.218 C 
ATOM     37  H   UNL     1      -3.766  -9.598  13.607  0.00  0.00    +0.149 HD
BRANCH  22  23
ATOM     23  C   UNL     1      -3.811 -10.733  15.836  0.00  0.00    +0.130 C 
BRANCH  23  26
ATOM     26  C   UNL     1      -4.500 -10.911  17.164  0.00  0.00    -0.039 A 
ATOM     28  C   UNL     1      -3.920 -11.713  18.147  0.00  0.00    +0.004 A 
ATOM     29  C   UNL     1      -5.716 -10.275  17.409  0.00  0.00    +0.004 A 
ATOM     32  C   UNL     1      -4.558 -11.879  19.376  0.00  0.00    +0.000 A 
ATOM     33  C   UNL     1      -6.353 -10.441  18.639  0.00  0.00    +0.000 A 
ATOM     34  C   UNL     1      -5.774 -11.242  19.623  0.00  0.00    +0.000 A 
ENDBRANCH  23  26
ENDBRANCH  22  23
ENDBRANCH  14   4
BRANCH  10   1
ATOM      1  O   UNL     1      -3.680 -13.240   8.988  0.00  0.00    -0.391 OA
ATOM     38  H   UNL     1      -4.347 -13.823   8.588  0.00  0.00    +0.210 HD
ENDBRANCH  10   1
BRANCH  12  18
ATOM     18  C   UNL     1      -3.909 -12.450   6.167  0.00  0.00    +0.078 C 
ATOM     20  C   UNL     1      -4.409 -11.861   4.848  0.00  0.00    +0.017 C 
BRANCH  18  21
ATOM      2  O   UNL     1      -4.987 -14.578   6.370  0.00  0.00    -0.275 OA
ATOM      5  N   UNL     1      -2.735 -14.644   5.841  0.00  0.00    -0.300 N 
ATOM     21  C   UNL     1      -3.932 -13.980   6.130  0.00  0.00    +0.219 C 
ATOM     25  C   UNL     1      -2.718 -16.103   5.820  0.00  0.00    +0.132 C 
BRANCH   5  24
ATOM     24  C   UNL     1      -1.458 -14.015   5.513  0.00  0.00    +0.144 C 
BRANCH  24  27
ATOM      6  N   UNL     1       0.541 -15.110   2.495  0.00  0.00    -0.263 NA
ATOM     27  C   UNL     1      -1.067 -14.249   4.082  0.00  0.00    -0.012 A 
ATOM     30  C   UNL     1      -1.894 -13.849   3.038  0.00  0.00    +0.008 A 
ATOM     31  C   UNL     1       0.129 -14.870   3.760  0.00  0.00    +0.115 A 
ATOM     35  C   UNL     1      -1.504 -14.079   1.723  0.00  0.00    +0.020 A 
ATOM     36  C   UNL     1      -0.289 -14.707   1.507  0.00  0.00    +0.111 A 
ENDBRANCH  24  27
ENDBRANCH   5  24
ENDBRANCH  18  21
ENDBRANCH  12  18
TORSDOF 8
ENDMDL
