MODEL 1
REMARK VINA RESULT:      -7.1      0.000      0.000
REMARK  Name = 7155428
REMARK  2 active torsions:
REMARK  status: ('A' for Active; 'I' for Inactive)
REMARK    1  A    between atoms: N_5  and  C_15
REMARK    2  A    between atoms: C_13  and  C_24
REMARK                            x       y       z     vdW  Elec       q    Type
REMARK                         _______ _______ _______ _____ _____    ______ ____
ROOT
ATOM      1  O   UNL     1      -6.811  -9.709  13.401  0.00  0.00    -0.253 OA
ATOM      2  O   UNL     1      -1.330 -11.911  13.108  0.00  0.00    -0.268 OA
ATOM      3  N   UNL     1      -6.343 -11.978  13.256  0.00  0.00    -0.285 N 
ATOM      4  N   UNL     1      -3.323 -12.461  14.209  0.00  0.00    -0.311 N 
ATOM      5  N   UNL     1      -6.239 -10.575  11.355  0.00  0.00    -0.296 N 
ATOM      6  C   UNL     1      -5.010 -14.098  13.190  0.00  0.00    +0.027 C 
ATOM      7  C   UNL     1      -5.489 -13.035  15.349  0.00  0.00    +0.054 C 
ATOM      8  C   UNL     1      -5.398 -14.378  14.631  0.00  0.00    +0.018 C 
ATOM      9  C   UNL     1      -6.049 -13.200  12.492  0.00  0.00    +0.114 C 
ATOM     10  C   UNL     1      -6.589 -12.185  14.686  0.00  0.00    +0.119 C 
ATOM     11  C   UNL     1      -3.616 -13.467  13.180  0.00  0.00    +0.130 C 
ATOM     12  C   UNL     1      -4.154 -12.284  15.333  0.00  0.00    +0.034 A 
ATOM     13  C   UNL     1      -3.769 -11.450  16.333  0.00  0.00    +0.002 A 
ATOM     14  C   UNL     1      -6.485 -10.686  12.718  0.00  0.00    +0.302 C 
ATOM     16  C   UNL     1      -2.102 -11.780  14.059  0.00  0.00    +0.252 A 
ATOM     22  C   UNL     1      -2.520 -10.725  16.211  0.00  0.00    +0.015 A 
ATOM     23  C   UNL     1      -1.725 -10.850  15.148  0.00  0.00    +0.071 A 
ATOM     30  H   UNL     1      -6.125 -11.397  10.782  0.00  0.00    +0.151 HD
ENDROOT
BRANCH   5  15
ATOM     15  C   UNL     1      -6.348  -9.315  10.654  0.00  0.00    +0.074 C 
ATOM     17  C   UNL     1      -4.967  -8.695  10.419  0.00  0.00    +0.022 C 
ATOM     18  C   UNL     1      -7.114  -9.482   9.338  0.00  0.00    +0.022 C 
ATOM     19  C   UNL     1      -4.161  -9.448   9.360  0.00  0.00    +0.002 C 
ATOM     20  C   UNL     1      -6.304 -10.233   8.281  0.00  0.00    +0.002 C 
ATOM     21  C   UNL     1      -4.939  -9.590   8.055  0.00  0.00    +0.000 C 
ENDBRANCH   5  15
BRANCH  13  24
ATOM     24  C   UNL     1      -4.602 -11.243  17.540  0.00  0.00    -0.016 A 
ATOM     25  C   UNL     1      -4.347 -11.983  18.689  0.00  0.00    +0.008 A 
ATOM     26  C   UNL     1      -5.635 -10.311  17.514  0.00  0.00    +0.008 A 
ATOM     27  C   UNL     1      -5.132 -11.789  19.826  0.00  0.00    +0.001 A 
ATOM     28  C   UNL     1      -6.420 -10.116  18.651  0.00  0.00    +0.001 A 
ATOM     29  C   UNL     1      -6.168 -10.855  19.807  0.00  0.00    +0.000 A 
ENDBRANCH  13  24
TORSDOF 2
ENDMDL
MODEL 2
REMARK VINA RESULT:      -6.8     23.737     26.918
REMARK  Name = 7155428
REMARK  2 active torsions:
REMARK  status: ('A' for Active; 'I' for Inactive)
REMARK    1  A    between atoms: N_5  and  C_15
REMARK    2  A    between atoms: C_13  and  C_24
REMARK                            x       y       z     vdW  Elec       q    Type
REMARK                         _______ _______ _______ _____ _____    ______ ____
ROOT
ATOM      1  O   UNL     1      12.800   8.822   6.153  0.00  0.00    -0.253 OA
ATOM      2  O   UNL     1       7.192   8.817   4.277  0.00  0.00    -0.268 OA
ATOM      3  N   UNL     1      11.173   7.380   6.966  0.00  0.00    -0.285 N 
ATOM      4  N   UNL     1       8.799   7.204   4.823  0.00  0.00    -0.311 N 
ATOM      5  N   UNL     1      11.285   9.634   7.672  0.00  0.00    -0.296 N 
ATOM      6  C   UNL     1       8.964   6.220   7.182  0.00  0.00    +0.027 C 
ATOM      7  C   UNL     1      10.543   5.504   5.446  0.00  0.00    +0.054 C 
ATOM      8  C   UNL     1       9.543   5.002   6.484  0.00  0.00    +0.018 C 
ATOM      9  C   UNL     1      10.064   7.049   7.873  0.00  0.00    +0.114 C 
ATOM     10  C   UNL     1      11.675   6.259   6.166  0.00  0.00    +0.119 C 
ATOM     11  C   UNL     1       8.193   7.046   6.151  0.00  0.00    +0.130 C 
ATOM     12  C   UNL     1       9.881   6.407   4.401  0.00  0.00    +0.034 A 
ATOM     13  C   UNL     1      10.315   6.481   3.116  0.00  0.00    +0.002 A 
ATOM     14  C   UNL     1      11.819   8.626   6.879  0.00  0.00    +0.302 C 
ATOM     16  C   UNL     1       8.151   8.111   3.966  0.00  0.00    +0.252 A 
ATOM     22  C   UNL     1       9.675   7.410   2.205  0.00  0.00    +0.015 A 
ATOM     23  C   UNL     1       8.668   8.197   2.581  0.00  0.00    +0.071 A 
ATOM     30  H   UNL     1      10.588   9.427   8.371  0.00  0.00    +0.151 HD
ENDROOT
BRANCH   5  15
ATOM     15  C   UNL     1      11.840  10.969   7.697  0.00  0.00    +0.074 C 
ATOM     17  C   UNL     1      10.966  11.943   6.901  0.00  0.00    +0.022 C 
ATOM     18  C   UNL     1      12.043  11.454   9.136  0.00  0.00    +0.022 C 
ATOM     19  C   UNL     1       9.648  12.258   7.608  0.00  0.00    +0.002 C 
ATOM     20  C   UNL     1      10.723  11.770   9.839  0.00  0.00    +0.002 C 
ATOM     21  C   UNL     1       9.877  12.750   9.033  0.00  0.00    +0.000 C 
ENDBRANCH   5  15
BRANCH  13  24
ATOM     24  C   UNL     1      11.438   5.652   2.623  0.00  0.00    -0.016 A 
ATOM     25  C   UNL     1      12.711   6.203   2.526  0.00  0.00    +0.008 A 
ATOM     26  C   UNL     1      11.211   4.328   2.259  0.00  0.00    +0.008 A 
ATOM     27  C   UNL     1      13.770   5.422   2.060  0.00  0.00    +0.001 A 
ATOM     28  C   UNL     1      12.269   3.547   1.794  0.00  0.00    +0.001 A 
ATOM     29  C   UNL     1      13.549   4.095   1.695  0.00  0.00    +0.000 A 
ENDBRANCH  13  24
TORSDOF 2
ENDMDL
MODEL 3
REMARK VINA RESULT:      -6.8     23.911     26.292
REMARK  Name = 7155428
REMARK  2 active torsions:
REMARK  status: ('A' for Active; 'I' for Inactive)
REMARK    1  A    between atoms: N_5  and  C_15
REMARK    2  A    between atoms: C_13  and  C_24
REMARK                            x       y       z     vdW  Elec       q    Type
REMARK                         _______ _______ _______ _____ _____    ______ ____
ROOT
ATOM      1  O   UNL     1       9.146   8.245   3.514  0.00  0.00    -0.253 OA
ATOM      2  O   UNL     1      13.751   6.885   6.965  0.00  0.00    -0.268 OA
ATOM      3  N   UNL     1       8.981   6.926   5.416  0.00  0.00    -0.285 N 
ATOM      4  N   UNL     1      11.516   7.508   7.286  0.00  0.00    -0.311 N 
ATOM      5  N   UNL     1       9.821   6.057   3.384  0.00  0.00    -0.296 N 
ATOM      6  C   UNL     1       9.658   5.761   7.528  0.00  0.00    +0.027 C 
ATOM      7  C   UNL     1       9.104   8.151   7.587  0.00  0.00    +0.054 C 
ATOM      8  C   UNL     1       8.948   6.831   8.338  0.00  0.00    +0.018 C 
ATOM      9  C   UNL     1       9.058   5.634   6.114  0.00  0.00    +0.114 C 
ATOM     10  C   UNL     1       8.427   8.027   6.210  0.00  0.00    +0.119 C 
ATOM     11  C   UNL     1      11.149   6.100   7.483  0.00  0.00    +0.130 C 
ATOM     12  C   UNL     1      10.574   8.547   7.424  0.00  0.00    +0.034 A 
ATOM     13  C   UNL     1      10.985   9.841   7.381  0.00  0.00    +0.002 A 
ATOM     14  C   UNL     1       9.306   7.152   4.067  0.00  0.00    +0.302 C 
ATOM     16  C   UNL     1      12.884   7.753   7.074  0.00  0.00    +0.252 A 
ATOM     22  C   UNL     1      12.387  10.133   7.157  0.00  0.00    +0.015 A 
ATOM     23  C   UNL     1      13.298   9.173   6.996  0.00  0.00    +0.071 A 
ATOM     30  H   UNL     1       9.805   5.137   3.796  0.00  0.00    +0.151 HD
ENDROOT
BRANCH   5  15
ATOM     15  C   UNL     1      10.199   6.128   1.990  0.00  0.00    +0.074 C 
ATOM     17  C   UNL     1      11.570   6.792   1.825  0.00  0.00    +0.022 C 
ATOM     18  C   UNL     1      10.172   4.741   1.341  0.00  0.00    +0.022 C 
ATOM     19  C   UNL     1      12.715   5.897   2.300  0.00  0.00    +0.002 C 
ATOM     20  C   UNL     1      11.319   3.849   1.817  0.00  0.00    +0.002 C 
ATOM     21  C   UNL     1      12.673   4.527   1.632  0.00  0.00    +0.000 C 
ENDBRANCH   5  15
BRANCH  13  24
ATOM     24  C   UNL     1      10.035  10.966   7.535  0.00  0.00    -0.016 A 
ATOM     25  C   UNL     1       9.513  11.589   6.407  0.00  0.00    +0.008 A 
ATOM     26  C   UNL     1       9.672  11.392   8.809  0.00  0.00    +0.008 A 
ATOM     27  C   UNL     1       8.619  12.650   6.553  0.00  0.00    +0.001 A 
ATOM     28  C   UNL     1       8.776  12.452   8.956  0.00  0.00    +0.001 A 
ATOM     29  C   UNL     1       8.250  13.081   7.827  0.00  0.00    +0.000 A 
ENDBRANCH  13  24
TORSDOF 2
ENDMDL
MODEL 4
REMARK VINA RESULT:      -6.7     24.070     27.172
REMARK  Name = 7155428
REMARK  2 active torsions:
REMARK  status: ('A' for Active; 'I' for Inactive)
REMARK    1  A    between atoms: N_5  and  C_15
REMARK    2  A    between atoms: C_13  and  C_24
REMARK                            x       y       z     vdW  Elec       q    Type
REMARK                         _______ _______ _______ _____ _____    ______ ____
ROOT
ATOM      1  O   UNL     1       9.727  10.147   5.377  0.00  0.00    -0.253 OA
ATOM      2  O   UNL     1      10.899   5.455   8.780  0.00  0.00    -0.268 OA
ATOM      3  N   UNL     1      11.875   9.389   5.826  0.00  0.00    -0.285 N 
ATOM      4  N   UNL     1      11.703   6.330   6.761  0.00  0.00    -0.311 N 
ATOM      5  N   UNL     1      10.659  10.653   7.411  0.00  0.00    -0.296 N 
ATOM      6  C   UNL     1      13.710   7.921   6.693  0.00  0.00    +0.027 C 
ATOM      7  C   UNL     1      12.557   7.317   4.613  0.00  0.00    +0.054 C 
ATOM      8  C   UNL     1      13.922   7.372   5.294  0.00  0.00    +0.018 C 
ATOM      9  C   UNL     1      13.087   9.330   6.656  0.00  0.00    +0.114 C 
ATOM     10  C   UNL     1      11.990   8.745   4.513  0.00  0.00    +0.119 C 
ATOM     11  C   UNL     1      12.836   6.935   7.472  0.00  0.00    +0.130 C 
ATOM     12  C   UNL     1      11.579   6.407   5.360  0.00  0.00    +0.034 A 
ATOM     13  C   UNL     1      10.599   5.709   4.729  0.00  0.00    +0.002 A 
ATOM     14  C   UNL     1      10.687  10.067   6.152  0.00  0.00    +0.302 C 
ATOM     16  C   UNL     1      10.826   5.571   7.556  0.00  0.00    +0.252 A 
ATOM     22  C   UNL     1       9.671   4.920   5.516  0.00  0.00    +0.015 A 
ATOM     23  C   UNL     1       9.746   4.849   6.845  0.00  0.00    +0.071 A 
ATOM     30  H   UNL     1      11.495  10.714   7.971  0.00  0.00    +0.151 HD
ENDROOT
BRANCH   5  15
ATOM     15  C   UNL     1       9.511  11.390   7.892  0.00  0.00    +0.074 C 
ATOM     17  C   UNL     1       9.206  11.042   9.352  0.00  0.00    +0.022 C 
ATOM     18  C   UNL     1       9.709  12.898   7.710  0.00  0.00    +0.022 C 
ATOM     19  C   UNL     1      10.238  11.621  10.320  0.00  0.00    +0.002 C 
ATOM     20  C   UNL     1      10.740  13.474   8.680  0.00  0.00    +0.002 C 
ATOM     21  C   UNL     1      10.408  13.125  10.127  0.00  0.00    +0.000 C 
ENDBRANCH   5  15
BRANCH  13  24
ATOM     24  C   UNL     1      10.438   5.746   3.258  0.00  0.00    -0.016 A 
ATOM     25  C   UNL     1       9.798   6.827   2.661  0.00  0.00    +0.008 A 
ATOM     26  C   UNL     1      10.929   4.699   2.483  0.00  0.00    +0.008 A 
ATOM     27  C   UNL     1       9.646   6.862   1.275  0.00  0.00    +0.001 A 
ATOM     28  C   UNL     1      10.777   4.734   1.097  0.00  0.00    +0.001 A 
ATOM     29  C   UNL     1      10.136   5.816   0.493  0.00  0.00    +0.000 A 
ENDBRANCH  13  24
TORSDOF 2
ENDMDL
MODEL 5
REMARK VINA RESULT:      -6.6      2.987      6.907
REMARK  Name = 7155428
REMARK  2 active torsions:
REMARK  status: ('A' for Active; 'I' for Inactive)
REMARK    1  A    between atoms: N_5  and  C_15
REMARK    2  A    between atoms: C_13  and  C_24
REMARK                            x       y       z     vdW  Elec       q    Type
REMARK                         _______ _______ _______ _____ _____    ______ ____
ROOT
ATOM      1  O   UNL     1      -7.903  -9.834  15.623  0.00  0.00    -0.253 OA
ATOM      2  O   UNL     1      -6.032 -15.318  16.804  0.00  0.00    -0.268 OA
ATOM      3  N   UNL     1      -6.173 -10.314  17.095  0.00  0.00    -0.285 N 
ATOM      4  N   UNL     1      -5.038 -13.232  16.421  0.00  0.00    -0.311 N 
ATOM      5  N   UNL     1      -8.436 -10.592  17.721  0.00  0.00    -0.296 N 
ATOM      6  C   UNL     1      -4.464 -11.647  18.350  0.00  0.00    +0.027 C 
ATOM      7  C   UNL     1      -4.012 -10.970  16.035  0.00  0.00    +0.054 C 
ATOM      8  C   UNL     1      -3.384 -11.127  17.417  0.00  0.00    +0.018 C 
ATOM      9  C   UNL     1      -5.658 -10.676  18.424  0.00  0.00    +0.114 C 
ATOM     10  C   UNL     1      -5.150  -9.937  16.115  0.00  0.00    +0.119 C 
ATOM     11  C   UNL     1      -4.889 -13.036  17.869  0.00  0.00    +0.130 C 
ATOM     12  C   UNL     1      -4.539 -12.301  15.490  0.00  0.00    +0.034 A 
ATOM     13  C   UNL     1      -4.564 -12.592  14.163  0.00  0.00    +0.002 A 
ATOM     14  C   UNL     1      -7.530 -10.222  16.736  0.00  0.00    +0.302 C 
ATOM     16  C   UNL     1      -5.599 -14.462  16.033  0.00  0.00    +0.252 A 
ATOM     22  C   UNL     1      -5.141 -13.848  13.724  0.00  0.00    +0.015 A 
ATOM     23  C   UNL     1      -5.646 -14.737  14.578  0.00  0.00    +0.071 A 
ATOM     30  H   UNL     1      -8.131 -10.759  18.668  0.00  0.00    +0.151 HD
ENDROOT
BRANCH   5  15
ATOM     15  C   UNL     1      -9.866 -10.549  17.508  0.00  0.00    +0.074 C 
ATOM     17  C   UNL     1     -10.462 -11.960  17.483  0.00  0.00    +0.022 C 
ATOM     18  C   UNL     1     -10.553  -9.674  18.560  0.00  0.00    +0.022 C 
ATOM     19  C   UNL     1     -10.483 -12.610  18.867  0.00  0.00    +0.002 C 
ATOM     20  C   UNL     1     -10.574 -10.328  19.942  0.00  0.00    +0.002 C 
ATOM     21  C   UNL     1     -11.183 -11.726  19.894  0.00  0.00    +0.000 C 
ENDBRANCH   5  15
BRANCH  13  24
ATOM     24  C   UNL     1      -4.038 -11.652  13.149  0.00  0.00    -0.016 A 
ATOM     25  C   UNL     1      -2.680 -11.648  12.850  0.00  0.00    +0.008 A 
ATOM     26  C   UNL     1      -4.906 -10.777  12.502  0.00  0.00    +0.008 A 
ATOM     27  C   UNL     1      -2.183 -10.761  11.894  0.00  0.00    +0.001 A 
ATOM     28  C   UNL     1      -4.410  -9.890  11.546  0.00  0.00    +0.001 A 
ATOM     29  C   UNL     1      -3.049  -9.882  11.242  0.00  0.00    +0.000 A 
ENDBRANCH  13  24
TORSDOF 2
ENDMDL
MODEL 6
REMARK VINA RESULT:      -6.4     24.202     27.283
REMARK  Name = 7155428
REMARK  2 active torsions:
REMARK  status: ('A' for Active; 'I' for Inactive)
REMARK    1  A    between atoms: N_5  and  C_15
REMARK    2  A    between atoms: C_13  and  C_24
REMARK                            x       y       z     vdW  Elec       q    Type
REMARK                         _______ _______ _______ _____ _____    ______ ____
ROOT
ATOM      1  O   UNL     1      11.737   8.076   2.696  0.00  0.00    -0.253 OA
ATOM      2  O   UNL     1      10.219  10.016   8.071  0.00  0.00    -0.268 OA
ATOM      3  N   UNL     1      10.624   6.777   4.265  0.00  0.00    -0.285 N 
ATOM      4  N   UNL     1       9.225   8.720   6.392  0.00  0.00    -0.311 N 
ATOM      5  N   UNL     1      12.951   7.165   4.416  0.00  0.00    -0.296 N 
ATOM      6  C   UNL     1       9.423   6.166   6.376  0.00  0.00    +0.027 C 
ATOM      7  C   UNL     1       8.206   7.309   4.579  0.00  0.00    +0.054 C 
ATOM      8  C   UNL     1       8.102   6.207   5.629  0.00  0.00    +0.018 C 
ATOM      9  C   UNL     1      10.599   5.874   5.425  0.00  0.00    +0.114 C 
ATOM     10  C   UNL     1       9.333   6.956   3.591  0.00  0.00    +0.119 C 
ATOM     11  C   UNL     1       9.604   7.496   7.110  0.00  0.00    +0.130 C 
ATOM     12  C   UNL     1       8.461   8.681   5.210  0.00  0.00    +0.034 A 
ATOM     13  C   UNL     1       8.006   9.837   4.660  0.00  0.00    +0.002 A 
ATOM     14  C   UNL     1      11.768   7.388   3.722  0.00  0.00    +0.302 C 
ATOM     16  C   UNL     1       9.570   9.926   7.029  0.00  0.00    +0.252 A 
ATOM     22  C   UNL     1       8.347  11.101   5.284  0.00  0.00    +0.015 A 
ATOM     23  C   UNL     1       9.091  11.172   6.388  0.00  0.00    +0.071 A 
ATOM     30  H   UNL     1      12.994   6.484   5.158  0.00  0.00    +0.151 HD
ENDROOT
BRANCH   5  15
ATOM     15  C   UNL     1      14.214   7.722   3.983  0.00  0.00    +0.074 C 
ATOM     17  C   UNL     1      14.177   9.253   4.005  0.00  0.00    +0.022 C 
ATOM     18  C   UNL     1      15.372   7.181   4.828  0.00  0.00    +0.022 C 
ATOM     19  C   UNL     1      14.183   9.818   5.426  0.00  0.00    +0.002 C 
ATOM     20  C   UNL     1      15.376   7.749   6.247  0.00  0.00    +0.002 C 
ATOM     21  C   UNL     1      15.352   9.275   6.243  0.00  0.00    +0.000 C 
ENDBRANCH   5  15
BRANCH  13  24
ATOM     24  C   UNL     1       7.188   9.845   3.427  0.00  0.00    -0.016 A 
ATOM     25  C   UNL     1       7.805   9.709   2.188  0.00  0.00    +0.008 A 
ATOM     26  C   UNL     1       5.806   9.990   3.517  0.00  0.00    +0.008 A 
ATOM     27  C   UNL     1       7.033   9.718   1.026  0.00  0.00    +0.001 A 
ATOM     28  C   UNL     1       5.034   9.997   2.355  0.00  0.00    +0.001 A 
ATOM     29  C   UNL     1       5.648   9.862   1.109  0.00  0.00    +0.000 A 
ENDBRANCH  13  24
TORSDOF 2
ENDMDL
MODEL 7
REMARK VINA RESULT:      -6.2      3.505      6.275
REMARK  Name = 7155428
REMARK  2 active torsions:
REMARK  status: ('A' for Active; 'I' for Inactive)
REMARK    1  A    between atoms: N_5  and  C_15
REMARK    2  A    between atoms: C_13  and  C_24
REMARK                            x       y       z     vdW  Elec       q    Type
REMARK                         _______ _______ _______ _____ _____    ______ ____
ROOT
ATOM      1  O   UNL     1      -7.920  -9.491  14.875  0.00  0.00    -0.253 OA
ATOM      2  O   UNL     1      -7.402 -14.922  17.157  0.00  0.00    -0.268 OA
ATOM      3  N   UNL     1      -7.345  -9.908  17.085  0.00  0.00    -0.285 N 
ATOM      4  N   UNL     1      -6.226 -12.902  17.303  0.00  0.00    -0.311 N 
ATOM      5  N   UNL     1      -9.584 -10.072  16.344  0.00  0.00    -0.296 N 
ATOM      6  C   UNL     1      -6.723 -11.192  19.145  0.00  0.00    +0.027 C 
ATOM      7  C   UNL     1      -5.010 -10.707  17.456  0.00  0.00    +0.054 C 
ATOM      8  C   UNL     1      -5.274 -10.776  18.957  0.00  0.00    +0.018 C 
ATOM      9  C   UNL     1      -7.686 -10.184  18.489  0.00  0.00    +0.114 C 
ATOM     10  C   UNL     1      -5.926  -9.637  16.834  0.00  0.00    +0.119 C 
ATOM     11  C   UNL     1      -6.899 -12.600  18.573  0.00  0.00    +0.130 C 
ATOM     12  C   UNL     1      -5.230 -12.059  16.771  0.00  0.00    +0.034 A 
ATOM     13  C   UNL     1      -4.530 -12.449  15.675  0.00  0.00    +0.002 A 
ATOM     14  C   UNL     1      -8.259  -9.804  16.022  0.00  0.00    +0.302 C 
ATOM     16  C   UNL     1      -6.555 -14.141  16.724  0.00  0.00    +0.252 A 
ATOM     22  C   UNL     1      -4.845 -13.717  15.046  0.00  0.00    +0.015 A 
ATOM     23  C   UNL     1      -5.800 -14.524  15.509  0.00  0.00    +0.071 A 
ATOM     30  H   UNL     1      -9.872 -10.174  17.305  0.00  0.00    +0.151 HD
ENDROOT
BRANCH   5  15
ATOM     15  C   UNL     1     -10.643 -10.002  15.362  0.00  0.00    +0.074 C 
ATOM     17  C   UNL     1     -11.869 -10.802  15.817  0.00  0.00    +0.022 C 
ATOM     18  C   UNL     1     -11.012  -8.548  15.051  0.00  0.00    +0.022 C 
ATOM     19  C   UNL     1     -12.614 -10.124  16.967  0.00  0.00    +0.002 C 
ATOM     20  C   UNL     1     -11.759  -7.875  16.203  0.00  0.00    +0.002 C 
ATOM     21  C   UNL     1     -12.981  -8.683  16.630  0.00  0.00    +0.000 C 
ENDBRANCH   5  15
BRANCH  13  24
ATOM     24  C   UNL     1      -3.464 -11.605  15.089  0.00  0.00    -0.016 A 
ATOM     25  C   UNL     1      -2.377 -11.226  15.869  0.00  0.00    +0.008 A 
ATOM     26  C   UNL     1      -3.559 -11.195  13.763  0.00  0.00    +0.008 A 
ATOM     27  C   UNL     1      -1.373 -10.430  15.317  0.00  0.00    +0.001 A 
ATOM     28  C   UNL     1      -2.556 -10.399  13.210  0.00  0.00    +0.001 A 
ATOM     29  C   UNL     1      -1.463 -10.016  13.988  0.00  0.00    +0.000 A 
ENDBRANCH  13  24
TORSDOF 2
ENDMDL
MODEL 8
REMARK VINA RESULT:      -6.2     24.815     27.365
REMARK  Name = 7155428
REMARK  2 active torsions:
REMARK  status: ('A' for Active; 'I' for Inactive)
REMARK    1  A    between atoms: N_5  and  C_15
REMARK    2  A    between atoms: C_13  and  C_24
REMARK                            x       y       z     vdW  Elec       q    Type
REMARK                         _______ _______ _______ _____ _____    ______ ____
ROOT
ATOM      1  O   UNL     1       9.469   4.888  -0.674  0.00  0.00    -0.253 OA
ATOM      2  O   UNL     1      14.575   7.871  -0.687  0.00  0.00    -0.268 OA
ATOM      3  N   UNL     1      11.526   3.917  -0.212  0.00  0.00    -0.285 N 
ATOM      4  N   UNL     1      13.575   6.225   0.647  0.00  0.00    -0.311 N 
ATOM      5  N   UNL     1      10.859   4.391  -2.430  0.00  0.00    -0.296 N 
ATOM      6  C   UNL     1      13.985   3.730   0.231  0.00  0.00    +0.027 C 
ATOM      7  C   UNL     1      12.479   4.438   2.035  0.00  0.00    +0.054 C 
ATOM      8  C   UNL     1      13.699   3.578   1.714  0.00  0.00    +0.018 C 
ATOM      9  C   UNL     1      12.785   3.277  -0.623  0.00  0.00    +0.114 C 
ATOM     10  C   UNL     1      11.273   3.917   1.232  0.00  0.00    +0.119 C 
ATOM     11  C   UNL     1      14.356   5.190  -0.042  0.00  0.00    +0.130 C 
ATOM     12  C   UNL     1      12.724   5.918   1.727  0.00  0.00    +0.034 A 
ATOM     13  C   UNL     1      12.136   6.921   2.429  0.00  0.00    +0.002 A 
ATOM     14  C   UNL     1      10.545   4.432  -1.077  0.00  0.00    +0.302 C 
ATOM     16  C   UNL     1      13.828   7.546   0.237  0.00  0.00    +0.252 A 
ATOM     22  C   UNL     1      12.368   8.296   2.032  0.00  0.00    +0.015 A 
ATOM     23  C   UNL     1      13.146   8.617   0.998  0.00  0.00    +0.071 A 
ATOM     30  H   UNL     1      11.666   3.882  -2.758  0.00  0.00    +0.151 HD
ENDROOT
BRANCH   5  15
ATOM     15  C   UNL     1       9.952   4.878  -3.446  0.00  0.00    +0.074 C 
ATOM     17  C   UNL     1      10.719   5.539  -4.597  0.00  0.00    +0.022 C 
ATOM     18  C   UNL     1       9.043   3.756  -3.955  0.00  0.00    +0.022 C 
ATOM     19  C   UNL     1      11.465   4.522  -5.462  0.00  0.00    +0.002 C 
ATOM     20  C   UNL     1       9.791   2.743  -4.821  0.00  0.00    +0.002 C 
ATOM     21  C   UNL     1      10.536   3.422  -5.966  0.00  0.00    +0.000 C 
ENDBRANCH   5  15
BRANCH  13  24
ATOM     24  C   UNL     1      11.247   6.649   3.581  0.00  0.00    -0.016 A 
ATOM     25  C   UNL     1      11.792   6.462   4.846  0.00  0.00    +0.008 A 
ATOM     26  C   UNL     1       9.870   6.580   3.388  0.00  0.00    +0.008 A 
ATOM     27  C   UNL     1      10.954   6.204   5.931  0.00  0.00    +0.001 A 
ATOM     28  C   UNL     1       9.031   6.323   4.472  0.00  0.00    +0.001 A 
ATOM     29  C   UNL     1       9.573   6.135   5.744  0.00  0.00    +0.000 A 
ENDBRANCH  13  24
TORSDOF 2
ENDMDL
MODEL 9
REMARK VINA RESULT:      -6.2     21.348     24.334
REMARK  Name = 7155428
REMARK  2 active torsions:
REMARK  status: ('A' for Active; 'I' for Inactive)
REMARK    1  A    between atoms: N_5  and  C_15
REMARK    2  A    between atoms: C_13  and  C_24
REMARK                            x       y       z     vdW  Elec       q    Type
REMARK                         _______ _______ _______ _____ _____    ______ ____
ROOT
ATOM      1  O   UNL     1      -3.825   9.827   0.590  0.00  0.00    -0.253 OA
ATOM      2  O   UNL     1      -8.626   7.465   3.108  0.00  0.00    -0.268 OA
ATOM      3  N   UNL     1      -5.474  11.079   1.641  0.00  0.00    -0.285 N 
ATOM      4  N   UNL     1      -7.099   9.164   3.628  0.00  0.00    -0.311 N 
ATOM      5  N   UNL     1      -5.784  10.217  -0.539  0.00  0.00    -0.296 N 
ATOM      6  C   UNL     1      -7.531  11.602   2.971  0.00  0.00    +0.027 C 
ATOM      7  C   UNL     1      -5.457  10.998   4.135  0.00  0.00    +0.054 C 
ATOM      8  C   UNL     1      -6.662  11.934   4.171  0.00  0.00    +0.018 C 
ATOM      9  C   UNL     1      -6.761  11.790   1.650  0.00  0.00    +0.114 C 
ATOM     10  C   UNL     1      -4.658  11.260   2.846  0.00  0.00    +0.119 C 
ATOM     11  C   UNL     1      -8.046  10.170   3.129  0.00  0.00    +0.130 C 
ATOM     12  C   UNL     1      -5.872   9.526   4.216  0.00  0.00    +0.034 A 
ATOM     13  C   UNL     1      -5.095   8.576   4.798  0.00  0.00    +0.002 A 
ATOM     14  C   UNL     1      -4.951  10.338   0.567  0.00  0.00    +0.302 C 
ATOM     16  C   UNL     1      -7.555   7.834   3.591  0.00  0.00    +0.252 A 
ATOM     22  C   UNL     1      -5.528   7.193   4.774  0.00  0.00    +0.015 A 
ATOM     23  C   UNL     1      -6.671   6.815   4.202  0.00  0.00    +0.071 A 
ATOM     30  H   UNL     1      -6.630  10.761  -0.610  0.00  0.00    +0.151 HD
ENDROOT
BRANCH   5  15
ATOM     15  C   UNL     1      -5.389   9.490  -1.725  0.00  0.00    +0.074 C 
ATOM     17  C   UNL     1      -6.545   8.639  -2.259  0.00  0.00    +0.022 C 
ATOM     18  C   UNL     1      -4.854  10.440  -2.801  0.00  0.00    +0.022 C 
ATOM     19  C   UNL     1      -7.647   9.485  -2.898  0.00  0.00    +0.002 C 
ATOM     20  C   UNL     1      -5.959  11.283  -3.438  0.00  0.00    +0.002 C 
ATOM     21  C   UNL     1      -7.092  10.413  -3.974  0.00  0.00    +0.000 C 
ENDBRANCH   5  15
BRANCH  13  24
ATOM     24  C   UNL     1      -3.804   8.911   5.440  0.00  0.00    -0.016 A 
ATOM     25  C   UNL     1      -3.792   9.561   6.669  0.00  0.00    +0.008 A 
ATOM     26  C   UNL     1      -2.610   8.573   4.809  0.00  0.00    +0.008 A 
ATOM     27  C   UNL     1      -2.576   9.878   7.274  0.00  0.00    +0.001 A 
ATOM     28  C   UNL     1      -1.394   8.888   5.414  0.00  0.00    +0.001 A 
ATOM     29  C   UNL     1      -1.377   9.541   6.647  0.00  0.00    +0.000 A 
ENDBRANCH  13  24
TORSDOF 2
ENDMDL
MODEL 10
REMARK VINA RESULT:      -6.0     20.136     23.746
REMARK  Name = 7155428
REMARK  2 active torsions:
REMARK  status: ('A' for Active; 'I' for Inactive)
REMARK    1  A    between atoms: N_5  and  C_15
REMARK    2  A    between atoms: C_13  and  C_24
REMARK                            x       y       z     vdW  Elec       q    Type
REMARK                         _______ _______ _______ _____ _____    ______ ____
ROOT
ATOM      1  O   UNL     1      11.696  -9.959  30.605  0.00  0.00    -0.253 OA
ATOM      2  O   UNL     1       7.255  -6.946  33.089  0.00  0.00    -0.268 OA
ATOM      3  N   UNL     1      10.829 -10.443  32.703  0.00  0.00    -0.285 N 
ATOM      4  N   UNL     1       7.886  -9.194  32.905  0.00  0.00    -0.311 N 
ATOM      5  N   UNL     1      12.314  -8.633  32.372  0.00  0.00    -0.296 N 
ATOM      6  C   UNL     1       9.318 -10.336  34.697  0.00  0.00    +0.027 C 
ATOM      7  C   UNL     1       8.614 -11.592  32.710  0.00  0.00    +0.054 C 
ATOM      8  C   UNL     1       8.631 -11.609  34.237  0.00  0.00    +0.018 C 
ATOM      9  C   UNL     1      10.758 -10.247  34.158  0.00  0.00    +0.114 C 
ATOM     10  C   UNL     1      10.064 -11.585  32.193  0.00  0.00    +0.119 C 
ATOM     11  C   UNL     1       8.470  -9.142  34.252  0.00  0.00    +0.130 C 
ATOM     12  C   UNL     1       7.846 -10.388  32.159  0.00  0.00    +0.034 A 
ATOM     13  C   UNL     1       7.166 -10.427  30.983  0.00  0.00    +0.002 A 
ATOM     14  C   UNL     1      11.617  -9.696  31.810  0.00  0.00    +0.302 C 
ATOM     16  C   UNL     1       7.267  -8.010  32.469  0.00  0.00    +0.252 A 
ATOM     22  C   UNL     1       6.520  -9.224  30.498  0.00  0.00    +0.015 A 
ATOM     23  C   UNL     1       6.563  -8.072  31.167  0.00  0.00    +0.071 A 
ATOM     30  H   UNL     1      12.365  -8.520  33.373  0.00  0.00    +0.151 HD
ENDROOT
BRANCH   5  15
ATOM     15  C   UNL     1      13.171  -7.773  31.586  0.00  0.00    +0.074 C 
ATOM     17  C   UNL     1      12.377  -6.613  30.977  0.00  0.00    +0.022 C 
ATOM     18  C   UNL     1      14.351  -7.263  32.419  0.00  0.00    +0.022 C 
ATOM     19  C   UNL     1      11.957  -5.580  32.023  0.00  0.00    +0.002 C 
ATOM     20  C   UNL     1      13.927  -6.228  33.462  0.00  0.00    +0.002 C 
ATOM     21  C   UNL     1      13.150  -5.078  32.830  0.00  0.00    +0.000 C 
ENDBRANCH   5  15
BRANCH  13  24
ATOM     24  C   UNL     1       7.084 -11.662  30.171  0.00  0.00    -0.016 A 
ATOM     25  C   UNL     1       6.079 -12.589  30.426  0.00  0.00    +0.008 A 
ATOM     26  C   UNL     1       8.013 -11.886  29.160  0.00  0.00    +0.008 A 
ATOM     27  C   UNL     1       6.002 -13.754  29.661  0.00  0.00    +0.001 A 
ATOM     28  C   UNL     1       7.935 -13.050  28.395  0.00  0.00    +0.001 A 
ATOM     29  C   UNL     1       6.930 -13.984  28.646  0.00  0.00    +0.000 A 
ENDBRANCH  13  24
TORSDOF 2
ENDMDL
