MODEL 1
REMARK VINA RESULT:      -7.6      0.000      0.000
REMARK  Name = 26763569
REMARK  1 active torsions:
REMARK  status: ('A' for Active; 'I' for Inactive)
REMARK    1  A    between atoms: C_16  and  C_19
REMARK                            x       y       z     vdW  Elec       q    Type
REMARK                         _______ _______ _______ _____ _____    ______ ____
ROOT
ATOM      1 BR   UNL     1      22.111   5.509  23.453  0.00  0.00    -0.050 Br
ATOM      2  O   UNL     1      16.163  10.320  20.307  0.00  0.00    -0.273 OA
ATOM      3  O   UNL     1      18.343   5.543  19.698  0.00  0.00    -0.270 OA
ATOM      4  O   UNL     1      12.204   9.475  20.427  0.00  0.00    -0.270 OA
ATOM      5  N   UNL     1      16.678   7.067  20.205  0.00  0.00    -0.283 N 
ATOM      6  N   UNL     1      14.069   8.251  19.731  0.00  0.00    -0.294 N 
ATOM      7  N   UNL     1      18.139   9.489  21.072  0.00  0.00    -0.283 N 
ATOM      9  C   UNL     1      16.136   8.052  21.131  0.00  0.00    +0.180 C 
ATOM     10  C   UNL     1      14.605   8.125  21.088  0.00  0.00    +0.140 C 
ATOM     11  C   UNL     1      15.771   6.532  19.188  0.00  0.00    +0.128 C 
ATOM     12  C   UNL     1      14.827   7.601  18.657  0.00  0.00    +0.127 C 
ATOM     13  C   UNL     1      16.799   9.371  20.768  0.00  0.00    +0.239 C 
ATOM     14  C   UNL     1      17.943   6.508  20.353  0.00  0.00    +0.249 C 
ATOM     15  C   UNL     1      18.890   7.114  21.328  0.00  0.00    +0.059 A 
ATOM     16  C   UNL     1      12.856   8.923  19.543  0.00  0.00    +0.248 C 
ATOM     17  C   UNL     1      19.015   8.494  21.554  0.00  0.00    +0.046 A 
ATOM     18  C   UNL     1      19.820   6.232  21.908  0.00  0.00    +0.030 A 
ATOM     20  C   UNL     1      20.112   8.963  22.298  0.00  0.00    +0.025 A 
ATOM     21  C   UNL     1      20.874   6.713  22.684  0.00  0.00    +0.019 A 
ATOM     22  C   UNL     1      21.029   8.080  22.867  0.00  0.00    +0.017 A 
ATOM     27  H   UNL     1      18.514  10.433  21.034  0.00  0.00    +0.155 HD
ENDROOT
BRANCH  16  19
ATOM      8  N   UNL     1      10.565   8.350  16.626  0.00  0.00    -0.263 NA
ATOM     19  C   UNL     1      12.304   8.984  18.180  0.00  0.00    +0.055 A 
ATOM     23  C   UNL     1      12.950   9.698  17.177  0.00  0.00    +0.016 A 
ATOM     24  C   UNL     1      11.125   8.333  17.856  0.00  0.00    +0.123 A 
ATOM     25  C   UNL     1      12.404   9.739  15.899  0.00  0.00    +0.020 A 
ATOM     26  C   UNL     1      11.221   9.055  15.677  0.00  0.00    +0.111 A 
ENDBRANCH  16  19
TORSDOF 1
ENDMDL
MODEL 2
REMARK VINA RESULT:      -6.8     27.885     31.413
REMARK  Name = 26763569
REMARK  1 active torsions:
REMARK  status: ('A' for Active; 'I' for Inactive)
REMARK    1  A    between atoms: C_16  and  C_19
REMARK                            x       y       z     vdW  Elec       q    Type
REMARK                         _______ _______ _______ _____ _____    ______ ____
ROOT
ATOM      1 BR   UNL     1     -14.384  -9.286  20.838  0.00  0.00    -0.050 Br
ATOM      2  O   UNL     1      -7.478 -13.232  18.567  0.00  0.00    -0.273 OA
ATOM      3  O   UNL     1     -10.338  -8.942  17.402  0.00  0.00    -0.270 OA
ATOM      4  O   UNL     1      -3.735 -11.728  18.924  0.00  0.00    -0.270 OA
ATOM      5  N   UNL     1      -8.501 -10.126  18.160  0.00  0.00    -0.283 N 
ATOM      6  N   UNL     1      -5.703 -10.885  17.988  0.00  0.00    -0.294 N 
ATOM      7  N   UNL     1      -9.623 -12.695  19.106  0.00  0.00    -0.283 N 
ATOM      9  C   UNL     1      -7.893 -10.941  19.202  0.00  0.00    +0.180 C 
ATOM     10  C   UNL     1      -6.372 -10.759  19.284  0.00  0.00    +0.140 C 
ATOM     11  C   UNL     1      -7.605  -9.517  17.175  0.00  0.00    +0.128 C 
ATOM     12  C   UNL     1      -6.456 -10.445  16.808  0.00  0.00    +0.127 C 
ATOM     13  C   UNL     1      -8.298 -12.374  18.898  0.00  0.00    +0.239 C 
ATOM     14  C   UNL     1      -9.848  -9.779  18.162  0.00  0.00    +0.249 C 
ATOM     15  C   UNL     1     -10.768 -10.468  19.107  0.00  0.00    +0.059 A 
ATOM     16  C   UNL     1      -4.385 -11.354  17.950  0.00  0.00    +0.248 C 
ATOM     17  C   UNL     1     -10.688 -11.831  19.435  0.00  0.00    +0.046 A 
ATOM     18  C   UNL     1     -11.877  -9.717  19.539  0.00  0.00    +0.030 A 
ATOM     20  C   UNL     1     -11.757 -12.426  20.128  0.00  0.00    +0.025 A 
ATOM     21  C   UNL     1     -12.905 -10.315  20.268  0.00  0.00    +0.019 A 
ATOM     22  C   UNL     1     -12.852 -11.673  20.550  0.00  0.00    +0.017 A 
ATOM     27  H   UNL     1      -9.836 -13.689  19.116  0.00  0.00    +0.155 HD
ENDROOT
BRANCH  16  19
ATOM      8  N   UNL     1      -3.465 -12.492  14.494  0.00  0.00    -0.263 NA
ATOM     19  C   UNL     1      -3.710 -11.414  16.644  0.00  0.00    +0.055 A 
ATOM     23  C   UNL     1      -2.717 -10.501  16.306  0.00  0.00    +0.016 A 
ATOM     24  C   UNL     1      -4.045 -12.382  15.711  0.00  0.00    +0.123 A 
ATOM     25  C   UNL     1      -2.099 -10.582  15.064  0.00  0.00    +0.020 A 
ATOM     26  C   UNL     1      -2.505 -11.587  14.202  0.00  0.00    +0.111 A 
ENDBRANCH  16  19
TORSDOF 1
ENDMDL
MODEL 3
REMARK VINA RESULT:      -6.8     27.734     30.864
REMARK  Name = 26763569
REMARK  1 active torsions:
REMARK  status: ('A' for Active; 'I' for Inactive)
REMARK    1  A    between atoms: C_16  and  C_19
REMARK                            x       y       z     vdW  Elec       q    Type
REMARK                         _______ _______ _______ _____ _____    ______ ____
ROOT
ATOM      1 BR   UNL     1      -0.877 -10.308  15.603  0.00  0.00    -0.050 Br
ATOM      2  O   UNL     1      -9.133 -10.735  15.319  0.00  0.00    -0.273 OA
ATOM      3  O   UNL     1      -5.092 -11.376  18.667  0.00  0.00    -0.270 OA
ATOM      4  O   UNL     1     -11.642  -8.343  17.412  0.00  0.00    -0.270 OA
ATOM      5  N   UNL     1      -7.007 -10.397  17.815  0.00  0.00    -0.283 N 
ATOM      6  N   UNL     1      -9.804  -9.646  18.032  0.00  0.00    -0.294 N 
ATOM      7  N   UNL     1      -6.906 -10.986  14.918  0.00  0.00    -0.283 N 
ATOM      9  C   UNL     1      -7.627  -9.561  16.797  0.00  0.00    +0.180 C 
ATOM     10  C   UNL     1      -8.847  -8.795  17.322  0.00  0.00    +0.140 C 
ATOM     11  C   UNL     1      -7.767 -10.632  19.045  0.00  0.00    +0.128 C 
ATOM     12  C   UNL     1      -9.255 -10.790  18.767  0.00  0.00    +0.127 C 
ATOM     13  C   UNL     1      -7.969 -10.494  15.646  0.00  0.00    +0.239 C 
ATOM     14  C   UNL     1      -5.689 -10.833  17.735  0.00  0.00    +0.249 C 
ATOM     15  C   UNL     1      -4.953 -10.670  16.452  0.00  0.00    +0.059 A 
ATOM     16  C   UNL     1     -11.159  -9.296  18.021  0.00  0.00    +0.248 C 
ATOM     17  C   UNL     1      -5.528 -10.847  15.184  0.00  0.00    +0.046 A 
ATOM     18  C   UNL     1      -3.560 -10.503  16.562  0.00  0.00    +0.030 A 
ATOM     20  C   UNL     1      -4.685 -10.924  14.061  0.00  0.00    +0.025 A 
ATOM     21  C   UNL     1      -2.745 -10.534  15.431  0.00  0.00    +0.019 A 
ATOM     22  C   UNL     1      -3.306 -10.759  14.181  0.00  0.00    +0.017 A 
ATOM     27  H   UNL     1      -7.148 -11.420  14.031  0.00  0.00    +0.155 HD
ENDROOT
BRANCH  16  19
ATOM      8  N   UNL     1     -13.499 -12.094  18.904  0.00  0.00    -0.263 NA
ATOM     19  C   UNL     1     -12.095 -10.129  18.792  0.00  0.00    +0.055 A 
ATOM     23  C   UNL     1     -12.464  -9.783  20.087  0.00  0.00    +0.016 A 
ATOM     24  C   UNL     1     -12.635 -11.284  18.251  0.00  0.00    +0.123 A 
ATOM     25  C   UNL     1     -13.349 -10.591  20.791  0.00  0.00    +0.020 A 
ATOM     26  C   UNL     1     -13.834 -11.725  20.161  0.00  0.00    +0.111 A 
ENDBRANCH  16  19
TORSDOF 1
ENDMDL
MODEL 4
REMARK VINA RESULT:      -6.4     16.059     19.880
REMARK  Name = 26763569
REMARK  1 active torsions:
REMARK  status: ('A' for Active; 'I' for Inactive)
REMARK    1  A    between atoms: C_16  and  C_19
REMARK                            x       y       z     vdW  Elec       q    Type
REMARK                         _______ _______ _______ _____ _____    ______ ____
ROOT
ATOM      1 BR   UNL     1       9.416   9.031   8.049  0.00  0.00    -0.050 Br
ATOM      2  O   UNL     1      11.289   3.194   2.496  0.00  0.00    -0.273 OA
ATOM      3  O   UNL     1       9.126   8.005   2.838  0.00  0.00    -0.270 OA
ATOM      4  O   UNL     1      13.964   3.641  -0.511  0.00  0.00    -0.270 OA
ATOM      5  N   UNL     1      10.694   6.423   2.214  0.00  0.00    -0.283 N 
ATOM      6  N   UNL     1      12.140   4.919   0.194  0.00  0.00    -0.294 N 
ATOM      7  N   UNL     1      10.500   4.335   4.301  0.00  0.00    -0.283 N 
ATOM      9  C   UNL     1      11.797   5.552   2.593  0.00  0.00    +0.180 C 
ATOM     10  C   UNL     1      12.787   5.317   1.446  0.00  0.00    +0.140 C 
ATOM     11  C   UNL     1      10.509   6.691   0.786  0.00  0.00    +0.128 C 
ATOM     12  C   UNL     1      10.800   5.459  -0.060  0.00  0.00    +0.127 C 
ATOM     13  C   UNL     1      11.158   4.265   3.091  0.00  0.00    +0.239 C 
ATOM     14  C   UNL     1       9.932   7.124   3.143  0.00  0.00    +0.249 C 
ATOM     15  C   UNL     1      10.062   6.783   4.585  0.00  0.00    +0.059 A 
ATOM     16  C   UNL     1      12.842   4.106  -0.703  0.00  0.00    +0.248 C 
ATOM     17  C   UNL     1      10.222   5.479   5.078  0.00  0.00    +0.046 A 
ATOM     18  C   UNL     1       9.828   7.838   5.487  0.00  0.00    +0.030 A 
ATOM     20  C   UNL     1      10.073   5.250   6.457  0.00  0.00    +0.025 A 
ATOM     21  C   UNL     1       9.731   7.599   6.858  0.00  0.00    +0.019 A 
ATOM     22  C   UNL     1       9.839   6.303   7.342  0.00  0.00    +0.017 A 
ATOM     27  H   UNL     1      10.273   3.440   4.727  0.00  0.00    +0.155 HD
ENDROOT
BRANCH  16  19
ATOM      8  N   UNL     1      11.939   4.209  -4.344  0.00  0.00    -0.263 NA
ATOM     19  C   UNL     1      12.197   3.768  -1.981  0.00  0.00    +0.055 A 
ATOM     23  C   UNL     1      11.270   2.735  -2.066  0.00  0.00    +0.016 A 
ATOM     24  C   UNL     1      12.495   4.468  -3.139  0.00  0.00    +0.123 A 
ATOM     25  C   UNL     1      10.677   2.439  -3.288  0.00  0.00    +0.020 A 
ATOM     26  C   UNL     1      11.043   3.198  -4.387  0.00  0.00    +0.111 A 
ENDBRANCH  16  19
TORSDOF 1
ENDMDL
MODEL 5
REMARK VINA RESULT:      -6.3     29.144     32.435
REMARK  Name = 26763569
REMARK  1 active torsions:
REMARK  status: ('A' for Active; 'I' for Inactive)
REMARK    1  A    between atoms: C_16  and  C_19
REMARK                            x       y       z     vdW  Elec       q    Type
REMARK                         _______ _______ _______ _____ _____    ______ ____
ROOT
ATOM      1 BR   UNL     1      -3.795 -10.728  14.870  0.00  0.00    -0.050 Br
ATOM      2  O   UNL     1      -9.880 -10.619  20.472  0.00  0.00    -0.273 OA
ATOM      3  O   UNL     1      -8.729  -8.884  15.614  0.00  0.00    -0.270 OA
ATOM      4  O   UNL     1     -13.519 -12.321  19.963  0.00  0.00    -0.270 OA
ATOM      5  N   UNL     1      -9.847 -10.124  17.214  0.00  0.00    -0.283 N 
ATOM      6  N   UNL     1     -12.260 -10.845  18.661  0.00  0.00    -0.294 N 
ATOM      7  N   UNL     1      -7.879 -10.445  19.400  0.00  0.00    -0.283 N 
ATOM      9  C   UNL     1      -9.843 -11.247  18.142  0.00  0.00    +0.180 C 
ATOM     10  C   UNL     1     -11.238 -11.847  18.351  0.00  0.00    +0.140 C 
ATOM     11  C   UNL     1     -11.146  -9.545  16.867  0.00  0.00    +0.128 C 
ATOM     12  C   UNL     1     -12.088  -9.517  18.061  0.00  0.00    +0.127 C 
ATOM     13  C   UNL     1      -9.231 -10.718  19.429  0.00  0.00    +0.239 C 
ATOM     14  C   UNL     1      -8.708  -9.701  16.536  0.00  0.00    +0.249 C 
ATOM     15  C   UNL     1      -7.382 -10.228  16.956  0.00  0.00    +0.059 A 
ATOM     16  C   UNL     1     -13.355 -11.216  19.450  0.00  0.00    +0.248 C 
ATOM     17  C   UNL     1      -7.010 -10.461  18.289  0.00  0.00    +0.046 A 
ATOM     18  C   UNL     1      -6.410 -10.318  15.942  0.00  0.00    +0.030 A 
ATOM     20  C   UNL     1      -5.658 -10.709  18.584  0.00  0.00    +0.025 A 
ATOM     21  C   UNL     1      -5.082 -10.613  16.249  0.00  0.00    +0.019 A 
ATOM     22  C   UNL     1      -4.703 -10.794  17.571  0.00  0.00    +0.017 A 
ATOM     27  H   UNL     1      -7.441 -10.309  20.307  0.00  0.00    +0.155 HD
ENDROOT
BRANCH  16  19
ATOM      8  N   UNL     1     -16.440  -9.132  18.978  0.00  0.00    -0.263 NA
ATOM     19  C   UNL     1     -14.400 -10.211  19.698  0.00  0.00    +0.055 A 
ATOM     23  C   UNL     1     -14.367  -9.407  20.833  0.00  0.00    +0.016 A 
ATOM     24  C   UNL     1     -15.448 -10.036  18.810  0.00  0.00    +0.123 A 
ATOM     25  C   UNL     1     -15.370  -8.467  21.041  0.00  0.00    +0.020 A 
ATOM     26  C   UNL     1     -16.375  -8.370  20.092  0.00  0.00    +0.111 A 
ENDBRANCH  16  19
TORSDOF 1
ENDMDL
MODEL 6
REMARK VINA RESULT:      -6.2     29.610     32.382
REMARK  Name = 26763569
REMARK  1 active torsions:
REMARK  status: ('A' for Active; 'I' for Inactive)
REMARK    1  A    between atoms: C_16  and  C_19
REMARK                            x       y       z     vdW  Elec       q    Type
REMARK                         _______ _______ _______ _____ _____    ______ ____
ROOT
ATOM      1 BR   UNL     1     -15.694  -4.185   9.806  0.00  0.00    -0.050 Br
ATOM      2  O   UNL     1      -7.744  -5.797   8.187  0.00  0.00    -0.273 OA
ATOM      3  O   UNL     1     -11.800  -7.583  11.068  0.00  0.00    -0.270 OA
ATOM      4  O   UNL     1      -6.390  -9.162   6.387  0.00  0.00    -0.270 OA
ATOM      5  N   UNL     1     -10.182  -7.642   9.416  0.00  0.00    -0.283 N 
ATOM      6  N   UNL     1      -7.805  -8.796   8.210  0.00  0.00    -0.294 N 
ATOM      7  N   UNL     1      -9.713  -4.799   8.747  0.00  0.00    -0.283 N 
ATOM      9  C   UNL     1      -9.719  -7.183   8.114  0.00  0.00    +0.180 C 
ATOM     10  C   UNL     1      -8.874  -8.232   7.382  0.00  0.00    +0.140 C 
ATOM     11  C   UNL     1      -9.557  -8.848   9.964  0.00  0.00    +0.128 C 
ATOM     12  C   UNL     1      -8.070  -8.905   9.649  0.00  0.00    +0.127 C 
ATOM     13  C   UNL     1      -8.958  -5.893   8.377  0.00  0.00    +0.239 C 
ATOM     14  C   UNL     1     -11.281  -7.089  10.065  0.00  0.00    +0.249 C 
ATOM     15  C   UNL     1     -11.854  -5.815   9.553  0.00  0.00    +0.059 A 
ATOM     16  C   UNL     1      -6.634  -9.244   7.589  0.00  0.00    +0.248 C 
ATOM     17  C   UNL     1     -11.090  -4.751   9.048  0.00  0.00    +0.046 A 
ATOM     18  C   UNL     1     -13.233  -5.633   9.769  0.00  0.00    +0.030 A 
ATOM     20  C   UNL     1     -11.711  -3.507   8.839  0.00  0.00    +0.025 A 
ATOM     21  C   UNL     1     -13.841  -4.406   9.509  0.00  0.00    +0.019 A 
ATOM     22  C   UNL     1     -13.078  -3.338   9.057  0.00  0.00    +0.017 A 
ATOM     27  H   UNL     1      -9.234  -3.903   8.703  0.00  0.00    +0.155 HD
ENDROOT
BRANCH  16  19
ATOM      8  N   UNL     1      -4.610 -11.869   9.350  0.00  0.00    -0.263 NA
ATOM     19  C   UNL     1      -5.599  -9.863   8.432  0.00  0.00    +0.055 A 
ATOM     23  C   UNL     1      -4.653  -9.086   9.093  0.00  0.00    +0.016 A 
ATOM     24  C   UNL     1      -5.534 -11.237   8.592  0.00  0.00    +0.123 A 
ATOM     25  C   UNL     1      -3.686  -9.700   9.882  0.00  0.00    +0.020 A 
ATOM     26  C   UNL     1      -3.707 -11.081   9.976  0.00  0.00    +0.111 A 
ENDBRANCH  16  19
TORSDOF 1
ENDMDL
MODEL 7
REMARK VINA RESULT:      -6.2     27.610     30.783
REMARK  Name = 26763569
REMARK  1 active torsions:
REMARK  status: ('A' for Active; 'I' for Inactive)
REMARK    1  A    between atoms: C_16  and  C_19
REMARK                            x       y       z     vdW  Elec       q    Type
REMARK                         _______ _______ _______ _____ _____    ______ ____
ROOT
ATOM      1 BR   UNL     1      -1.832 -10.771  12.254  0.00  0.00    -0.050 Br
ATOM      2  O   UNL     1      -6.514 -11.009  19.069  0.00  0.00    -0.273 OA
ATOM      3  O   UNL     1      -6.753  -9.685  13.957  0.00  0.00    -0.270 OA
ATOM      4  O   UNL     1      -9.799 -13.331  19.534  0.00  0.00    -0.270 OA
ATOM      5  N   UNL     1      -7.260 -10.897  15.861  0.00  0.00    -0.283 N 
ATOM      6  N   UNL     1      -9.138 -11.830  17.870  0.00  0.00    -0.294 N 
ATOM      7  N   UNL     1      -4.852 -10.636  17.559  0.00  0.00    -0.283 N 
ATOM      9  C   UNL     1      -6.853 -11.888  16.847  0.00  0.00    +0.180 C 
ATOM     10  C   UNL     1      -8.037 -12.681  17.413  0.00  0.00    +0.140 C 
ATOM     11  C   UNL     1      -8.687 -10.582  15.775  0.00  0.00    +0.128 C 
ATOM     12  C   UNL     1      -9.346 -10.570  17.147  0.00  0.00    +0.127 C 
ATOM     13  C   UNL     1      -6.092 -11.121  17.916  0.00  0.00    +0.239 C 
ATOM     14  C   UNL     1      -6.388 -10.374  14.911  0.00  0.00    +0.249 C 
ATOM     15  C   UNL     1      -4.929 -10.626  15.057  0.00  0.00    +0.059 A 
ATOM     16  C   UNL     1      -9.954 -12.281  18.914  0.00  0.00    +0.248 C 
ATOM     17  C   UNL     1      -4.248 -10.639  16.284  0.00  0.00    +0.046 A 
ATOM     18  C   UNL     1      -4.193 -10.672  13.858  0.00  0.00    +0.030 A 
ATOM     20  C   UNL     1      -2.842 -10.626  16.281  0.00  0.00    +0.025 A 
ATOM     21  C   UNL     1      -2.799 -10.709  13.876  0.00  0.00    +0.019 A 
ATOM     22  C   UNL     1      -2.122 -10.671  15.088  0.00  0.00    +0.017 A 
ATOM     27  H   UNL     1      -4.265 -10.326  18.330  0.00  0.00    +0.155 HD
ENDROOT
BRANCH  16  19
ATOM      8  N   UNL     1     -13.454 -10.948  19.162  0.00  0.00    -0.263 NA
ATOM     19  C   UNL     1     -11.091 -11.439  19.315  0.00  0.00    +0.055 A 
ATOM     23  C   UNL     1     -10.920 -10.373  20.192  0.00  0.00    +0.016 A 
ATOM     24  C   UNL     1     -12.367 -11.682  18.833  0.00  0.00    +0.123 A 
ATOM     25  C   UNL     1     -12.014  -9.595  20.554  0.00  0.00    +0.020 A 
ATOM     26  C   UNL     1     -13.248  -9.921  20.017  0.00  0.00    +0.111 A 
ENDBRANCH  16  19
TORSDOF 1
ENDMDL
MODEL 8
REMARK VINA RESULT:      -6.2     28.279     30.366
REMARK  Name = 26763569
REMARK  1 active torsions:
REMARK  status: ('A' for Active; 'I' for Inactive)
REMARK    1  A    between atoms: C_16  and  C_19
REMARK                            x       y       z     vdW  Elec       q    Type
REMARK                         _______ _______ _______ _____ _____    ______ ____
ROOT
ATOM      1 BR   UNL     1      -0.707 -16.180  12.717  0.00  0.00    -0.050 Br
ATOM      2  O   UNL     1      -4.970 -10.208  16.536  0.00  0.00    -0.273 OA
ATOM      3  O   UNL     1      -5.603 -15.022  14.445  0.00  0.00    -0.270 OA
ATOM      4  O   UNL     1      -6.727 -10.585  20.165  0.00  0.00    -0.270 OA
ATOM      5  N   UNL     1      -5.538 -13.428  16.120  0.00  0.00    -0.283 N 
ATOM      6  N   UNL     1      -6.809 -11.876  18.220  0.00  0.00    -0.294 N 
ATOM      7  N   UNL     1      -3.636 -11.393  15.122  0.00  0.00    -0.283 N 
ATOM      9  C   UNL     1      -4.742 -12.569  16.986  0.00  0.00    +0.180 C 
ATOM     10  C   UNL     1      -5.414 -12.308  18.339  0.00  0.00    +0.140 C 
ATOM     11  C   UNL     1      -6.933 -13.659  16.501  0.00  0.00    +0.128 C 
ATOM     12  C   UNL     1      -7.572 -12.407  17.085  0.00  0.00    +0.127 C 
ATOM     13  C   UNL     1      -4.498 -11.294  16.194  0.00  0.00    +0.239 C 
ATOM     14  C   UNL     1      -4.990 -14.151  15.065  0.00  0.00    +0.249 C 
ATOM     15  C   UNL     1      -3.601 -13.847  14.628  0.00  0.00    +0.059 A 
ATOM     16  C   UNL     1      -7.346 -11.042  19.207  0.00  0.00    +0.248 C 
ATOM     17  C   UNL     1      -3.053 -12.556  14.575  0.00  0.00    +0.046 A 
ATOM     18  C   UNL     1      -2.884 -14.924  14.072  0.00  0.00    +0.030 A 
ATOM     20  C   UNL     1      -1.832 -12.362  13.905  0.00  0.00    +0.025 A 
ATOM     21  C   UNL     1      -1.651 -14.719  13.454  0.00  0.00    +0.019 A 
ATOM     22  C   UNL     1      -1.131 -13.436  13.358  0.00  0.00    +0.017 A 
ATOM     27  H   UNL     1      -3.308 -10.509  14.742  0.00  0.00    +0.155 HD
ENDROOT
BRANCH  16  19
ATOM      8  N   UNL     1     -11.037 -10.948  19.881  0.00  0.00    -0.263 NA
ATOM     19  C   UNL     1      -8.766 -10.671  19.100  0.00  0.00    +0.055 A 
ATOM     23  C   UNL     1      -9.194  -9.732  18.167  0.00  0.00    +0.016 A 
ATOM     24  C   UNL     1      -9.718 -11.244  19.926  0.00  0.00    +0.123 A 
ATOM     25  C   UNL     1     -10.542  -9.401  18.091  0.00  0.00    +0.020 A 
ATOM     26  C   UNL     1     -11.415 -10.031  18.962  0.00  0.00    +0.111 A 
ENDBRANCH  16  19
TORSDOF 1
ENDMDL
MODEL 9
REMARK VINA RESULT:      -6.2     27.940     31.362
REMARK  Name = 26763569
REMARK  1 active torsions:
REMARK  status: ('A' for Active; 'I' for Inactive)
REMARK    1  A    between atoms: C_16  and  C_19
REMARK                            x       y       z     vdW  Elec       q    Type
REMARK                         _______ _______ _______ _____ _____    ______ ____
ROOT
ATOM      1 BR   UNL     1     -13.627 -13.357  20.915  0.00  0.00    -0.050 Br
ATOM      2  O   UNL     1      -7.279  -9.257  17.551  0.00  0.00    -0.273 OA
ATOM      3  O   UNL     1      -8.600 -14.059  19.323  0.00  0.00    -0.270 OA
ATOM      4  O   UNL     1      -5.669 -10.066  13.925  0.00  0.00    -0.270 OA
ATOM      5  N   UNL     1      -7.995 -12.467  17.757  0.00  0.00    -0.283 N 
ATOM      6  N   UNL     1      -6.154 -11.400  15.780  0.00  0.00    -0.294 N 
ATOM      7  N   UNL     1      -9.013  -9.922  18.868  0.00  0.00    -0.283 N 
ATOM      9  C   UNL     1      -8.372 -11.321  16.942  0.00  0.00    +0.180 C 
ATOM     10  C   UNL     1      -7.603 -11.259  15.617  0.00  0.00    +0.140 C 
ATOM     11  C   UNL     1      -6.780 -13.191  17.377  0.00  0.00    +0.128 C 
ATOM     12  C   UNL     1      -5.692 -12.247  16.885  0.00  0.00    +0.127 C 
ATOM     13  C   UNL     1      -8.141 -10.098  17.814  0.00  0.00    +0.239 C 
ATOM     14  C   UNL     1      -8.813 -12.986  18.756  0.00  0.00    +0.249 C 
ATOM     15  C   UNL     1      -9.997 -12.200  19.197  0.00  0.00    +0.059 A 
ATOM     16  C   UNL     1      -5.305 -10.780  14.857  0.00  0.00    +0.248 C 
ATOM     17  C   UNL     1     -10.014 -10.803  19.329  0.00  0.00    +0.046 A 
ATOM     18  C   UNL     1     -11.089 -12.952  19.671  0.00  0.00    +0.030 A 
ATOM     20  C   UNL     1     -11.092 -10.196  19.997  0.00  0.00    +0.025 A 
ATOM     21  C   UNL     1     -12.172 -12.328  20.287  0.00  0.00    +0.019 A 
ATOM     22  C   UNL     1     -12.168 -10.951  20.464  0.00  0.00    +0.017 A 
ATOM     27  H   UNL     1      -8.993  -9.003  19.303  0.00  0.00    +0.155 HD
ENDROOT
BRANCH  16  19
ATOM      8  N   UNL     1      -1.833 -12.060  14.229  0.00  0.00    -0.263 NA
ATOM     19  C   UNL     1      -3.856 -10.986  15.004  0.00  0.00    +0.055 A 
ATOM     23  C   UNL     1      -3.137 -10.340  16.005  0.00  0.00    +0.016 A 
ATOM     24  C   UNL     1      -3.163 -11.827  14.149  0.00  0.00    +0.123 A 
ATOM     25  C   UNL     1      -1.768 -10.554  16.118  0.00  0.00    +0.020 A 
ATOM     26  C   UNL     1      -1.169 -11.415  15.214  0.00  0.00    +0.111 A 
ENDBRANCH  16  19
TORSDOF 1
ENDMDL
MODEL 10
REMARK VINA RESULT:      -6.1     22.554     24.051
REMARK  Name = 26763569
REMARK  1 active torsions:
REMARK  status: ('A' for Active; 'I' for Inactive)
REMARK    1  A    between atoms: C_16  and  C_19
REMARK                            x       y       z     vdW  Elec       q    Type
REMARK                         _______ _______ _______ _____ _____    ______ ____
ROOT
ATOM      1 BR   UNL     1       6.984 -13.002  30.534  0.00  0.00    -0.050 Br
ATOM      2  O   UNL     1       6.989  -5.332  33.632  0.00  0.00    -0.273 OA
ATOM      3  O   UNL     1       6.002 -10.334  35.029  0.00  0.00    -0.270 OA
ATOM      4  O   UNL     1       9.414  -4.046  36.610  0.00  0.00    -0.270 OA
ATOM      5  N   UNL     1       7.111  -8.304  35.051  0.00  0.00    -0.283 N 
ATOM      6  N   UNL     1       7.994  -5.890  36.403  0.00  0.00    -0.294 N 
ATOM      7  N   UNL     1       6.643  -7.183  32.354  0.00  0.00    -0.283 N 
ATOM      9  C   UNL     1       8.021  -7.379  34.389  0.00  0.00    +0.180 C 
ATOM     10  C   UNL     1       8.825  -6.529  35.380  0.00  0.00    +0.140 C 
ATOM     11  C   UNL     1       6.864  -8.096  36.479  0.00  0.00    +0.128 C 
ATOM     12  C   UNL     1       6.793  -6.616  36.829  0.00  0.00    +0.127 C 
ATOM     13  C   UNL     1       7.156  -6.541  33.461  0.00  0.00    +0.239 C 
ATOM     14  C   UNL     1       6.614  -9.446  34.432  0.00  0.00    +0.249 C 
ATOM     15  C   UNL     1       6.794  -9.607  32.964  0.00  0.00    +0.059 A 
ATOM     16  C   UNL     1       8.413  -4.673  36.951  0.00  0.00    +0.248 C 
ATOM     17  C   UNL     1       6.700  -8.557  32.037  0.00  0.00    +0.046 A 
ATOM     18  C   UNL     1       6.884 -10.932  32.499  0.00  0.00    +0.030 A 
ATOM     20  C   UNL     1       6.629  -8.864  30.667  0.00  0.00    +0.025 A 
ATOM     21  C   UNL     1       6.860 -11.214  31.134  0.00  0.00    +0.019 A 
ATOM     22  C   UNL     1       6.718 -10.182  30.217  0.00  0.00    +0.017 A 
ATOM     27  H   UNL     1       6.260  -6.575  31.634  0.00  0.00    +0.155 HD
ENDROOT
BRANCH  16  19
ATOM      8  N   UNL     1       7.200  -3.766  40.385  0.00  0.00    -0.263 NA
ATOM     19  C   UNL     1       7.596  -4.079  38.021  0.00  0.00    +0.055 A 
ATOM     23  C   UNL     1       6.485  -3.296  37.725  0.00  0.00    +0.016 A 
ATOM     24  C   UNL     1       7.908  -4.282  39.355  0.00  0.00    +0.123 A 
ATOM     25  C   UNL     1       5.733  -2.748  38.757  0.00  0.00    +0.020 A 
ATOM     26  C   UNL     1       6.129  -3.010  40.058  0.00  0.00    +0.111 A 
ENDBRANCH  16  19
TORSDOF 1
ENDMDL
