MODEL 1
REMARK VINA RESULT:      -7.2      0.000      0.000
REMARK  Name = 45360474
REMARK  7 active torsions:
REMARK  status: ('A' for Active; 'I' for Inactive)
REMARK    1  A    between atoms: N_2  and  C_13
REMARK    2  A    between atoms: N_2  and  C_15
REMARK    3  A    between atoms: N_4  and  C_23
REMARK    4  A    between atoms: C_7  and  C_13
REMARK    5  A    between atoms: C_8  and  C_14
REMARK    6  A    between atoms: C_21  and  C_24
REMARK    7  A    between atoms: C_22  and  C_25
REMARK                            x       y       z     vdW  Elec       q    Type
REMARK                         _______ _______ _______ _____ _____    ______ ____
ROOT
ATOM      1  N   UNL     1      12.153  11.518  24.792  0.00  0.00    -0.298 NA
ATOM      6  C   UNL     1      11.152  12.007  22.439  0.00  0.00    +0.002 C 
ATOM      7  C   UNL     1      13.181  12.154  23.925  0.00  0.00    +0.071 C 
ATOM      8  C   UNL     1      10.867  10.538  22.856  0.00  0.00    +0.055 C 
ATOM      9  C   UNL     1      12.674  12.261  22.471  0.00  0.00    +0.024 C 
ATOM     10  C   UNL     1      10.518  12.908  23.520  0.00  0.00    +0.019 C 
ATOM     11  C   UNL     1      11.662  10.266  24.165  0.00  0.00    +0.094 C 
ATOM     12  C   UNL     1      11.012  12.458  24.907  0.00  0.00    +0.085 C 
ENDROOT
BRANCH   8  14
ATOM      3  N   UNL     1      10.993   8.170  22.256  0.00  0.00    -0.237 NA
ATOM      5  N   UNL     1      11.437   7.437  20.004  0.00  0.00    -0.232 NA
ATOM     14  C   UNL     1      11.073   9.444  21.819  0.00  0.00    +0.050 A 
ATOM     18  C   UNL     1      11.329   9.789  20.506  0.00  0.00    +0.052 A 
ATOM     21  C   UNL     1      11.504   8.734  19.635  0.00  0.00    +0.075 A 
ATOM     22  C   UNL     1      11.183   7.231  21.310  0.00  0.00    +0.127 A 
ATOM     25  C   UNL     1      11.103   5.811  21.757  0.00  0.00    +0.088 C 
BRANCH  21  24
ATOM     24  C   UNL     1      11.779   8.960  18.236  0.00  0.00    +0.000 A 
ATOM     26  C   UNL     1      10.784   8.734  17.285  0.00  0.00    +0.010 A 
ATOM     27  C   UNL     1      13.039   9.403  17.835  0.00  0.00    +0.010 A 
ATOM     28  C   UNL     1      11.049   8.952  15.933  0.00  0.00    +0.001 A 
ATOM     29  C   UNL     1      13.304   9.620  16.483  0.00  0.00    +0.001 A 
ATOM     30  C   UNL     1      12.309   9.396  15.532  0.00  0.00    +0.000 A 
ENDBRANCH  21  24
ENDBRANCH   8  14
BRANCH   7  13
ATOM     13  C   UNL     1      14.532  11.443  24.007  0.00  0.00    +0.100 C 
BRANCH  13   2
ATOM      2  N   UNL     1      15.262  11.576  22.757  0.00  0.00    -0.312 NA
ATOM     31  H   UNL     1      16.109  12.119  22.925  0.00  0.00    +0.122 HD
BRANCH   2  15
ATOM      4  N   UNL     1      14.955   7.979  20.514  0.00  0.00    -0.305 NA
ATOM     15  C   UNL     1      15.618  10.267  22.213  0.00  0.00    +0.056 C 
ATOM     16  C   UNL     1      15.703  10.332  20.687  0.00  0.00    +0.034 C 
ATOM     17  C   UNL     1      14.600   9.204  22.636  0.00  0.00    +0.034 C 
ATOM     19  C   UNL     1      15.976   8.948  20.093  0.00  0.00    +0.085 C 
ATOM     20  C   UNL     1      14.909   7.857  21.978  0.00  0.00    +0.085 C 
ATOM     23  C   UNL     1      15.203   6.675  19.899  0.00  0.00    +0.104 C 
ENDBRANCH   2  15
ENDBRANCH  13   2
ENDBRANCH   7  13
TORSDOF 5
ENDMDL
MODEL 2
REMARK VINA RESULT:      -6.7     27.183     28.570
REMARK  Name = 45360474
REMARK  7 active torsions:
REMARK  status: ('A' for Active; 'I' for Inactive)
REMARK    1  A    between atoms: N_2  and  C_13
REMARK    2  A    between atoms: N_2  and  C_15
REMARK    3  A    between atoms: N_4  and  C_23
REMARK    4  A    between atoms: C_7  and  C_13
REMARK    5  A    between atoms: C_8  and  C_14
REMARK    6  A    between atoms: C_21  and  C_24
REMARK    7  A    between atoms: C_22  and  C_25
REMARK                            x       y       z     vdW  Elec       q    Type
REMARK                         _______ _______ _______ _____ _____    ______ ____
ROOT
ATOM      1  N   UNL     1      -6.300 -10.399  17.776  0.00  0.00    -0.298 NA
ATOM      6  C   UNL     1      -4.582 -12.332  17.472  0.00  0.00    +0.002 C 
ATOM      7  C   UNL     1      -7.008 -11.654  17.407  0.00  0.00    +0.071 C 
ATOM      8  C   UNL     1      -4.139 -11.080  16.667  0.00  0.00    +0.055 C 
ATOM      9  C   UNL     1      -5.996 -12.754  17.020  0.00  0.00    +0.024 C 
ATOM     10  C   UNL     1      -4.688 -11.898  18.949  0.00  0.00    +0.019 C 
ATOM     11  C   UNL     1      -5.304 -10.050  16.734  0.00  0.00    +0.094 C 
ATOM     12  C   UNL     1      -5.575 -10.644  19.046  0.00  0.00    +0.085 C 
ENDROOT
BRANCH   8  14
ATOM      3  N   UNL     1      -2.677 -12.221  15.073  0.00  0.00    -0.237 NA
ATOM      5  N   UNL     1      -2.668 -11.684  12.724  0.00  0.00    -0.232 NA
ATOM     14  C   UNL     1      -3.628 -11.281  15.248  0.00  0.00    +0.050 A 
ATOM     18  C   UNL     1      -4.142 -10.512  14.223  0.00  0.00    +0.052 A 
ATOM     21  C   UNL     1      -3.620 -10.760  12.970  0.00  0.00    +0.075 A 
ATOM     22  C   UNL     1      -2.248 -12.369  13.805  0.00  0.00    +0.127 A 
ATOM     25  C   UNL     1      -1.195 -13.399  13.573  0.00  0.00    +0.088 C 
BRANCH  21  24
ATOM     24  C   UNL     1      -4.072 -10.022  11.815  0.00  0.00    +0.000 A 
ATOM     26  C   UNL     1      -5.346  -9.452  11.806  0.00  0.00    +0.010 A 
ATOM     27  C   UNL     1      -3.237  -9.880  10.707  0.00  0.00    +0.010 A 
ATOM     28  C   UNL     1      -5.783  -8.740  10.691  0.00  0.00    +0.001 A 
ATOM     29  C   UNL     1      -3.676  -9.167   9.591  0.00  0.00    +0.001 A 
ATOM     30  C   UNL     1      -4.948  -8.597   9.583  0.00  0.00    +0.000 A 
ENDBRANCH  21  24
ENDBRANCH   8  14
BRANCH   7  13
ATOM     13  C   UNL     1      -8.054 -11.431  16.313  0.00  0.00    +0.100 C 
BRANCH  13   2
ATOM      2  N   UNL     1      -9.397 -11.465  16.870  0.00  0.00    -0.312 NA
ATOM     31  H   UNL     1      -9.333 -11.601  17.879  0.00  0.00    +0.122 HD
BRANCH   2  15
ATOM      4  N   UNL     1     -10.063  -7.392  15.859  0.00  0.00    -0.305 NA
ATOM     15  C   UNL     1     -10.116 -10.225  16.585  0.00  0.00    +0.056 C 
ATOM     16  C   UNL     1      -9.814  -9.754  15.161  0.00  0.00    +0.034 C 
ATOM     17  C   UNL     1      -9.741  -9.131  17.589  0.00  0.00    +0.034 C 
ATOM     19  C   UNL     1     -10.479  -8.404  14.878  0.00  0.00    +0.085 C 
ATOM     20  C   UNL     1     -10.408  -7.803  17.227  0.00  0.00    +0.085 C 
ATOM     23  C   UNL     1     -10.667  -6.097  15.545  0.00  0.00    +0.104 C 
ENDBRANCH   2  15
ENDBRANCH  13   2
ENDBRANCH   7  13
TORSDOF 5
ENDMDL
MODEL 3
REMARK VINA RESULT:      -6.6     25.428     28.727
REMARK  Name = 45360474
REMARK  7 active torsions:
REMARK  status: ('A' for Active; 'I' for Inactive)
REMARK    1  A    between atoms: N_2  and  C_13
REMARK    2  A    between atoms: N_2  and  C_15
REMARK    3  A    between atoms: N_4  and  C_23
REMARK    4  A    between atoms: C_7  and  C_13
REMARK    5  A    between atoms: C_8  and  C_14
REMARK    6  A    between atoms: C_21  and  C_24
REMARK    7  A    between atoms: C_22  and  C_25
REMARK                            x       y       z     vdW  Elec       q    Type
REMARK                         _______ _______ _______ _____ _____    ______ ____
ROOT
ATOM      1  N   UNL     1      -7.609 -11.682  17.857  0.00  0.00    -0.298 NA
ATOM      6  C   UNL     1      -5.205 -11.015  18.602  0.00  0.00    +0.002 C 
ATOM      7  C   UNL     1      -6.846 -12.894  18.257  0.00  0.00    +0.071 C 
ATOM      8  C   UNL     1      -5.546 -10.373  17.229  0.00  0.00    +0.055 C 
ATOM      9  C   UNL     1      -5.362 -12.547  18.502  0.00  0.00    +0.024 C 
ATOM     10  C   UNL     1      -6.266 -10.514  19.604  0.00  0.00    +0.019 C 
ATOM     11  C   UNL     1      -6.902 -10.975  16.761  0.00  0.00    +0.094 C 
ATOM     12  C   UNL     1      -7.669 -10.776  19.030  0.00  0.00    +0.085 C 
ENDROOT
BRANCH   8  14
ATOM      3  N   UNL     1      -3.206 -10.523  16.534  0.00  0.00    -0.237 NA
ATOM      5  N   UNL     1      -2.549 -10.482  14.216  0.00  0.00    -0.232 NA
ATOM     14  C   UNL     1      -4.489 -10.412  16.135  0.00  0.00    +0.050 A 
ATOM     18  C   UNL     1      -4.876 -10.332  14.812  0.00  0.00    +0.052 A 
ATOM     21  C   UNL     1      -3.853 -10.373  13.887  0.00  0.00    +0.075 A 
ATOM     22  C   UNL     1      -2.300 -10.551  15.538  0.00  0.00    +0.127 A 
ATOM     25  C   UNL     1      -0.870 -10.672  15.941  0.00  0.00    +0.088 C 
BRANCH  21  24
ATOM     24  C   UNL     1      -4.124 -10.296  12.471  0.00  0.00    +0.000 A 
ATOM     26  C   UNL     1      -3.071 -10.338  11.557  0.00  0.00    +0.010 A 
ATOM     27  C   UNL     1      -5.438 -10.180  12.018  0.00  0.00    +0.010 A 
ATOM     28  C   UNL     1      -3.332 -10.264  10.189  0.00  0.00    +0.001 A 
ATOM     29  C   UNL     1      -5.698 -10.106  10.649  0.00  0.00    +0.001 A 
ATOM     30  C   UNL     1      -4.646 -10.148   9.735  0.00  0.00    +0.000 A 
ENDBRANCH  21  24
ENDBRANCH   8  14
BRANCH   7  13
ATOM     13  C   UNL     1      -7.007 -14.039  17.255  0.00  0.00    +0.100 C 
BRANCH  13   2
ATOM      2  N   UNL     1      -5.754 -14.758  17.089  0.00  0.00    -0.312 NA
ATOM     31  H   UNL     1      -5.837 -15.674  17.529  0.00  0.00    +0.122 HD
BRANCH   2  15
ATOM      4  N   UNL     1      -5.185 -13.772  12.994  0.00  0.00    -0.305 NA
ATOM     15  C   UNL     1      -5.425 -14.921  15.674  0.00  0.00    +0.056 C 
ATOM     16  C   UNL     1      -4.276 -13.988  15.287  0.00  0.00    +0.034 C 
ATOM     17  C   UNL     1      -6.646 -14.643  14.793  0.00  0.00    +0.034 C 
ATOM     19  C   UNL     1      -3.984 -14.071  13.786  0.00  0.00    +0.085 C 
ATOM     20  C   UNL     1      -6.276 -14.705  13.309  0.00  0.00    +0.085 C 
ATOM     23  C   UNL     1      -4.877 -13.807  11.565  0.00  0.00    +0.104 C 
ENDBRANCH   2  15
ENDBRANCH  13   2
ENDBRANCH   7  13
TORSDOF 5
ENDMDL
MODEL 4
REMARK VINA RESULT:      -6.6     25.354     29.263
REMARK  Name = 45360474
REMARK  7 active torsions:
REMARK  status: ('A' for Active; 'I' for Inactive)
REMARK    1  A    between atoms: N_2  and  C_13
REMARK    2  A    between atoms: N_2  and  C_15
REMARK    3  A    between atoms: N_4  and  C_23
REMARK    4  A    between atoms: C_7  and  C_13
REMARK    5  A    between atoms: C_8  and  C_14
REMARK    6  A    between atoms: C_21  and  C_24
REMARK    7  A    between atoms: C_22  and  C_25
REMARK                            x       y       z     vdW  Elec       q    Type
REMARK                         _______ _______ _______ _____ _____    ______ ____
ROOT
ATOM      1  N   UNL     1      -6.961 -11.126  11.295  0.00  0.00    -0.298 NA
ATOM      6  C   UNL     1      -4.862  -9.638  11.699  0.00  0.00    +0.002 C 
ATOM      7  C   UNL     1      -7.379  -9.755  11.690  0.00  0.00    +0.071 C 
ATOM      8  C   UNL     1      -4.734 -10.979  12.472  0.00  0.00    +0.055 C 
ATOM      9  C   UNL     1      -6.158  -8.921  12.133  0.00  0.00    +0.024 C 
ATOM     10  C   UNL     1      -5.021  -9.998  10.206  0.00  0.00    +0.019 C 
ATOM     11  C   UNL     1      -6.098 -11.718  12.347  0.00  0.00    +0.094 C 
ATOM     12  C   UNL     1      -6.163 -11.017  10.049  0.00  0.00    +0.085 C 
ENDROOT
BRANCH   8  14
ATOM      3  N   UNL     1      -2.933 -10.617  14.086  0.00  0.00    -0.237 NA
ATOM      5  N   UNL     1      -3.270 -10.848  16.461  0.00  0.00    -0.232 NA
ATOM     14  C   UNL     1      -4.231 -10.937  13.907  0.00  0.00    +0.050 A 
ATOM     18  C   UNL     1      -5.099 -11.221  14.942  0.00  0.00    +0.052 A 
ATOM     21  C   UNL     1      -4.558 -11.160  16.210  0.00  0.00    +0.075 A 
ATOM     22  C   UNL     1      -2.524 -10.591  15.369  0.00  0.00    +0.127 A 
ATOM     25  C   UNL     1      -1.094 -10.244  15.605  0.00  0.00    +0.088 C 
BRANCH  21  24
ATOM     24  C   UNL     1      -5.360 -11.437  17.377  0.00  0.00    +0.000 A 
ATOM     26  C   UNL     1      -5.212 -10.660  18.526  0.00  0.00    +0.010 A 
ATOM     27  C   UNL     1      -6.283 -12.483  17.357  0.00  0.00    +0.010 A 
ATOM     28  C   UNL     1      -5.986 -10.927  19.654  0.00  0.00    +0.001 A 
ATOM     29  C   UNL     1      -7.058 -12.750  18.487  0.00  0.00    +0.001 A 
ATOM     30  C   UNL     1      -6.910 -11.972  19.635  0.00  0.00    +0.000 A 
ENDBRANCH  21  24
ENDBRANCH   8  14
BRANCH   7  13
ATOM     13  C   UNL     1      -8.479  -9.765  12.752  0.00  0.00    +0.100 C 
BRANCH  13   2
ATOM      2  N   UNL     1      -7.974  -9.266  14.022  0.00  0.00    -0.312 NA
ATOM     31  H   UNL     1      -8.007  -8.247  14.013  0.00  0.00    +0.122 HD
BRANCH   2  15
ATOM      4  N   UNL     1     -10.499  -9.258  17.440  0.00  0.00    -0.305 NA
ATOM     15  C   UNL     1      -8.768  -9.774  15.139  0.00  0.00    +0.056 C 
ATOM     16  C   UNL     1     -10.232  -9.356  14.981  0.00  0.00    +0.034 C 
ATOM     17  C   UNL     1      -8.220  -9.267  16.476  0.00  0.00    +0.034 C 
ATOM     19  C   UNL     1     -11.060  -9.793  16.192  0.00  0.00    +0.085 C 
ATOM     20  C   UNL     1      -9.114  -9.708  17.637  0.00  0.00    +0.085 C 
ATOM     23  C   UNL     1     -11.330  -9.643  18.581  0.00  0.00    +0.104 C 
ENDBRANCH   2  15
ENDBRANCH  13   2
ENDBRANCH   7  13
TORSDOF 5
ENDMDL
MODEL 5
REMARK VINA RESULT:      -6.5      2.989      7.012
REMARK  Name = 45360474
REMARK  7 active torsions:
REMARK  status: ('A' for Active; 'I' for Inactive)
REMARK    1  A    between atoms: N_2  and  C_13
REMARK    2  A    between atoms: N_2  and  C_15
REMARK    3  A    between atoms: N_4  and  C_23
REMARK    4  A    between atoms: C_7  and  C_13
REMARK    5  A    between atoms: C_8  and  C_14
REMARK    6  A    between atoms: C_21  and  C_24
REMARK    7  A    between atoms: C_22  and  C_25
REMARK                            x       y       z     vdW  Elec       q    Type
REMARK                         _______ _______ _______ _____ _____    ______ ____
ROOT
ATOM      1  N   UNL     1      12.060   8.235  21.414  0.00  0.00    -0.298 NA
ATOM      6  C   UNL     1      13.691   7.478  19.531  0.00  0.00    +0.002 C 
ATOM      7  C   UNL     1      12.124   9.272  20.350  0.00  0.00    +0.071 C 
ATOM      8  C   UNL     1      14.365   7.335  20.923  0.00  0.00    +0.055 C 
ATOM      9  C   UNL     1      13.236   8.939  19.332  0.00  0.00    +0.024 C 
ATOM     10  C   UNL     1      12.418   6.606  19.560  0.00  0.00    +0.019 C 
ATOM     11  C   UNL     1      13.415   7.990  21.967  0.00  0.00    +0.094 C 
ATOM     12  C   UNL     1      11.578   6.977  20.795  0.00  0.00    +0.085 C 
ENDROOT
BRANCH   8  14
ATOM      3  N   UNL     1      16.004   9.138  21.134  0.00  0.00    -0.237 NA
ATOM      5  N   UNL     1      18.365   8.710  21.348  0.00  0.00    -0.232 NA
ATOM     14  C   UNL     1      15.804   7.805  21.076  0.00  0.00    +0.050 A 
ATOM     18  C   UNL     1      16.821   6.875  21.147  0.00  0.00    +0.052 A 
ATOM     21  C   UNL     1      18.094   7.390  21.285  0.00  0.00    +0.075 A 
ATOM     22  C   UNL     1      17.289   9.516  21.268  0.00  0.00    +0.127 A 
ATOM     25  C   UNL     1      17.549  10.983  21.333  0.00  0.00    +0.088 C 
BRANCH  21  24
ATOM     24  C   UNL     1      19.244   6.522  21.368  0.00  0.00    +0.000 A 
ATOM     26  C   UNL     1      19.493   5.595  20.356  0.00  0.00    +0.010 A 
ATOM     27  C   UNL     1      20.106   6.610  22.461  0.00  0.00    +0.010 A 
ATOM     28  C   UNL     1      20.604   4.757  20.436  0.00  0.00    +0.001 A 
ATOM     29  C   UNL     1      21.218   5.770  22.541  0.00  0.00    +0.001 A 
ATOM     30  C   UNL     1      21.467   4.844  21.528  0.00  0.00    +0.000 A 
ENDBRANCH  21  24
ENDBRANCH   8  14
BRANCH   7  13
ATOM     13  C   UNL     1      12.276  10.683  20.920  0.00  0.00    +0.100 C 
BRANCH  13   2
ATOM      2  N   UNL     1      11.323  10.911  21.995  0.00  0.00    -0.312 NA
ATOM     31  H   UNL     1      11.084  10.015  22.420  0.00  0.00    +0.122 HD
BRANCH   2  15
ATOM      4  N   UNL     1      13.148  12.174  25.619  0.00  0.00    -0.305 NA
ATOM     15  C   UNL     1      11.878  11.804  23.009  0.00  0.00    +0.056 C 
ATOM     16  C   UNL     1      13.353  11.477  23.252  0.00  0.00    +0.034 C 
ATOM     17  C   UNL     1      11.095  11.698  24.321  0.00  0.00    +0.034 C 
ATOM     19  C   UNL     1      13.926  12.336  24.383  0.00  0.00    +0.085 C 
ATOM     20  C   UNL     1      11.741  12.549  25.416  0.00  0.00    +0.085 C 
ATOM     23  C   UNL     1      13.736  12.961  26.701  0.00  0.00    +0.104 C 
ENDBRANCH   2  15
ENDBRANCH  13   2
ENDBRANCH   7  13
TORSDOF 5
ENDMDL
MODEL 6
REMARK VINA RESULT:      -6.4     27.564     29.511
REMARK  Name = 45360474
REMARK  7 active torsions:
REMARK  status: ('A' for Active; 'I' for Inactive)
REMARK    1  A    between atoms: N_2  and  C_13
REMARK    2  A    between atoms: N_2  and  C_15
REMARK    3  A    between atoms: N_4  and  C_23
REMARK    4  A    between atoms: C_7  and  C_13
REMARK    5  A    between atoms: C_8  and  C_14
REMARK    6  A    between atoms: C_21  and  C_24
REMARK    7  A    between atoms: C_22  and  C_25
REMARK                            x       y       z     vdW  Elec       q    Type
REMARK                         _______ _______ _______ _____ _____    ______ ____
ROOT
ATOM      1  N   UNL     1      -6.953 -10.744  19.672  0.00  0.00    -0.298 NA
ATOM      6  C   UNL     1      -5.786 -12.049  17.745  0.00  0.00    +0.002 C 
ATOM      7  C   UNL     1      -7.697 -11.999  19.385  0.00  0.00    +0.071 C 
ATOM      8  C   UNL     1      -6.001 -10.564  17.343  0.00  0.00    +0.055 C 
ATOM      9  C   UNL     1      -7.144 -12.680  18.115  0.00  0.00    +0.024 C 
ATOM     10  C   UNL     1      -4.924 -12.043  19.026  0.00  0.00    +0.019 C 
ATOM     11  C   UNL     1      -6.875  -9.907  18.449  0.00  0.00    +0.094 C 
ATOM     12  C   UNL     1      -5.573 -11.114  20.068  0.00  0.00    +0.085 C 
ENDROOT
BRANCH   8  14
ATOM      3  N   UNL     1      -7.859 -10.163  15.803  0.00  0.00    -0.237 NA
ATOM      5  N   UNL     1      -7.514  -9.739  13.457  0.00  0.00    -0.232 NA
ATOM     14  C   UNL     1      -6.521 -10.267  15.944  0.00  0.00    +0.050 A 
ATOM     18  C   UNL     1      -5.628 -10.122  14.902  0.00  0.00    +0.052 A 
ATOM     21  C   UNL     1      -6.187  -9.856  13.669  0.00  0.00    +0.075 A 
ATOM     22  C   UNL     1      -8.281  -9.901  14.552  0.00  0.00    +0.127 A 
ATOM     25  C   UNL     1      -9.754  -9.781  14.357  0.00  0.00    +0.088 C 
BRANCH  21  24
ATOM     24  C   UNL     1      -5.361  -9.684  12.497  0.00  0.00    +0.000 A 
ATOM     26  C   UNL     1      -5.787  -8.855  11.459  0.00  0.00    +0.010 A 
ATOM     27  C   UNL     1      -4.138 -10.347  12.403  0.00  0.00    +0.010 A 
ATOM     28  C   UNL     1      -4.990  -8.689  10.328  0.00  0.00    +0.001 A 
ATOM     29  C   UNL     1      -3.341 -10.181  11.269  0.00  0.00    +0.001 A 
ATOM     30  C   UNL     1      -3.767  -9.351  10.232  0.00  0.00    +0.000 A 
ENDBRANCH  21  24
ENDBRANCH   8  14
BRANCH   7  13
ATOM     13  C   UNL     1      -9.208 -11.773  19.301  0.00  0.00    +0.100 C 
BRANCH  13   2
ATOM      2  N   UNL     1      -9.637 -10.783  20.275  0.00  0.00    -0.312 NA
ATOM     31  H   UNL     1      -8.855 -10.161  20.481  0.00  0.00    +0.122 HD
BRANCH   2  15
ATOM      4  N   UNL     1     -13.011  -9.731  17.916  0.00  0.00    -0.305 NA
ATOM     15  C   UNL     1     -10.765 -10.003  19.770  0.00  0.00    +0.056 C 
ATOM     16  C   UNL     1     -12.070 -10.782  19.949  0.00  0.00    +0.034 C 
ATOM     17  C   UNL     1     -10.567  -9.646  18.294  0.00  0.00    +0.034 C 
ATOM     19  C   UNL     1     -13.250 -10.024  19.336  0.00  0.00    +0.085 C 
ATOM     20  C   UNL     1     -11.796  -8.925  17.736  0.00  0.00    +0.085 C 
ATOM     23  C   UNL     1     -14.168  -9.051  17.333  0.00  0.00    +0.104 C 
ENDBRANCH   2  15
ENDBRANCH  13   2
ENDBRANCH   7  13
TORSDOF 5
ENDMDL
MODEL 7
REMARK VINA RESULT:      -6.1     15.875     19.327
REMARK  Name = 45360474
REMARK  7 active torsions:
REMARK  status: ('A' for Active; 'I' for Inactive)
REMARK    1  A    between atoms: N_2  and  C_13
REMARK    2  A    between atoms: N_2  and  C_15
REMARK    3  A    between atoms: N_4  and  C_23
REMARK    4  A    between atoms: C_7  and  C_13
REMARK    5  A    between atoms: C_8  and  C_14
REMARK    6  A    between atoms: C_21  and  C_24
REMARK    7  A    between atoms: C_22  and  C_25
REMARK                            x       y       z     vdW  Elec       q    Type
REMARK                         _______ _______ _______ _____ _____    ______ ____
ROOT
ATOM      1  N   UNL     1      10.254   6.026   5.694  0.00  0.00    -0.298 NA
ATOM      6  C   UNL     1       9.694   6.919   3.313  0.00  0.00    +0.002 C 
ATOM      7  C   UNL     1      11.047   7.251   5.411  0.00  0.00    +0.071 C 
ATOM      8  C   UNL     1      10.020   5.401   3.261  0.00  0.00    +0.055 C 
ATOM      9  C   UNL     1      10.886   7.676   3.936  0.00  0.00    +0.024 C 
ATOM     10  C   UNL     1       8.498   7.085   4.275  0.00  0.00    +0.019 C 
ATOM     11  C   UNL     1      10.536   4.990   4.670  0.00  0.00    +0.094 C 
ATOM     12  C   UNL     1       8.818   6.384   5.607  0.00  0.00    +0.085 C 
ENDROOT
BRANCH   8  14
ATOM      3  N   UNL     1      12.221   4.700   2.458  0.00  0.00    -0.237 NA
ATOM      5  N   UNL     1      12.595   3.999   0.183  0.00  0.00    -0.232 NA
ATOM     14  C   UNL     1      10.924   4.898   2.145  0.00  0.00    +0.050 A 
ATOM     18  C   UNL     1      10.395   4.672   0.890  0.00  0.00    +0.052 A 
ATOM     21  C   UNL     1      11.286   4.218  -0.061  0.00  0.00    +0.075 A 
ATOM     22  C   UNL     1      12.990   4.257   1.445  0.00  0.00    +0.127 A 
ATOM     25  C   UNL     1      14.430   4.028   1.753  0.00  0.00    +0.088 C 
BRANCH  21  24
ATOM     24  C   UNL     1      10.860   3.945  -1.412  0.00  0.00    +0.000 A 
ATOM     26  C   UNL     1       9.922   4.774  -2.028  0.00  0.00    +0.010 A 
ATOM     27  C   UNL     1      11.385   2.853  -2.102  0.00  0.00    +0.010 A 
ATOM     28  C   UNL     1       9.510   4.511  -3.334  0.00  0.00    +0.001 A 
ATOM     29  C   UNL     1      10.971   2.590  -3.409  0.00  0.00    +0.001 A 
ATOM     30  C   UNL     1      10.034   3.420  -4.024  0.00  0.00    +0.000 A 
ENDBRANCH  21  24
ENDBRANCH   8  14
BRANCH   7  13
ATOM     13  C   UNL     1      12.518   7.096   5.803  0.00  0.00    +0.100 C 
BRANCH  13   2
ATOM      2  N   UNL     1      13.340   6.845   4.630  0.00  0.00    -0.312 NA
ATOM     31  H   UNL     1      12.771   6.975   3.794  0.00  0.00    +0.122 HD
BRANCH   2  15
ATOM      4  N   UNL     1      17.381   8.157   4.736  0.00  0.00    -0.305 NA
ATOM     15  C   UNL     1      14.488   7.749   4.589  0.00  0.00    +0.056 C 
ATOM     16  C   UNL     1      15.425   7.364   3.443  0.00  0.00    +0.034 C 
ATOM     17  C   UNL     1      15.249   7.727   5.918  0.00  0.00    +0.034 C 
ATOM     19  C   UNL     1      16.682   8.237   3.446  0.00  0.00    +0.085 C 
ATOM     20  C   UNL     1      16.512   8.589   5.840  0.00  0.00    +0.085 C 
ATOM     23  C   UNL     1      18.605   8.956   4.705  0.00  0.00    +0.104 C 
ENDBRANCH   2  15
ENDBRANCH  13   2
ENDBRANCH   7  13
TORSDOF 5
ENDMDL
MODEL 8
REMARK VINA RESULT:      -6.0     27.166     29.083
REMARK  Name = 45360474
REMARK  7 active torsions:
REMARK  status: ('A' for Active; 'I' for Inactive)
REMARK    1  A    between atoms: N_2  and  C_13
REMARK    2  A    between atoms: N_2  and  C_15
REMARK    3  A    between atoms: N_4  and  C_23
REMARK    4  A    between atoms: C_7  and  C_13
REMARK    5  A    between atoms: C_8  and  C_14
REMARK    6  A    between atoms: C_21  and  C_24
REMARK    7  A    between atoms: C_22  and  C_25
REMARK                            x       y       z     vdW  Elec       q    Type
REMARK                         _______ _______ _______ _____ _____    ______ ____
ROOT
ATOM      1  N   UNL     1      -6.319 -10.351  17.782  0.00  0.00    -0.298 NA
ATOM      6  C   UNL     1      -4.577 -12.265  17.497  0.00  0.00    +0.002 C 
ATOM      7  C   UNL     1      -7.012 -11.621  17.437  0.00  0.00    +0.071 C 
ATOM      8  C   UNL     1      -4.156 -11.020  16.669  0.00  0.00    +0.055 C 
ATOM      9  C   UNL     1      -5.988 -12.714  17.062  0.00  0.00    +0.024 C 
ATOM     10  C   UNL     1      -4.679 -11.809  18.968  0.00  0.00    +0.019 C 
ATOM     11  C   UNL     1      -5.334 -10.006  16.727  0.00  0.00    +0.094 C 
ATOM     12  C   UNL     1      -5.582 -10.565  19.050  0.00  0.00    +0.085 C 
ENDROOT
BRANCH   8  14
ATOM      3  N   UNL     1      -2.708 -12.187  15.080  0.00  0.00    -0.237 NA
ATOM      5  N   UNL     1      -2.704 -11.670  12.726  0.00  0.00    -0.232 NA
ATOM     14  C   UNL     1      -3.651 -11.238  15.250  0.00  0.00    +0.050 A 
ATOM     18  C   UNL     1      -4.164 -10.474  14.220  0.00  0.00    +0.052 A 
ATOM     21  C   UNL     1      -3.648 -10.737  12.968  0.00  0.00    +0.075 A 
ATOM     22  C   UNL     1      -2.285 -12.349  13.812  0.00  0.00    +0.127 A 
ATOM     25  C   UNL     1      -1.241 -13.388  13.585  0.00  0.00    +0.088 C 
BRANCH  21  24
ATOM     24  C   UNL     1      -4.099 -10.006  11.808  0.00  0.00    +0.000 A 
ATOM     26  C   UNL     1      -5.382  -9.459  11.783  0.00  0.00    +0.010 A 
ATOM     27  C   UNL     1      -3.252  -9.846  10.711  0.00  0.00    +0.010 A 
ATOM     28  C   UNL     1      -5.818  -8.753  10.663  0.00  0.00    +0.001 A 
ATOM     29  C   UNL     1      -3.690  -9.140   9.590  0.00  0.00    +0.001 A 
ATOM     30  C   UNL     1      -4.972  -8.593   9.566  0.00  0.00    +0.000 A 
ENDBRANCH  21  24
ENDBRANCH   8  14
BRANCH   7  13
ATOM     13  C   UNL     1      -8.068 -11.430  16.348  0.00  0.00    +0.100 C 
BRANCH  13   2
ATOM      2  N   UNL     1      -9.042 -10.425  16.743  0.00  0.00    -0.312 NA
ATOM     31  H   UNL     1      -9.706 -10.291  15.982  0.00  0.00    +0.122 HD
BRANCH   2  15
ATOM      4  N   UNL     1     -12.278 -11.208  19.383  0.00  0.00    -0.305 NA
ATOM     15  C   UNL     1      -9.755 -10.831  17.953  0.00  0.00    +0.056 C 
ATOM     16  C   UNL     1     -10.702 -11.993  17.644  0.00  0.00    +0.034 C 
ATOM     17  C   UNL     1     -10.540  -9.658  18.546  0.00  0.00    +0.034 C 
ATOM     19  C   UNL     1     -11.530 -12.366  18.875  0.00  0.00    +0.085 C 
ATOM     20  C   UNL     1     -11.374 -10.109  19.747  0.00  0.00    +0.085 C 
ATOM     23  C   UNL     1     -13.103 -11.594  20.528  0.00  0.00    +0.104 C 
ENDBRANCH   2  15
ENDBRANCH  13   2
ENDBRANCH   7  13
TORSDOF 5
ENDMDL
MODEL 9
REMARK VINA RESULT:      -6.0     27.025     29.477
REMARK  Name = 45360474
REMARK  7 active torsions:
REMARK  status: ('A' for Active; 'I' for Inactive)
REMARK    1  A    between atoms: N_2  and  C_13
REMARK    2  A    between atoms: N_2  and  C_15
REMARK    3  A    between atoms: N_4  and  C_23
REMARK    4  A    between atoms: C_7  and  C_13
REMARK    5  A    between atoms: C_8  and  C_14
REMARK    6  A    between atoms: C_21  and  C_24
REMARK    7  A    between atoms: C_22  and  C_25
REMARK                            x       y       z     vdW  Elec       q    Type
REMARK                         _______ _______ _______ _____ _____    ______ ____
ROOT
ATOM      1  N   UNL     1      -5.042 -12.854  17.178  0.00  0.00    -0.298 NA
ATOM      6  C   UNL     1      -5.699 -10.660  18.419  0.00  0.00    +0.002 C 
ATOM      7  C   UNL     1      -4.444 -11.681  16.487  0.00  0.00    +0.071 C 
ATOM      8  C   UNL     1      -6.958 -11.530  18.149  0.00  0.00    +0.055 C 
ATOM      9  C   UNL     1      -4.989 -10.364  17.081  0.00  0.00    +0.024 C 
ATOM     10  C   UNL     1      -4.736 -11.521  19.264  0.00  0.00    +0.019 C 
ATOM     11  C   UNL     1      -6.518 -12.711  17.237  0.00  0.00    +0.094 C 
ATOM     12  C   UNL     1      -4.524 -12.876  18.567  0.00  0.00    +0.085 C 
ENDROOT
BRANCH   8  14
ATOM      3  N   UNL     1      -8.165 -10.355  16.376  0.00  0.00    -0.237 NA
ATOM      5  N   UNL     1     -10.431  -9.586  16.657  0.00  0.00    -0.232 NA
ATOM     14  C   UNL     1      -8.212 -10.839  17.634  0.00  0.00    +0.050 A 
ATOM     18  C   UNL     1      -9.318 -10.737  18.454  0.00  0.00    +0.052 A 
ATOM     21  C   UNL     1     -10.410 -10.094  17.906  0.00  0.00    +0.075 A 
ATOM     22  C   UNL     1      -9.292  -9.748  15.957  0.00  0.00    +0.127 A 
ATOM     25  C   UNL     1      -9.276  -9.199  14.571  0.00  0.00    +0.088 C 
BRANCH  21  24
ATOM     24  C   UNL     1     -11.628  -9.920  18.660  0.00  0.00    +0.000 A 
ATOM     26  C   UNL     1     -11.601  -9.985  20.053  0.00  0.00    +0.010 A 
ATOM     27  C   UNL     1     -12.832  -9.688  17.997  0.00  0.00    +0.010 A 
ATOM     28  C   UNL     1     -12.777  -9.817  20.783  0.00  0.00    +0.001 A 
ATOM     29  C   UNL     1     -14.009  -9.520  18.727  0.00  0.00    +0.001 A 
ATOM     30  C   UNL     1     -13.982  -9.584  20.120  0.00  0.00    +0.000 A 
ENDBRANCH  21  24
ENDBRANCH   8  14
BRANCH   7  13
ATOM     13  C   UNL     1      -4.629 -11.742  14.970  0.00  0.00    +0.100 C 
BRANCH  13   2
ATOM      2  N   UNL     1      -3.352 -11.600  14.289  0.00  0.00    -0.312 NA
ATOM     31  H   UNL     1      -3.096 -12.497  13.877  0.00  0.00    +0.122 HD
BRANCH   2  15
ATOM      4  N   UNL     1      -3.965  -9.862  10.459  0.00  0.00    -0.305 NA
ATOM     15  C   UNL     1      -3.425 -10.581  13.243  0.00  0.00    +0.056 C 
ATOM     16  C   UNL     1      -4.847 -10.499  12.683  0.00  0.00    +0.034 C 
ATOM     17  C   UNL     1      -2.434 -10.882  12.115  0.00  0.00    +0.034 C 
ATOM     19  C   UNL     1      -4.920  -9.508  11.518  0.00  0.00    +0.085 C 
ATOM     20  C   UNL     1      -2.587  -9.879  10.970  0.00  0.00    +0.085 C 
ATOM     23  C   UNL     1      -4.083  -8.936   9.333  0.00  0.00    +0.104 C 
ENDBRANCH   2  15
ENDBRANCH  13   2
ENDBRANCH   7  13
TORSDOF 5
ENDMDL
MODEL 10
REMARK VINA RESULT:      -6.0     25.311     29.251
REMARK  Name = 45360474
REMARK  7 active torsions:
REMARK  status: ('A' for Active; 'I' for Inactive)
REMARK    1  A    between atoms: N_2  and  C_13
REMARK    2  A    between atoms: N_2  and  C_15
REMARK    3  A    between atoms: N_4  and  C_23
REMARK    4  A    between atoms: C_7  and  C_13
REMARK    5  A    between atoms: C_8  and  C_14
REMARK    6  A    between atoms: C_21  and  C_24
REMARK    7  A    between atoms: C_22  and  C_25
REMARK                            x       y       z     vdW  Elec       q    Type
REMARK                         _______ _______ _______ _____ _____    ______ ____
ROOT
ATOM      1  N   UNL     1      -6.009 -11.209  10.632  0.00  0.00    -0.298 NA
ATOM      6  C   UNL     1      -3.682 -10.137  11.097  0.00  0.00    +0.002 C 
ATOM      7  C   UNL     1      -6.123  -9.727  10.629  0.00  0.00    +0.071 C 
ATOM      8  C   UNL     1      -3.998 -11.230  12.156  0.00  0.00    +0.055 C 
ATOM      9  C   UNL     1      -4.805  -9.079  11.106  0.00  0.00    +0.024 C 
ATOM     10  C   UNL     1      -3.720 -10.829   9.718  0.00  0.00    +0.019 C 
ATOM     11  C   UNL     1      -5.472 -11.676  11.935  0.00  0.00    +0.094 C 
ATOM     12  C   UNL     1      -5.047 -11.593   9.571  0.00  0.00    +0.085 C 
ENDROOT
BRANCH   8  14
ATOM      3  N   UNL     1      -2.408 -10.725  13.944  0.00  0.00    -0.237 NA
ATOM      5  N   UNL     1      -3.106 -10.374  16.223  0.00  0.00    -0.232 NA
ATOM     14  C   UNL     1      -3.701 -10.923  13.616  0.00  0.00    +0.050 A 
ATOM     18  C   UNL     1      -4.739 -10.864  14.524  0.00  0.00    +0.052 A 
ATOM     21  C   UNL     1      -4.379 -10.582  15.826  0.00  0.00    +0.075 A 
ATOM     22  C   UNL     1      -2.184 -10.459  15.245  0.00  0.00    +0.127 A 
ATOM     25  C   UNL     1      -0.765 -10.236  15.645  0.00  0.00    +0.088 C 
BRANCH  21  24
ATOM     24  C   UNL     1      -5.369 -10.494  16.872  0.00  0.00    +0.000 A 
ATOM     26  C   UNL     1      -5.059 -10.918  18.164  0.00  0.00    +0.010 A 
ATOM     27  C   UNL     1      -6.637  -9.986  16.590  0.00  0.00    +0.010 A 
ATOM     28  C   UNL     1      -6.015 -10.833  19.174  0.00  0.00    +0.001 A 
ATOM     29  C   UNL     1      -7.594  -9.902  17.602  0.00  0.00    +0.001 A 
ATOM     30  C   UNL     1      -7.283 -10.325  18.894  0.00  0.00    +0.000 A 
ENDBRANCH  21  24
ENDBRANCH   8  14
BRANCH   7  13
ATOM     13  C   UNL     1      -7.326  -9.234  11.435  0.00  0.00    +0.100 C 
BRANCH  13   2
ATOM      2  N   UNL     1      -8.504  -9.125  10.590  0.00  0.00    -0.312 NA
ATOM     31  H   UNL     1      -9.117  -8.403  10.969  0.00  0.00    +0.122 HD
BRANCH   2  15
ATOM      4  N   UNL     1      -8.936  -8.016   6.510  0.00  0.00    -0.305 NA
ATOM     15  C   UNL     1      -8.136  -8.787   9.217  0.00  0.00    +0.056 C 
ATOM     16  C   UNL     1      -8.603  -7.370   8.877  0.00  0.00    +0.034 C 
ATOM     17  C   UNL     1      -8.737  -9.788   8.226  0.00  0.00    +0.034 C 
ATOM     19  C   UNL     1      -8.316  -7.035   7.411  0.00  0.00    +0.085 C 
ATOM     20  C   UNL     1      -8.445  -9.374   6.782  0.00  0.00    +0.085 C 
ATOM     23  C   UNL     1      -8.694  -7.653   5.114  0.00  0.00    +0.104 C 
ENDBRANCH   2  15
ENDBRANCH  13   2
ENDBRANCH   7  13
TORSDOF 5
ENDMDL
