MODEL 1
REMARK VINA RESULT:      -7.6      0.000      0.000
REMARK  Name = 11913188
REMARK  11 active torsions:
REMARK  status: ('A' for Active; 'I' for Inactive)
REMARK    1  A    between atoms: O_3  and  C_35
REMARK    2  A    between atoms: O_3  and  C_36
REMARK    3  A    between atoms: N_6  and  C_18
REMARK    4  A    between atoms: N_7  and  C_19
REMARK    5  A    between atoms: C_8  and  C_14
REMARK    6  A    between atoms: C_9  and  C_13
REMARK    7  A    between atoms: C_13  and  C_15
REMARK    8  A    between atoms: C_14  and  C_16
REMARK    9  A    between atoms: C_18  and  C_20
REMARK   10  A    between atoms: C_26  and  C_35
REMARK   11  A    between atoms: C_36  and  C_37
REMARK                            x       y       z     vdW  Elec       q    Type
REMARK                         _______ _______ _______ _____ _____    ______ ____
ROOT
ATOM      2  O   UNL     1      -8.130 -13.999  17.000  0.00  0.00    -0.252 OA
ATOM      5  N   UNL     1      -6.009 -13.359  17.659  0.00  0.00    -0.285 N 
ATOM      7  N   UNL     1      -7.801 -13.315  19.193  0.00  0.00    -0.269 N 
ATOM      8  C   UNL     1      -3.763 -11.754  16.790  0.00  0.00    +0.004 C 
ATOM      9  C   UNL     1      -4.365 -11.588  18.211  0.00  0.00    +0.010 C 
ATOM     10  C   UNL     1      -4.795 -12.315  15.795  0.00  0.00    +0.023 C 
ATOM     11  C   UNL     1      -5.019 -12.908  18.649  0.00  0.00    +0.113 C 
ATOM     12  C   UNL     1      -5.452 -13.589  16.325  0.00  0.00    +0.109 C 
ATOM     17  C   UNL     1      -7.379 -13.598  17.893  0.00  0.00    +0.306 C 
ATOM     39  H   UNL     1      -7.132 -13.409  19.947  0.00  0.00    +0.156 HD
ENDROOT
BRANCH   7  19
ATOM     19  C   UNL     1      -9.086 -12.884  19.604  0.00  0.00    +0.036 A 
ATOM     22  C   UNL     1      -9.585 -11.657  19.165  0.00  0.00    +0.038 A 
ATOM     23  C   UNL     1      -9.853 -13.687  20.449  0.00  0.00    +0.023 A 
ATOM     26  C   UNL     1     -10.850 -11.233  19.571  0.00  0.00    +0.061 A 
ATOM     27  C   UNL     1     -11.119 -13.262  20.854  0.00  0.00    +0.003 A 
ATOM     31  C   UNL     1     -11.616 -12.035  20.415  0.00  0.00    +0.015 A 
BRANCH  26  35
ATOM      4  O   UNL     1     -12.496  -9.519  19.386  0.00  0.00    -0.245 OA
ATOM     35  C   UNL     1     -11.370  -9.954  19.114  0.00  0.00    +0.339 C 
BRANCH  35   3
ATOM      3  O   UNL     1     -10.457  -9.287  18.342  0.00  0.00    -0.461 OA
BRANCH   3  36
ATOM     36  C   UNL     1     -10.933  -8.736  17.110  0.00  0.00    +0.229 C 
ATOM     37  C   UNL     1     -10.155  -7.473  16.802  0.00  0.00    +0.048 C 
ENDBRANCH   3  36
ENDBRANCH  35   3
ENDBRANCH  26  35
ENDBRANCH   7  19
BRANCH   9  13
ATOM     13  C   UNL     1      -5.359 -10.429  18.337  0.00  0.00    +0.002 C 
ATOM     15  C   UNL     1      -6.004 -10.408  19.707  0.00  0.00    +0.004 C 
ENDBRANCH   9  13
BRANCH   8  14
ATOM     14  C   UNL     1      -3.137 -10.469  16.250  0.00  0.00    +0.099 C 
BRANCH  14  16
ATOM      1  O   UNL     1      -1.125 -11.313  15.204  0.00  0.00    -0.276 OA
ATOM      6  N   UNL     1      -2.719 -10.229  13.904  0.00  0.00    -0.311 N 
ATOM     16  C   UNL     1      -2.201 -10.731  15.090  0.00  0.00    +0.214 C 
ATOM     38  H   UNL     1      -3.621  -9.763  13.904  0.00  0.00    +0.149 HD
BRANCH   6  18
ATOM     18  C   UNL     1      -2.034 -10.336  12.637  0.00  0.00    +0.140 C 
BRANCH  18  20
ATOM     20  C   UNL     1      -2.765 -11.228  11.675  0.00  0.00    -0.023 A 
ATOM     21  C   UNL     1      -3.430 -10.721  10.546  0.00  0.00    -0.013 A 
ATOM     24  C   UNL     1      -2.761 -12.597  11.943  0.00  0.00    +0.006 A 
ATOM     25  C   UNL     1      -4.100 -11.615   9.678  0.00  0.00    -0.018 A 
ATOM     28  C   UNL     1      -3.444  -9.346  10.261  0.00  0.00    +0.009 A 
ATOM     29  C   UNL     1      -3.420 -13.476  11.089  0.00  0.00    +0.001 A 
ATOM     30  C   UNL     1      -4.085 -12.990   9.964  0.00  0.00    +0.008 A 
ATOM     32  C   UNL     1      -4.765 -11.108   8.550  0.00  0.00    +0.008 A 
ATOM     33  C   UNL     1      -4.110  -8.859   9.135  0.00  0.00    +0.001 A 
ATOM     34  C   UNL     1      -4.769  -9.739   8.281  0.00  0.00    +0.001 A 
ENDBRANCH  18  20
ENDBRANCH   6  18
ENDBRANCH  14  16
ENDBRANCH   8  14
TORSDOF 9
ENDMDL
MODEL 2
REMARK VINA RESULT:      -7.3      1.589      2.943
REMARK  Name = 11913188
REMARK  11 active torsions:
REMARK  status: ('A' for Active; 'I' for Inactive)
REMARK    1  A    between atoms: O_3  and  C_35
REMARK    2  A    between atoms: O_3  and  C_36
REMARK    3  A    between atoms: N_6  and  C_18
REMARK    4  A    between atoms: N_7  and  C_19
REMARK    5  A    between atoms: C_8  and  C_14
REMARK    6  A    between atoms: C_9  and  C_13
REMARK    7  A    between atoms: C_13  and  C_15
REMARK    8  A    between atoms: C_14  and  C_16
REMARK    9  A    between atoms: C_18  and  C_20
REMARK   10  A    between atoms: C_26  and  C_35
REMARK   11  A    between atoms: C_36  and  C_37
REMARK                            x       y       z     vdW  Elec       q    Type
REMARK                         _______ _______ _______ _____ _____    ______ ____
ROOT
ATOM      2  O   UNL     1      -8.339 -13.719  16.965  0.00  0.00    -0.252 OA
ATOM      5  N   UNL     1      -6.177 -13.234  17.623  0.00  0.00    -0.285 N 
ATOM      7  N   UNL     1      -7.940 -13.199  19.190  0.00  0.00    -0.269 N 
ATOM      8  C   UNL     1      -3.864 -11.693  16.817  0.00  0.00    +0.004 C 
ATOM      9  C   UNL     1      -4.433 -11.590  18.257  0.00  0.00    +0.010 C 
ATOM     10  C   UNL     1      -4.939 -12.134  15.807  0.00  0.00    +0.023 C 
ATOM     11  C   UNL     1      -5.149 -12.901  18.621  0.00  0.00    +0.113 C 
ATOM     12  C   UNL     1      -5.654 -13.404  16.267  0.00  0.00    +0.109 C 
ATOM     17  C   UNL     1      -7.555 -13.417  17.868  0.00  0.00    +0.306 C 
ATOM     39  H   UNL     1      -7.266 -13.376  19.925  0.00  0.00    +0.156 HD
ENDROOT
BRANCH   7  19
ATOM     19  C   UNL     1      -9.194 -12.729  19.654  0.00  0.00    +0.036 A 
ATOM     22  C   UNL     1     -10.027 -13.572  20.390  0.00  0.00    +0.038 A 
ATOM     23  C   UNL     1      -9.596 -11.423  19.373  0.00  0.00    +0.023 A 
ATOM     26  C   UNL     1     -11.261 -13.110  20.845  0.00  0.00    +0.061 A 
ATOM     27  C   UNL     1     -10.831 -10.961  19.829  0.00  0.00    +0.003 A 
ATOM     31  C   UNL     1     -11.663 -11.805  20.565  0.00  0.00    +0.015 A 
BRANCH  26  35
ATOM      4  O   UNL     1     -12.700 -14.986  21.151  0.00  0.00    -0.245 OA
ATOM     35  C   UNL     1     -12.129 -13.989  21.612  0.00  0.00    +0.339 C 
BRANCH  35   3
ATOM      3  O   UNL     1     -12.238 -13.578  22.913  0.00  0.00    -0.461 OA
BRANCH   3  36
ATOM     36  C   UNL     1     -12.370 -14.602  23.905  0.00  0.00    +0.229 C 
ATOM     37  C   UNL     1     -10.990 -15.031  24.358  0.00  0.00    +0.048 C 
ENDBRANCH   3  36
ENDBRANCH  35   3
ENDBRANCH  26  35
ENDBRANCH   7  19
BRANCH   9  13
ATOM     13  C   UNL     1      -5.363 -10.392  18.477  0.00  0.00    +0.002 C 
ATOM     15  C   UNL     1      -5.992 -10.433  19.854  0.00  0.00    +0.004 C 
ENDBRANCH   9  13
BRANCH   8  14
ATOM     14  C   UNL     1      -3.179 -10.410  16.349  0.00  0.00    +0.099 C 
BRANCH  14  16
ATOM      1  O   UNL     1      -1.071 -11.119  15.398  0.00  0.00    -0.276 OA
ATOM      6  N   UNL     1      -2.739 -10.306  13.998  0.00  0.00    -0.311 N 
ATOM     16  C   UNL     1      -2.197 -10.661  15.225  0.00  0.00    +0.214 C 
ATOM     38  H   UNL     1      -3.684  -9.937  13.950  0.00  0.00    +0.149 HD
BRANCH   6  18
ATOM     18  C   UNL     1      -2.021 -10.436  12.751  0.00  0.00    +0.140 C 
BRANCH  18  20
ATOM     20  C   UNL     1      -2.760 -11.294  11.764  0.00  0.00    -0.023 A 
ATOM     21  C   UNL     1      -3.396 -10.749  10.635  0.00  0.00    -0.013 A 
ATOM     24  C   UNL     1      -2.792 -12.667  12.006  0.00  0.00    +0.006 A 
ATOM     25  C   UNL     1      -4.076 -11.611   9.742  0.00  0.00    -0.018 A 
ATOM     28  C   UNL     1      -3.375  -9.369  10.376  0.00  0.00    +0.009 A 
ATOM     29  C   UNL     1      -3.459 -13.514  11.126  0.00  0.00    +0.001 A 
ATOM     30  C   UNL     1      -4.097 -12.991  10.002  0.00  0.00    +0.008 A 
ATOM     32  C   UNL     1      -4.712 -11.068   8.615  0.00  0.00    +0.008 A 
ATOM     33  C   UNL     1      -4.013  -8.847   9.251  0.00  0.00    +0.001 A 
ATOM     34  C   UNL     1      -4.680  -9.694   8.371  0.00  0.00    +0.001 A 
ENDBRANCH  18  20
ENDBRANCH   6  18
ENDBRANCH  14  16
ENDBRANCH   8  14
TORSDOF 9
ENDMDL
MODEL 3
REMARK VINA RESULT:      -7.0     25.503     28.371
REMARK  Name = 11913188
REMARK  11 active torsions:
REMARK  status: ('A' for Active; 'I' for Inactive)
REMARK    1  A    between atoms: O_3  and  C_35
REMARK    2  A    between atoms: O_3  and  C_36
REMARK    3  A    between atoms: N_6  and  C_18
REMARK    4  A    between atoms: N_7  and  C_19
REMARK    5  A    between atoms: C_8  and  C_14
REMARK    6  A    between atoms: C_9  and  C_13
REMARK    7  A    between atoms: C_13  and  C_15
REMARK    8  A    between atoms: C_14  and  C_16
REMARK    9  A    between atoms: C_18  and  C_20
REMARK   10  A    between atoms: C_26  and  C_35
REMARK   11  A    between atoms: C_36  and  C_37
REMARK                            x       y       z     vdW  Elec       q    Type
REMARK                         _______ _______ _______ _____ _____    ______ ____
ROOT
ATOM      2  O   UNL     1       8.403   7.544   8.079  0.00  0.00    -0.252 OA
ATOM      5  N   UNL     1      10.232   6.753   6.907  0.00  0.00    -0.285 N 
ATOM      7  N   UNL     1      10.256   8.919   7.839  0.00  0.00    -0.269 N 
ATOM      8  C   UNL     1      10.916   5.355   4.466  0.00  0.00    +0.004 C 
ATOM      9  C   UNL     1      11.610   6.690   4.847  0.00  0.00    +0.010 C 
ATOM     10  C   UNL     1       9.523   5.231   5.111  0.00  0.00    +0.023 C 
ATOM     11  C   UNL     1      11.599   6.857   6.376  0.00  0.00    +0.113 C 
ATOM     12  C   UNL     1       9.579   5.475   6.619  0.00  0.00    +0.109 C 
ATOM     17  C   UNL     1       9.546   7.733   7.655  0.00  0.00    +0.306 C 
ATOM     39  H   UNL     1      11.268   8.877   7.863  0.00  0.00    +0.156 HD
ENDROOT
BRANCH   7  19
ATOM     19  C   UNL     1       9.725  10.225   7.989  0.00  0.00    +0.036 A 
ATOM     22  C   UNL     1       9.591  10.783   9.260  0.00  0.00    +0.038 A 
ATOM     23  C   UNL     1       9.335  10.951   6.863  0.00  0.00    +0.023 A 
ATOM     26  C   UNL     1       9.067  12.067   9.406  0.00  0.00    +0.061 A 
ATOM     27  C   UNL     1       8.812  12.236   7.010  0.00  0.00    +0.003 A 
ATOM     31  C   UNL     1       8.678  12.793   8.282  0.00  0.00    +0.015 A 
BRANCH  26  35
ATOM      4  O   UNL     1       8.425  13.757  10.960  0.00  0.00    -0.245 OA
ATOM     35  C   UNL     1       8.928  12.649  10.732  0.00  0.00    +0.339 C 
BRANCH  35   3
ATOM      3  O   UNL     1       9.421  11.819  11.700  0.00  0.00    -0.461 OA
BRANCH   3  36
ATOM     36  C   UNL     1       9.888  12.436  12.905  0.00  0.00    +0.229 C 
ATOM     37  C   UNL     1      11.379  12.676  12.790  0.00  0.00    +0.048 C 
ENDBRANCH   3  36
ENDBRANCH  35   3
ENDBRANCH  26  35
ENDBRANCH   7  19
BRANCH   9  13
ATOM     13  C   UNL     1      11.006   7.924   4.169  0.00  0.00    +0.002 C 
ATOM     15  C   UNL     1      11.746   9.184   4.567  0.00  0.00    +0.004 C 
ENDBRANCH   9  13
BRANCH   8  14
ATOM     14  C   UNL     1      10.833   5.132   2.957  0.00  0.00    +0.099 C 
BRANCH  14  16
ATOM      1  O   UNL     1      11.348   2.809   2.515  0.00  0.00    -0.276 OA
ATOM      6  N   UNL     1      12.946   4.438   2.071  0.00  0.00    -0.311 N 
ATOM     16  C   UNL     1      11.707   3.984   2.499  0.00  0.00    +0.214 C 
ATOM     38  H   UNL     1      13.155   5.431   2.090  0.00  0.00    +0.149 HD
BRANCH   6  18
ATOM     18  C   UNL     1      13.983   3.558   1.582  0.00  0.00    +0.140 C 
BRANCH  18  20
ATOM     20  C   UNL     1      14.505   3.992   0.243  0.00  0.00    -0.023 A 
ATOM     21  C   UNL     1      13.790   3.762  -0.945  0.00  0.00    -0.013 A 
ATOM     24  C   UNL     1      15.739   4.642   0.217  0.00  0.00    +0.006 A 
ATOM     25  C   UNL     1      14.337   4.197  -2.176  0.00  0.00    -0.018 A 
ATOM     28  C   UNL     1      12.547   3.110  -0.938  0.00  0.00    +0.009 A 
ATOM     29  C   UNL     1      16.275   5.070  -0.994  0.00  0.00    +0.001 A 
ATOM     30  C   UNL     1      15.580   4.850  -2.183  0.00  0.00    +0.008 A 
ATOM     32  C   UNL     1      13.623   3.967  -3.363  0.00  0.00    +0.008 A 
ATOM     33  C   UNL     1      11.852   2.889  -2.127  0.00  0.00    +0.001 A 
ATOM     34  C   UNL     1      12.388   3.317  -3.337  0.00  0.00    +0.001 A 
ENDBRANCH  18  20
ENDBRANCH   6  18
ENDBRANCH  14  16
ENDBRANCH   8  14
TORSDOF 9
ENDMDL
MODEL 4
REMARK VINA RESULT:      -6.9      2.911     10.077
REMARK  Name = 11913188
REMARK  11 active torsions:
REMARK  status: ('A' for Active; 'I' for Inactive)
REMARK    1  A    between atoms: O_3  and  C_35
REMARK    2  A    between atoms: O_3  and  C_36
REMARK    3  A    between atoms: N_6  and  C_18
REMARK    4  A    between atoms: N_7  and  C_19
REMARK    5  A    between atoms: C_8  and  C_14
REMARK    6  A    between atoms: C_9  and  C_13
REMARK    7  A    between atoms: C_13  and  C_15
REMARK    8  A    between atoms: C_14  and  C_16
REMARK    9  A    between atoms: C_18  and  C_20
REMARK   10  A    between atoms: C_26  and  C_35
REMARK   11  A    between atoms: C_36  and  C_37
REMARK                            x       y       z     vdW  Elec       q    Type
REMARK                         _______ _______ _______ _____ _____    ______ ____
ROOT
ATOM      2  O   UNL     1      -1.512 -10.774  12.161  0.00  0.00    -0.252 OA
ATOM      5  N   UNL     1      -2.758 -11.793  13.819  0.00  0.00    -0.285 N 
ATOM      7  N   UNL     1      -3.617 -11.594  11.631  0.00  0.00    -0.269 N 
ATOM      8  C   UNL     1      -3.555 -11.446  16.580  0.00  0.00    +0.004 C 
ATOM      9  C   UNL     1      -4.604 -11.736  15.473  0.00  0.00    +0.010 C 
ATOM     10  C   UNL     1      -2.291 -10.779  16.008  0.00  0.00    +0.023 C 
ATOM     11  C   UNL     1      -3.938 -12.512  14.325  0.00  0.00    +0.113 C 
ATOM     12  C   UNL     1      -1.723 -11.568  14.829  0.00  0.00    +0.109 C 
ATOM     17  C   UNL     1      -2.550 -11.351  12.496  0.00  0.00    +0.306 C 
ATOM     39  H   UNL     1      -4.211 -12.394  11.812  0.00  0.00    +0.156 HD
ENDROOT
BRANCH   7  19
ATOM     19  C   UNL     1      -3.998 -10.830  10.501  0.00  0.00    +0.036 A 
ATOM     22  C   UNL     1      -4.220 -11.459   9.275  0.00  0.00    +0.038 A 
ATOM     23  C   UNL     1      -4.151  -9.448  10.614  0.00  0.00    +0.023 A 
ATOM     26  C   UNL     1      -4.595 -10.706   8.163  0.00  0.00    +0.061 A 
ATOM     27  C   UNL     1      -4.527  -8.695   9.501  0.00  0.00    +0.003 A 
ATOM     31  C   UNL     1      -4.748  -9.324   8.275  0.00  0.00    +0.015 A 
BRANCH  26  35
ATOM      4  O   UNL     1      -5.536 -10.900   5.981  0.00  0.00    -0.245 OA
ATOM     35  C   UNL     1      -4.827 -11.361   6.886  0.00  0.00    +0.339 C 
BRANCH  35   3
ATOM      3  O   UNL     1      -4.162 -12.554   6.804  0.00  0.00    -0.461 OA
BRANCH   3  36
ATOM     36  C   UNL     1      -3.339 -12.758   5.651  0.00  0.00    +0.229 C 
ATOM     37  C   UNL     1      -2.622 -14.085   5.785  0.00  0.00    +0.048 C 
ENDBRANCH   3  36
ENDBRANCH  35   3
ENDBRANCH  26  35
ENDBRANCH   7  19
BRANCH   9  13
ATOM     13  C   UNL     1      -5.309 -10.485  14.938  0.00  0.00    +0.002 C 
ATOM     15  C   UNL     1      -6.349 -10.846  13.899  0.00  0.00    +0.004 C 
ENDBRANCH   9  13
BRANCH   8  14
ATOM     14  C   UNL     1      -4.118 -10.628  17.741  0.00  0.00    +0.099 C 
BRANCH  14  16
ATOM      1  O   UNL     1      -5.354 -12.409  18.815  0.00  0.00    -0.276 OA
ATOM      6  N   UNL     1      -6.432 -10.411  18.317  0.00  0.00    -0.311 N 
ATOM     16  C   UNL     1      -5.344 -11.271  18.353  0.00  0.00    +0.214 C 
ATOM     38  H   UNL     1      -6.330  -9.483  17.917  0.00  0.00    +0.149 HD
BRANCH   6  18
ATOM     18  C   UNL     1      -7.735 -10.765  18.830  0.00  0.00    +0.140 C 
BRANCH  18  20
ATOM     20  C   UNL     1      -8.834  -9.993  18.158  0.00  0.00    -0.023 A 
ATOM     21  C   UNL     1     -10.155 -10.011  18.635  0.00  0.00    -0.013 A 
ATOM     24  C   UNL     1      -8.494  -9.245  17.031  0.00  0.00    +0.006 A 
ATOM     25  C   UNL     1     -11.146  -9.260  17.957  0.00  0.00    -0.018 A 
ATOM     28  C   UNL     1     -10.516 -10.757  19.769  0.00  0.00    +0.009 A 
ATOM     29  C   UNL     1      -9.468  -8.507  16.365  0.00  0.00    +0.001 A 
ATOM     30  C   UNL     1     -10.785  -8.514  16.824  0.00  0.00    +0.008 A 
ATOM     32  C   UNL     1     -12.466  -9.278  18.433  0.00  0.00    +0.008 A 
ATOM     33  C   UNL     1     -11.833 -10.764  20.228  0.00  0.00    +0.001 A 
ATOM     34  C   UNL     1     -12.807 -10.025  19.562  0.00  0.00    +0.001 A 
ENDBRANCH  18  20
ENDBRANCH   6  18
ENDBRANCH  14  16
ENDBRANCH   8  14
TORSDOF 9
ENDMDL
MODEL 5
REMARK VINA RESULT:      -6.8     29.112     32.648
REMARK  Name = 11913188
REMARK  11 active torsions:
REMARK  status: ('A' for Active; 'I' for Inactive)
REMARK    1  A    between atoms: O_3  and  C_35
REMARK    2  A    between atoms: O_3  and  C_36
REMARK    3  A    between atoms: N_6  and  C_18
REMARK    4  A    between atoms: N_7  and  C_19
REMARK    5  A    between atoms: C_8  and  C_14
REMARK    6  A    between atoms: C_9  and  C_13
REMARK    7  A    between atoms: C_13  and  C_15
REMARK    8  A    between atoms: C_14  and  C_16
REMARK    9  A    between atoms: C_18  and  C_20
REMARK   10  A    between atoms: C_26  and  C_35
REMARK   11  A    between atoms: C_36  and  C_37
REMARK                            x       y       z     vdW  Elec       q    Type
REMARK                         _______ _______ _______ _____ _____    ______ ____
ROOT
ATOM      2  O   UNL     1      18.018   5.760  19.226  0.00  0.00    -0.252 OA
ATOM      5  N   UNL     1      19.370   6.158  21.058  0.00  0.00    -0.285 N 
ATOM      7  N   UNL     1      17.166   6.995  20.996  0.00  0.00    -0.269 N 
ATOM      8  C   UNL     1      22.061   6.977  21.743  0.00  0.00    +0.004 C 
ATOM      9  C   UNL     1      20.826   7.671  22.376  0.00  0.00    +0.010 C 
ATOM     10  C   UNL     1      21.725   6.346  20.379  0.00  0.00    +0.023 C 
ATOM     11  C   UNL     1      19.642   6.691  22.402  0.00  0.00    +0.113 C 
ATOM     12  C   UNL     1      20.499   5.438  20.466  0.00  0.00    +0.109 C 
ATOM     17  C   UNL     1      18.158   6.262  20.345  0.00  0.00    +0.306 C 
ATOM     39  H   UNL     1      17.163   7.009  22.008  0.00  0.00    +0.156 HD
ENDROOT
BRANCH   7  19
ATOM     19  C   UNL     1      16.135   7.764  20.400  0.00  0.00    +0.036 A 
ATOM     22  C   UNL     1      14.995   7.135  19.900  0.00  0.00    +0.038 A 
ATOM     23  C   UNL     1      16.261   9.151  20.314  0.00  0.00    +0.023 A 
ATOM     26  C   UNL     1      13.981   7.892  19.314  0.00  0.00    +0.061 A 
ATOM     27  C   UNL     1      15.246   9.908  19.727  0.00  0.00    +0.003 A 
ATOM     31  C   UNL     1      14.107   9.277  19.227  0.00  0.00    +0.015 A 
BRANCH  26  35
ATOM      4  O   UNL     1      12.073   6.468  19.446  0.00  0.00    -0.245 OA
ATOM     35  C   UNL     1      12.792   7.235  18.793  0.00  0.00    +0.339 C 
BRANCH  35   3
ATOM      3  O   UNL     1      12.564   7.572  17.486  0.00  0.00    -0.461 OA
BRANCH   3  36
ATOM     36  C   UNL     1      11.420   8.390  17.220  0.00  0.00    +0.229 C 
ATOM     37  C   UNL     1      11.675   9.203  15.968  0.00  0.00    +0.048 C 
ENDBRANCH   3  36
ENDBRANCH  35   3
ENDBRANCH  26  35
ENDBRANCH   7  19
BRANCH   9  13
ATOM     13  C   UNL     1      20.424   8.980  21.687  0.00  0.00    +0.002 C 
ATOM     15  C   UNL     1      19.450   9.768  22.537  0.00  0.00    +0.004 C 
ENDBRANCH   9  13
BRANCH   8  14
ATOM     14  C   UNL     1      23.274   7.898  21.627  0.00  0.00    +0.099 C 
BRANCH  14  16
ATOM      1  O   UNL     1      25.530   7.545  20.827  0.00  0.00    -0.276 OA
ATOM      6  N   UNL     1      24.506   5.906  22.119  0.00  0.00    -0.311 N 
ATOM     16  C   UNL     1      24.566   7.127  21.463  0.00  0.00    +0.214 C 
ATOM     38  H   UNL     1      23.666   5.644  22.625  0.00  0.00    +0.149 HD
BRANCH   6  18
ATOM     18  C   UNL     1      25.599   4.961  22.128  0.00  0.00    +0.140 C 
BRANCH  18  20
ATOM     20  C   UNL     1      25.135   3.560  21.846  0.00  0.00    -0.023 A 
ATOM     21  C   UNL     1      25.867   2.436  22.262  0.00  0.00    -0.013 A 
ATOM     24  C   UNL     1      23.935   3.412  21.151  0.00  0.00    +0.006 A 
ATOM     25  C   UNL     1      25.375   1.142  21.966  0.00  0.00    -0.018 A 
ATOM     28  C   UNL     1      27.077   2.567  22.963  0.00  0.00    +0.009 A 
ATOM     29  C   UNL     1      23.451   2.139  20.860  0.00  0.00    +0.001 A 
ATOM     30  C   UNL     1      24.166   1.011  21.264  0.00  0.00    +0.008 A 
ATOM     32  C   UNL     1      26.107   0.018  22.380  0.00  0.00    +0.008 A 
ATOM     33  C   UNL     1      27.791   1.439  23.367  0.00  0.00    +0.001 A 
ATOM     34  C   UNL     1      27.308   0.167  23.077  0.00  0.00    +0.001 A 
ENDBRANCH  18  20
ENDBRANCH   6  18
ENDBRANCH  14  16
ENDBRANCH   8  14
TORSDOF 9
ENDMDL
MODEL 6
REMARK VINA RESULT:      -6.8      5.298     10.852
REMARK  Name = 11913188
REMARK  11 active torsions:
REMARK  status: ('A' for Active; 'I' for Inactive)
REMARK    1  A    between atoms: O_3  and  C_35
REMARK    2  A    between atoms: O_3  and  C_36
REMARK    3  A    between atoms: N_6  and  C_18
REMARK    4  A    between atoms: N_7  and  C_19
REMARK    5  A    between atoms: C_8  and  C_14
REMARK    6  A    between atoms: C_9  and  C_13
REMARK    7  A    between atoms: C_13  and  C_15
REMARK    8  A    between atoms: C_14  and  C_16
REMARK    9  A    between atoms: C_18  and  C_20
REMARK   10  A    between atoms: C_26  and  C_35
REMARK   11  A    between atoms: C_36  and  C_37
REMARK                            x       y       z     vdW  Elec       q    Type
REMARK                         _______ _______ _______ _____ _____    ______ ____
ROOT
ATOM      2  O   UNL     1      -7.869  -8.033   9.258  0.00  0.00    -0.252 OA
ATOM      5  N   UNL     1      -5.611  -8.503   9.410  0.00  0.00    -0.285 N 
ATOM      7  N   UNL     1      -6.733  -8.684   7.343  0.00  0.00    -0.269 N 
ATOM      8  C   UNL     1      -3.709  -9.929  11.060  0.00  0.00    +0.004 C 
ATOM      9  C   UNL     1      -3.752 -10.139   9.523  0.00  0.00    +0.010 C 
ATOM     10  C   UNL     1      -5.065  -9.452  11.610  0.00  0.00    +0.023 C 
ATOM     11  C   UNL     1      -4.304  -8.873   8.847  0.00  0.00    +0.113 C 
ATOM     12  C   UNL     1      -5.583  -8.233  10.848  0.00  0.00    +0.109 C 
ATOM     17  C   UNL     1      -6.823  -8.372   8.699  0.00  0.00    +0.306 C 
ATOM     39  H   UNL     1      -5.849  -8.537   6.872  0.00  0.00    +0.156 HD
ENDROOT
BRANCH   7  19
ATOM     19  C   UNL     1      -7.753  -9.214   6.514  0.00  0.00    +0.036 A 
ATOM     22  C   UNL     1      -8.434  -8.382   5.626  0.00  0.00    +0.038 A 
ATOM     23  C   UNL     1      -8.075 -10.570   6.587  0.00  0.00    +0.023 A 
ATOM     26  C   UNL     1      -9.438  -8.905   4.811  0.00  0.00    +0.061 A 
ATOM     27  C   UNL     1      -9.079 -11.092   5.771  0.00  0.00    +0.003 A 
ATOM     31  C   UNL     1      -9.760 -10.259   4.883  0.00  0.00    +0.015 A 
BRANCH  26  35
ATOM      4  O   UNL     1     -10.512  -6.883   4.146  0.00  0.00    -0.245 OA
ATOM     35  C   UNL     1     -10.148  -8.037   3.885  0.00  0.00    +0.339 C 
BRANCH  35   3
ATOM      3  O   UNL     1     -10.365  -8.654   2.683  0.00  0.00    -0.461 OA
BRANCH   3  36
ATOM     36  C   UNL     1     -10.073  -7.896   1.504  0.00  0.00    +0.229 C 
ATOM     37  C   UNL     1      -8.904  -8.534   0.784  0.00  0.00    +0.048 C 
ENDBRANCH   3  36
ENDBRANCH  35   3
ENDBRANCH  26  35
ENDBRANCH   7  19
BRANCH   9  13
ATOM     13  C   UNL     1      -4.548 -11.372   9.083  0.00  0.00    +0.002 C 
ATOM     15  C   UNL     1      -4.554 -11.510   7.575  0.00  0.00    +0.004 C 
ENDBRANCH   9  13
BRANCH   8  14
ATOM     14  C   UNL     1      -3.221 -11.162  11.820  0.00  0.00    +0.099 C 
BRANCH  14  16
ATOM      1  O   UNL     1      -1.709 -10.278  13.489  0.00  0.00    -0.276 OA
ATOM      6  N   UNL     1      -3.723 -11.225  14.161  0.00  0.00    -0.311 N 
ATOM     16  C   UNL     1      -2.776 -10.827  13.227  0.00  0.00    +0.214 C 
ATOM     38  H   UNL     1      -4.581 -11.672  13.852  0.00  0.00    +0.149 HD
BRANCH   6  18
ATOM     18  C   UNL     1      -3.558 -11.033  15.583  0.00  0.00    +0.140 C 
BRANCH  18  20
ATOM     20  C   UNL     1      -4.830 -10.582  16.242  0.00  0.00    -0.023 A 
ATOM     21  C   UNL     1      -5.107 -10.857  17.591  0.00  0.00    -0.013 A 
ATOM     24  C   UNL     1      -5.737  -9.869  15.459  0.00  0.00    +0.006 A 
ATOM     25  C   UNL     1      -6.325 -10.404  18.153  0.00  0.00    -0.018 A 
ATOM     28  C   UNL     1      -4.205 -11.574  18.394  0.00  0.00    +0.009 A 
ATOM     29  C   UNL     1      -6.934  -9.422  16.012  0.00  0.00    +0.001 A 
ATOM     30  C   UNL     1      -7.227  -9.687  17.350  0.00  0.00    +0.008 A 
ATOM     32  C   UNL     1      -6.603 -10.679  19.501  0.00  0.00    +0.008 A 
ATOM     33  C   UNL     1      -4.499 -11.839  19.732  0.00  0.00    +0.001 A 
ATOM     34  C   UNL     1      -5.695 -11.392  20.285  0.00  0.00    +0.001 A 
ENDBRANCH  18  20
ENDBRANCH   6  18
ENDBRANCH  14  16
ENDBRANCH   8  14
TORSDOF 9
ENDMDL
MODEL 7
REMARK VINA RESULT:      -6.7      1.687      2.518
REMARK  Name = 11913188
REMARK  11 active torsions:
REMARK  status: ('A' for Active; 'I' for Inactive)
REMARK    1  A    between atoms: O_3  and  C_35
REMARK    2  A    between atoms: O_3  and  C_36
REMARK    3  A    between atoms: N_6  and  C_18
REMARK    4  A    between atoms: N_7  and  C_19
REMARK    5  A    between atoms: C_8  and  C_14
REMARK    6  A    between atoms: C_9  and  C_13
REMARK    7  A    between atoms: C_13  and  C_15
REMARK    8  A    between atoms: C_14  and  C_16
REMARK    9  A    between atoms: C_18  and  C_20
REMARK   10  A    between atoms: C_26  and  C_35
REMARK   11  A    between atoms: C_36  and  C_37
REMARK                            x       y       z     vdW  Elec       q    Type
REMARK                         _______ _______ _______ _____ _____    ______ ____
ROOT
ATOM      2  O   UNL     1      -8.864  -9.937  18.058  0.00  0.00    -0.252 OA
ATOM      5  N   UNL     1      -7.292 -10.813  16.608  0.00  0.00    -0.285 N 
ATOM      7  N   UNL     1      -8.848 -12.226  17.678  0.00  0.00    -0.269 N 
ATOM      8  C   UNL     1      -4.472 -10.657  15.974  0.00  0.00    +0.004 C 
ATOM      9  C   UNL     1      -5.167 -12.026  16.207  0.00  0.00    +0.010 C 
ATOM     10  C   UNL     1      -5.208  -9.513  16.694  0.00  0.00    +0.023 C 
ATOM     11  C   UNL     1      -6.660 -11.910  15.858  0.00  0.00    +0.113 C 
ATOM     12  C   UNL     1      -6.698  -9.500  16.353  0.00  0.00    +0.109 C 
ATOM     17  C   UNL     1      -8.387 -10.923  17.490  0.00  0.00    +0.306 C 
ATOM     39  H   UNL     1      -8.735 -12.891  16.923  0.00  0.00    +0.156 HD
ENDROOT
BRANCH   7  19
ATOM     19  C   UNL     1      -9.463 -12.762  18.837  0.00  0.00    +0.036 A 
ATOM     22  C   UNL     1     -10.764 -12.388  19.174  0.00  0.00    +0.038 A 
ATOM     23  C   UNL     1      -8.766 -13.663  19.642  0.00  0.00    +0.023 A 
ATOM     26  C   UNL     1     -11.368 -12.914  20.315  0.00  0.00    +0.061 A 
ATOM     27  C   UNL     1      -9.371 -14.190  20.783  0.00  0.00    +0.003 A 
ATOM     31  C   UNL     1     -10.672 -13.815  21.120  0.00  0.00    +0.015 A 
BRANCH  26  35
ATOM      4  O   UNL     1     -13.687 -13.302  20.712  0.00  0.00    -0.245 OA
ATOM     35  C   UNL     1     -12.725 -12.524  20.666  0.00  0.00    +0.339 C 
BRANCH  35   3
ATOM      3  O   UNL     1     -12.808 -11.187  20.941  0.00  0.00    -0.461 OA
BRANCH   3  36
ATOM     36  C   UNL     1     -13.649 -10.402  20.088  0.00  0.00    +0.229 C 
ATOM     37  C   UNL     1     -14.808  -9.862  20.899  0.00  0.00    +0.048 C 
ENDBRANCH   3  36
ENDBRANCH  35   3
ENDBRANCH  26  35
ENDBRANCH   7  19
BRANCH   9  13
ATOM     13  C   UNL     1      -4.988 -12.583  17.623  0.00  0.00    +0.002 C 
ATOM     15  C   UNL     1      -5.056 -14.096  17.627  0.00  0.00    +0.004 C 
ENDBRANCH   9  13
BRANCH   8  14
ATOM     14  C   UNL     1      -2.990 -10.665  16.347  0.00  0.00    +0.099 C 
BRANCH  14  16
ATOM      1  O   UNL     1      -1.047 -11.534  15.199  0.00  0.00    -0.276 OA
ATOM      6  N   UNL     1      -2.627 -10.315  14.007  0.00  0.00    -0.311 N 
ATOM     16  C   UNL     1      -2.099 -10.903  15.148  0.00  0.00    +0.214 C 
ATOM     38  H   UNL     1      -3.508  -9.813  14.058  0.00  0.00    +0.149 HD
BRANCH   6  18
ATOM     18  C   UNL     1      -1.983 -10.380  12.716  0.00  0.00    +0.140 C 
BRANCH  18  20
ATOM     20  C   UNL     1      -2.733 -11.258  11.756  0.00  0.00    -0.023 A 
ATOM     21  C   UNL     1      -3.396 -10.737  10.632  0.00  0.00    -0.013 A 
ATOM     24  C   UNL     1      -2.748 -12.628  12.019  0.00  0.00    +0.006 A 
ATOM     25  C   UNL     1      -4.085 -11.618   9.765  0.00  0.00    -0.018 A 
ATOM     28  C   UNL     1      -3.391  -9.361  10.351  0.00  0.00    +0.009 A 
ATOM     29  C   UNL     1      -3.425 -13.494  11.166  0.00  0.00    +0.001 A 
ATOM     30  C   UNL     1      -4.090 -12.994  10.046  0.00  0.00    +0.008 A 
ATOM     32  C   UNL     1      -4.748 -11.097   8.642  0.00  0.00    +0.008 A 
ATOM     33  C   UNL     1      -4.055  -8.860   9.231  0.00  0.00    +0.001 A 
ATOM     34  C   UNL     1      -4.732  -9.727   8.378  0.00  0.00    +0.001 A 
ENDBRANCH  18  20
ENDBRANCH   6  18
ENDBRANCH  14  16
ENDBRANCH   8  14
TORSDOF 9
ENDMDL
MODEL 8
REMARK VINA RESULT:      -6.7     26.026     31.573
REMARK  Name = 11913188
REMARK  11 active torsions:
REMARK  status: ('A' for Active; 'I' for Inactive)
REMARK    1  A    between atoms: O_3  and  C_35
REMARK    2  A    between atoms: O_3  and  C_36
REMARK    3  A    between atoms: N_6  and  C_18
REMARK    4  A    between atoms: N_7  and  C_19
REMARK    5  A    between atoms: C_8  and  C_14
REMARK    6  A    between atoms: C_9  and  C_13
REMARK    7  A    between atoms: C_13  and  C_15
REMARK    8  A    between atoms: C_14  and  C_16
REMARK    9  A    between atoms: C_18  and  C_20
REMARK   10  A    between atoms: C_26  and  C_35
REMARK   11  A    between atoms: C_36  and  C_37
REMARK                            x       y       z     vdW  Elec       q    Type
REMARK                         _______ _______ _______ _____ _____    ______ ____
ROOT
ATOM      2  O   UNL     1      15.888   6.907   4.543  0.00  0.00    -0.252 OA
ATOM      5  N   UNL     1      14.752   8.916   4.429  0.00  0.00    -0.285 N 
ATOM      7  N   UNL     1      17.109   8.871   4.356  0.00  0.00    -0.269 N 
ATOM      8  C   UNL     1      12.575  10.352   5.683  0.00  0.00    +0.004 C 
ATOM      9  C   UNL     1      13.966  11.013   5.492  0.00  0.00    +0.010 C 
ATOM     10  C   UNL     1      12.674   8.817   5.737  0.00  0.00    +0.023 C 
ATOM     11  C   UNL     1      14.675  10.378   4.284  0.00  0.00    +0.113 C 
ATOM     12  C   UNL     1      13.448   8.262   4.542  0.00  0.00    +0.109 C 
ATOM     17  C   UNL     1      15.927   8.135   4.440  0.00  0.00    +0.306 C 
ATOM     39  H   UNL     1      17.092   9.757   3.866  0.00  0.00    +0.156 HD
ENDROOT
BRANCH   7  19
ATOM     19  C   UNL     1      18.372   8.532   4.901  0.00  0.00    +0.036 A 
ATOM     22  C   UNL     1      19.353   7.962   4.090  0.00  0.00    +0.038 A 
ATOM     23  C   UNL     1      18.635   8.769   6.251  0.00  0.00    +0.023 A 
ATOM     26  C   UNL     1      20.596   7.629   4.628  0.00  0.00    +0.061 A 
ATOM     27  C   UNL     1      19.878   8.436   6.788  0.00  0.00    +0.003 A 
ATOM     31  C   UNL     1      20.858   7.865   5.976  0.00  0.00    +0.015 A 
BRANCH  26  35
ATOM      4  O   UNL     1      22.192   5.964   4.023  0.00  0.00    -0.245 OA
ATOM     35  C   UNL     1      21.619   7.034   3.781  0.00  0.00    +0.339 C 
BRANCH  35   3
ATOM      3  O   UNL     1      21.871   7.806   2.680  0.00  0.00    -0.461 OA
BRANCH   3  36
ATOM     36  C   UNL     1      21.911   7.135   1.416  0.00  0.00    +0.229 C 
ATOM     37  C   UNL     1      20.684   7.518   0.616  0.00  0.00    +0.048 C 
ENDBRANCH   3  36
ENDBRANCH  35   3
ENDBRANCH  26  35
ENDBRANCH   7  19
BRANCH   9  13
ATOM     13  C   UNL     1      14.863  10.952   6.733  0.00  0.00    +0.002 C 
ATOM     15  C   UNL     1      15.659  12.229   6.896  0.00  0.00    +0.004 C 
ENDBRANCH   9  13
BRANCH   8  14
ATOM     14  C   UNL     1      11.819  10.887   6.899  0.00  0.00    +0.099 C 
BRANCH  14  16
ATOM      1  O   UNL     1      10.501   9.639   8.498  0.00  0.00    -0.276 OA
ATOM      6  N   UNL     1       9.952   9.541   6.241  0.00  0.00    -0.311 N 
ATOM     16  C   UNL     1      10.701   9.963   7.330  0.00  0.00    +0.214 C 
ATOM     38  H   UNL     1      10.189   9.864   5.308  0.00  0.00    +0.149 HD
BRANCH   6  18
ATOM     18  C   UNL     1       8.822   8.648   6.359  0.00  0.00    +0.140 C 
BRANCH  18  20
ATOM     20  C   UNL     1       9.188   7.230   6.027  0.00  0.00    -0.023 A 
ATOM     21  C   UNL     1       9.299   6.239   7.017  0.00  0.00    -0.013 A 
ATOM     24  C   UNL     1       9.413   6.925   4.685  0.00  0.00    +0.006 A 
ATOM     25  C   UNL     1       9.647   4.920   6.638  0.00  0.00    -0.018 A 
ATOM     28  C   UNL     1       9.075   6.528   8.372  0.00  0.00    +0.009 A 
ATOM     29  C   UNL     1       9.754   5.628   4.313  0.00  0.00    +0.001 A 
ATOM     30  C   UNL     1       9.871   4.631   5.282  0.00  0.00    +0.008 A 
ATOM     32  C   UNL     1       9.759   3.929   7.627  0.00  0.00    +0.008 A 
ATOM     33  C   UNL     1       9.192   5.531   9.341  0.00  0.00    +0.001 A 
ATOM     34  C   UNL     1       9.533   4.234   8.970  0.00  0.00    +0.001 A 
ENDBRANCH  18  20
ENDBRANCH   6  18
ENDBRANCH  14  16
ENDBRANCH   8  14
TORSDOF 9
ENDMDL
MODEL 9
REMARK VINA RESULT:      -6.7      1.559      2.104
REMARK  Name = 11913188
REMARK  11 active torsions:
REMARK  status: ('A' for Active; 'I' for Inactive)
REMARK    1  A    between atoms: O_3  and  C_35
REMARK    2  A    between atoms: O_3  and  C_36
REMARK    3  A    between atoms: N_6  and  C_18
REMARK    4  A    between atoms: N_7  and  C_19
REMARK    5  A    between atoms: C_8  and  C_14
REMARK    6  A    between atoms: C_9  and  C_13
REMARK    7  A    between atoms: C_13  and  C_15
REMARK    8  A    between atoms: C_14  and  C_16
REMARK    9  A    between atoms: C_18  and  C_20
REMARK   10  A    between atoms: C_26  and  C_35
REMARK   11  A    between atoms: C_36  and  C_37
REMARK                            x       y       z     vdW  Elec       q    Type
REMARK                         _______ _______ _______ _____ _____    ______ ____
ROOT
ATOM      2  O   UNL     1      -8.834 -11.892  15.459  0.00  0.00    -0.252 OA
ATOM      5  N   UNL     1      -6.906 -12.481  16.589  0.00  0.00    -0.285 N 
ATOM      7  N   UNL     1      -8.894 -12.030  17.774  0.00  0.00    -0.269 N 
ATOM      8  C   UNL     1      -4.070 -11.905  16.666  0.00  0.00    +0.004 C 
ATOM      9  C   UNL     1      -4.933 -11.861  17.956  0.00  0.00    +0.010 C 
ATOM     10  C   UNL     1      -4.916 -11.656  15.404  0.00  0.00    +0.023 C 
ATOM     11  C   UNL     1      -6.137 -12.804  17.800  0.00  0.00    +0.113 C 
ATOM     12  C   UNL     1      -6.131 -12.582  15.351  0.00  0.00    +0.109 C 
ATOM     17  C   UNL     1      -8.269 -12.124  16.531  0.00  0.00    +0.306 C 
ATOM     39  H   UNL     1      -8.552 -12.610  18.531  0.00  0.00    +0.156 HD
ENDROOT
BRANCH   7  19
ATOM     19  C   UNL     1      -9.975 -11.187  18.131  0.00  0.00    +0.036 A 
ATOM     22  C   UNL     1     -10.182  -9.989  17.446  0.00  0.00    +0.038 A 
ATOM     23  C   UNL     1     -10.833 -11.555  19.169  0.00  0.00    +0.023 A 
ATOM     26  C   UNL     1     -11.246  -9.159  17.798  0.00  0.00    +0.061 A 
ATOM     27  C   UNL     1     -11.897 -10.724  19.520  0.00  0.00    +0.003 A 
ATOM     31  C   UNL     1     -12.103  -9.526  18.835  0.00  0.00    +0.015 A 
BRANCH  26  35
ATOM      4  O   UNL     1     -10.661  -6.967  17.067  0.00  0.00    -0.245 OA
ATOM     35  C   UNL     1     -11.462  -7.911  17.084  0.00  0.00    +0.339 C 
BRANCH  35   3
ATOM      3  O   UNL     1     -12.663  -7.907  16.430  0.00  0.00    -0.461 OA
BRANCH   3  36
ATOM     36  C   UNL     1     -12.736  -8.645  15.206  0.00  0.00    +0.229 C 
ATOM     37  C   UNL     1     -12.645  -7.680  14.042  0.00  0.00    +0.048 C 
ENDBRANCH   3  36
ENDBRANCH  35   3
ENDBRANCH  26  35
ENDBRANCH   7  19
BRANCH   9  13
ATOM     13  C   UNL     1      -5.399 -10.455  18.348  0.00  0.00    +0.002 C 
ATOM     15  C   UNL     1      -6.222 -10.487  19.618  0.00  0.00    +0.004 C 
ENDBRANCH   9  13
BRANCH   8  14
ATOM     14  C   UNL     1      -2.875 -10.954  16.710  0.00  0.00    +0.099 C 
BRANCH  14  16
ATOM      1  O   UNL     1      -1.514  -9.974  14.968  0.00  0.00    -0.276 OA
ATOM      6  N   UNL     1      -2.113 -12.215  14.823  0.00  0.00    -0.311 N 
ATOM     16  C   UNL     1      -2.089 -10.961  15.418  0.00  0.00    +0.214 C 
ATOM     38  H   UNL     1      -2.614 -12.977  15.270  0.00  0.00    +0.149 HD
BRANCH   6  18
ATOM     18  C   UNL     1      -1.447 -12.510  13.576  0.00  0.00    +0.140 C 
BRANCH  18  20
ATOM     20  C   UNL     1      -2.422 -12.714  12.452  0.00  0.00    -0.023 A 
ATOM     21  C   UNL     1      -2.774 -11.675  11.574  0.00  0.00    -0.013 A 
ATOM     24  C   UNL     1      -2.971 -13.987  12.304  0.00  0.00    +0.006 A 
ATOM     25  C   UNL     1      -3.699 -11.932  10.534  0.00  0.00    -0.018 A 
ATOM     28  C   UNL     1      -2.231 -10.387  11.707  0.00  0.00    +0.009 A 
ATOM     29  C   UNL     1      -3.879 -14.240  11.281  0.00  0.00    +0.001 A 
ATOM     30  C   UNL     1      -4.242 -13.221  10.401  0.00  0.00    +0.008 A 
ATOM     32  C   UNL     1      -4.052 -10.894   9.657  0.00  0.00    +0.008 A 
ATOM     33  C   UNL     1      -2.593  -9.367  10.827  0.00  0.00    +0.001 A 
ATOM     34  C   UNL     1      -3.502  -9.620   9.803  0.00  0.00    +0.001 A 
ENDBRANCH  18  20
ENDBRANCH   6  18
ENDBRANCH  14  16
ENDBRANCH   8  14
TORSDOF 9
ENDMDL
MODEL 10
REMARK VINA RESULT:      -6.6     24.858     27.732
REMARK  Name = 11913188
REMARK  11 active torsions:
REMARK  status: ('A' for Active; 'I' for Inactive)
REMARK    1  A    between atoms: O_3  and  C_35
REMARK    2  A    between atoms: O_3  and  C_36
REMARK    3  A    between atoms: N_6  and  C_18
REMARK    4  A    between atoms: N_7  and  C_19
REMARK    5  A    between atoms: C_8  and  C_14
REMARK    6  A    between atoms: C_9  and  C_13
REMARK    7  A    between atoms: C_13  and  C_15
REMARK    8  A    between atoms: C_14  and  C_16
REMARK    9  A    between atoms: C_18  and  C_20
REMARK   10  A    between atoms: C_26  and  C_35
REMARK   11  A    between atoms: C_36  and  C_37
REMARK                            x       y       z     vdW  Elec       q    Type
REMARK                         _______ _______ _______ _____ _____    ______ ____
ROOT
ATOM      2  O   UNL     1      16.435  -4.086  33.266  0.00  0.00    -0.252 OA
ATOM      5  N   UNL     1      17.290  -2.681  31.642  0.00  0.00    -0.285 N 
ATOM      7  N   UNL     1      15.135  -3.609  31.404  0.00  0.00    -0.269 N 
ATOM      8  C   UNL     1      19.703  -2.197  30.119  0.00  0.00    +0.004 C 
ATOM      9  C   UNL     1      18.326  -2.335  29.417  0.00  0.00    +0.010 C 
ATOM     10  C   UNL     1      19.730  -2.928  31.474  0.00  0.00    +0.023 C 
ATOM     11  C   UNL     1      17.210  -1.917  30.388  0.00  0.00    +0.113 C 
ATOM     12  C   UNL     1      18.555  -2.513  32.359  0.00  0.00    +0.109 C 
ATOM     17  C   UNL     1      16.282  -3.501  32.190  0.00  0.00    +0.306 C 
ATOM     39  H   UNL     1      14.887  -2.832  30.803  0.00  0.00    +0.156 HD
ENDROOT
BRANCH   7  19
ATOM     19  C   UNL     1      14.248  -4.712  31.324  0.00  0.00    +0.036 A 
ATOM     22  C   UNL     1      13.208  -4.839  32.245  0.00  0.00    +0.038 A 
ATOM     23  C   UNL     1      14.416  -5.670  30.325  0.00  0.00    +0.023 A 
ATOM     26  C   UNL     1      12.336  -5.924  32.166  0.00  0.00    +0.061 A 
ATOM     27  C   UNL     1      13.543  -6.755  30.246  0.00  0.00    +0.003 A 
ATOM     31  C   UNL     1      12.503  -6.882  31.167  0.00  0.00    +0.015 A 
BRANCH  26  35
ATOM      4  O   UNL     1      11.008  -7.086  33.770  0.00  0.00    -0.245 OA
ATOM     35  C   UNL     1      11.251  -6.057  33.126  0.00  0.00    +0.339 C 
BRANCH  35   3
ATOM      3  O   UNL     1      10.529  -4.900  33.232  0.00  0.00    -0.461 OA
BRANCH   3  36
ATOM     36  C   UNL     1       9.734  -4.739  34.412  0.00  0.00    +0.229 C 
ATOM     37  C   UNL     1       8.270  -4.824  34.036  0.00  0.00    +0.048 C 
ENDBRANCH   3  36
ENDBRANCH  35   3
ENDBRANCH  26  35
ENDBRANCH   7  19
BRANCH   9  13
ATOM     13  C   UNL     1      18.051  -3.734  28.853  0.00  0.00    +0.002 C 
ATOM     15  C   UNL     1      17.636  -3.664  27.398  0.00  0.00    +0.004 C 
ENDBRANCH   9  13
BRANCH   8  14
ATOM     14  C   UNL     1      20.872  -2.644  29.242  0.00  0.00    +0.099 C 
BRANCH  14  16
ATOM      1  O   UNL     1      21.115  -0.614  27.950  0.00  0.00    -0.276 OA
ATOM      6  N   UNL     1      20.889  -2.648  26.848  0.00  0.00    -0.311 N 
ATOM     16  C   UNL     1      20.975  -1.834  27.969  0.00  0.00    +0.214 C 
ATOM     38  H   UNL     1      20.777  -3.651  26.959  0.00  0.00    +0.149 HD
BRANCH   6  18
ATOM     18  C   UNL     1      20.954  -2.140  25.497  0.00  0.00    +0.140 C 
BRANCH  18  20
ATOM     20  C   UNL     1      19.602  -2.096  24.846  0.00  0.00    -0.023 A 
ATOM     21  C   UNL     1      19.053  -3.212  24.193  0.00  0.00    -0.013 A 
ATOM     24  C   UNL     1      18.898  -0.894  24.914  0.00  0.00    +0.006 A 
ATOM     25  C   UNL     1      17.773  -3.106  23.599  0.00  0.00    -0.018 A 
ATOM     28  C   UNL     1      19.748  -4.430  24.114  0.00  0.00    +0.009 A 
ATOM     29  C   UNL     1      17.638  -0.790  24.331  0.00  0.00    +0.001 A 
ATOM     30  C   UNL     1      17.078  -1.888  23.677  0.00  0.00    +0.008 A 
ATOM     32  C   UNL     1      17.225  -4.221  22.945  0.00  0.00    +0.008 A 
ATOM     33  C   UNL     1      19.188  -5.528  23.460  0.00  0.00    +0.001 A 
ATOM     34  C   UNL     1      17.929  -5.424  22.877  0.00  0.00    +0.001 A 
ENDBRANCH  18  20
ENDBRANCH   6  18
ENDBRANCH  14  16
ENDBRANCH   8  14
TORSDOF 9
ENDMDL
