REMARK  Name = 25314954
REMARK  5 active torsions:
REMARK  status: ('A' for Active; 'I' for Inactive)
REMARK    1  A    between atoms: O_3  and  C_10
REMARK    2  A    between atoms: N_6  and  C_9
REMARK    3  A    between atoms: N_7  and  C_11
REMARK    4  A    between atoms: N_8  and  C_20
REMARK    5  A    between atoms: C_20  and  C_21
REMARK                            x       y       z     vdW  Elec       q    Type
REMARK                         _______ _______ _______ _____ _____    ______ ____
ROOT
ATOM      1  O   UNL     1       1.318   1.331  -1.559  0.00  0.00    -0.342 OA
ATOM      2  O   UNL     1       2.405   2.775  -0.105  0.00  0.00    -0.347 OA
ATOM      9  C   UNL     1       1.969   0.506   0.611  0.00  0.00    +0.144 C 
ATOM     10  C   UNL     1       0.607   0.932   1.204  0.00  0.00    +0.159 C 
ATOM     11  C   UNL     1      -0.377   1.483   0.149  0.00  0.00    +0.136 C 
ATOM     12  C   UNL     1       0.326   2.208  -1.018  0.00  0.00    +0.170 C 
ATOM     13  C   UNL     1       2.353   1.416  -0.570  0.00  0.00    +0.270 C 
ATOM     14  C   UNL     1       1.194   3.376  -0.589  0.00  0.00    +0.196 C 
ENDROOT
BRANCH   9   6
ATOM      4  O   UNL     1       3.029  -3.484  -0.145  0.00  0.00    -0.377 OA
ATOM      6  N   UNL     1       1.911  -0.885   0.166  0.00  0.00    -0.288 NA
ATOM     15  C   UNL     1       2.049  -1.803   1.305  0.00  0.00    +0.113 C 
ATOM     16  C   UNL     1       2.956  -1.157  -0.831  0.00  0.00    +0.113 C 
ATOM     17  C   UNL     1       1.998  -3.248   0.814  0.00  0.00    +0.175 C 
ATOM     18  C   UNL     1       2.883  -2.617  -1.271  0.00  0.00    +0.175 C 
ENDBRANCH   9   6
BRANCH  11   7
ATOM      5  O   UNL     1      -2.887   0.554   1.227  0.00  0.00    -0.253 OA
ATOM      7  N   UNL     1      -1.205   0.414  -0.367  0.00  0.00    -0.291 N 
ATOM      8  N   UNL     1      -2.996  -1.018  -0.476  0.00  0.00    -0.296 N 
ATOM     19  C   UNL     1      -2.406   0.033   0.222  0.00  0.00    +0.300 C 
ATOM     23  H   UNL     1      -0.856  -0.131  -1.149  0.00  0.00    +0.151 HD
ATOM     25  H   UNL     1      -2.535  -1.370  -1.310  0.00  0.00    +0.151 HD
BRANCH   8  20
ATOM     20  C   UNL     1      -4.252  -1.611  -0.082  0.00  0.00    +0.132 C 
BRANCH  20  21
ATOM     21  C   UNL     1      -5.368  -0.886  -0.758  0.00  0.00    -0.016 C 
ATOM     22  C   UNL     1      -6.362  -0.273  -0.106  0.00  0.00    +0.005 C 
ENDBRANCH  20  21
ENDBRANCH   8  20
ENDBRANCH  11   7
BRANCH  10   3
ATOM      3  O   UNL     1       0.855   1.953   2.180  0.00  0.00    -0.388 OA
ATOM     24  H   UNL     1       0.004   2.175   2.595  0.00  0.00    +0.210 HD
ENDBRANCH  10   3
TORSDOF 5
