REMARK  Name = 7675130
REMARK  7 active torsions:
REMARK  status: ('A' for Active; 'I' for Inactive)
REMARK    1  A    between atoms: N_7  and  C_18
REMARK    2  A    between atoms: C_15  and  C_16
REMARK    3  A    between atoms: C_15  and  C_19
REMARK    4  A    between atoms: C_15  and  C_20
REMARK    5  A    between atoms: C_15  and  C_21
REMARK    6  A    between atoms: C_16  and  C_17
REMARK    7  A    between atoms: C_18  and  C_22
REMARK                            x       y       z     vdW  Elec       q    Type
REMARK                         _______ _______ _______ _____ _____    ______ ____
ROOT
ATOM      1  O   UNL     1       1.831   2.115  -1.109  0.00  0.00    -0.273 OA
ATOM      2  O   UNL     1       3.285  -2.154  -0.164  0.00  0.00    -0.252 OA
ATOM      3  O   UNL     1      -3.540  -1.480   0.597  0.00  0.00    -0.276 OA
ATOM      5  N   UNL     1       1.167  -1.246  -0.577  0.00  0.00    -0.271 N 
ATOM      6  N   UNL     1      -1.377  -0.659   0.387  0.00  0.00    -0.298 N 
ATOM      7  N   UNL     1       2.935   0.099  -0.684  0.00  0.00    -0.215 N 
ATOM      9  C   UNL     1       0.592   0.041  -0.903  0.00  0.00    +0.181 C 
ATOM     10  C   UNL     1      -0.431   0.447   0.148  0.00  0.00    +0.139 C 
ATOM     11  C   UNL     1       0.281  -2.362  -0.299  0.00  0.00    +0.129 C 
ATOM     12  C   UNL     1      -0.752  -1.943   0.746  0.00  0.00    +0.127 C 
ATOM     13  C   UNL     1       1.840   0.907  -0.916  0.00  0.00    +0.246 C 
ATOM     14  C   UNL     1       2.556  -1.214  -0.450  0.00  0.00    +0.312 C 
ATOM     17  C   UNL     1      -2.766  -0.552   0.347  0.00  0.00    +0.216 C 
ENDROOT
BRANCH  17  16
ATOM     16  C   UNL     1      -3.328   0.795  -0.032  0.00  0.00    +0.102 C 
BRANCH  16  15
ATOM     15  C   UNL     1      -4.867   0.832   0.002  0.00  0.00    -0.029 C 
ATOM     19  C   UNL     1      -5.469  -0.196  -0.970  0.00  0.00    +0.011 C 
ATOM     20  C   UNL     1      -5.396   2.234  -0.344  0.00  0.00    +0.011 C 
ATOM     21  C   UNL     1      -5.316   0.477   1.432  0.00  0.00    +0.011 C 
ENDBRANCH  16  15
ENDBRANCH  17  16
BRANCH   7  18
ATOM     18  C   UNL     1       4.302   0.575  -0.631  0.00  0.00    +0.213 C 
BRANCH  18  22
ATOM      4  O   UNL     1       3.823   1.428   1.585  0.00  0.00    -0.274 OA
ATOM      8  N   UNL     1       5.989   0.867   1.054  0.00  0.00    -0.328 N 
ATOM     22  C   UNL     1       4.643   0.989   0.782  0.00  0.00    +0.228 C 
ATOM     23  H   UNL     1       6.362   1.123   1.962  0.00  0.00    +0.145 HD
ATOM     24  H   UNL     1       6.655   0.522   0.370  0.00  0.00    +0.145 HD
ENDBRANCH  18  22
ENDBRANCH   7  18
TORSDOF 4
