MODEL 1
REMARK VINA RESULT:      -6.6      0.000      0.000
REMARK  Name = 11913087
REMARK  6 active torsions:
REMARK  status: ('A' for Active; 'I' for Inactive)
REMARK    1  A    between atoms: O_4  and  C_13
REMARK    2  A    between atoms: O_4  and  C_17
REMARK    3  A    between atoms: N_6  and  C_12
REMARK    4  A    between atoms: N_9  and  C_20
REMARK    5  A    between atoms: C_18  and  C_22
REMARK    6  A    between atoms: C_20  and  C_23
REMARK                            x       y       z     vdW  Elec       q    Type
REMARK                         _______ _______ _______ _____ _____    ______ ____
ROOT
ATOM      2  O   UNL     1      -6.168 -12.486  19.031  0.00  0.00    -0.368 OA
ATOM      3  O   UNL     1      -7.474 -11.164  16.590  0.00  0.00    -0.368 OA
ATOM     10  C   UNL     1      -6.208 -10.932  17.241  0.00  0.00    +0.173 C 
ATOM     11  C   UNL     1      -6.439 -11.108  18.728  0.00  0.00    +0.192 C 
ATOM     12  C   UNL     1      -5.236 -12.034  16.889  0.00  0.00    +0.130 C 
ATOM     13  C   UNL     1      -7.907 -10.782  18.871  0.00  0.00    +0.235 C 
ATOM     14  C   UNL     1      -5.618 -13.128  17.870  0.00  0.00    +0.185 C 
ATOM     15  C   UNL     1      -8.484 -11.346  17.594  0.00  0.00    +0.207 C 
ENDROOT
BRANCH  12   6
ATOM      6  N   UNL     1      -3.876 -11.599  17.127  0.00  0.00    -0.306 N 
ATOM      7  N   UNL     1      -3.562 -10.988  14.882  0.00  0.00    -0.214 NA
ATOM      8  N   UNL     1      -1.796 -10.711  16.500  0.00  0.00    -0.223 NA
ATOM     16  C   UNL     1      -3.053 -11.084  16.139  0.00  0.00    +0.216 A 
ATOM     18  C   UNL     1      -2.733 -10.482  13.946  0.00  0.00    +0.083 A 
ATOM     19  C   UNL     1      -1.022 -10.213  15.513  0.00  0.00    +0.116 A 
ATOM     21  C   UNL     1      -1.441 -10.074  14.206  0.00  0.00    +0.049 A 
ATOM     28  H   UNL     1      -3.505 -11.617  18.069  0.00  0.00    +0.149 HD
BRANCH  18  22
ATOM      1  S   UNL     1      -4.999 -10.264  12.455  0.00  0.00    -0.095 S 
ATOM     22  C   UNL     1      -3.298 -10.393  12.626  0.00  0.00    +0.038 A 
ATOM     24  C   UNL     1      -2.660 -10.395  11.401  0.00  0.00    +0.017 A 
ATOM     25  C   UNL     1      -3.577 -10.289  10.316  0.00  0.00    +0.008 A 
ATOM     26  C   UNL     1      -4.883 -10.209  10.747  0.00  0.00    +0.046 A 
ENDBRANCH  18  22
ENDBRANCH  12   6
BRANCH  13   4
ATOM      4  O   UNL     1      -8.500 -11.350  20.017  0.00  0.00    -0.442 OA
BRANCH   4  17
ATOM      5  O   UNL     1     -10.498 -12.466  19.825  0.00  0.00    -0.226 OA
ATOM      9  N   UNL     1     -10.428 -10.195  20.294  0.00  0.00    -0.278 N 
ATOM     17  C   UNL     1      -9.874 -11.430  20.028  0.00  0.00    +0.401 C 
ATOM     29  H   UNL     1      -9.798  -9.415  20.456  0.00  0.00    +0.152 HD
BRANCH   9  20
ATOM     20  C   UNL     1     -11.850  -9.954  20.372  0.00  0.00    +0.134 C 
BRANCH  20  23
ATOM     23  C   UNL     1     -12.360  -9.600  19.014  0.00  0.00    -0.016 C 
ATOM     27  C   UNL     1     -13.628  -9.776  18.624  0.00  0.00    +0.005 C 
ENDBRANCH  20  23
ENDBRANCH   9  20
ENDBRANCH   4  17
ENDBRANCH  13   4
TORSDOF 6
ENDMDL
MODEL 2
REMARK VINA RESULT:      -6.4     27.106     29.896
REMARK  Name = 11913087
REMARK  6 active torsions:
REMARK  status: ('A' for Active; 'I' for Inactive)
REMARK    1  A    between atoms: O_4  and  C_13
REMARK    2  A    between atoms: O_4  and  C_17
REMARK    3  A    between atoms: N_6  and  C_12
REMARK    4  A    between atoms: N_9  and  C_20
REMARK    5  A    between atoms: C_18  and  C_22
REMARK    6  A    between atoms: C_20  and  C_23
REMARK                            x       y       z     vdW  Elec       q    Type
REMARK                         _______ _______ _______ _____ _____    ______ ____
ROOT
ATOM      2  O   UNL     1      14.273   8.619  19.158  0.00  0.00    -0.368 OA
ATOM      3  O   UNL     1      13.300   7.529  21.856  0.00  0.00    -0.368 OA
ATOM     10  C   UNL     1      14.079   6.922  20.803  0.00  0.00    +0.173 C 
ATOM     11  C   UNL     1      13.523   7.439  19.492  0.00  0.00    +0.192 C 
ATOM     12  C   UNL     1      15.494   7.453  20.835  0.00  0.00    +0.130 C 
ATOM     13  C   UNL     1      12.094   7.769  19.849  0.00  0.00    +0.235 C 
ATOM     14  C   UNL     1      15.365   8.764  20.080  0.00  0.00    +0.185 C 
ATOM     15  C   UNL     1      12.230   8.280  21.265  0.00  0.00    +0.207 C 
ENDROOT
BRANCH  12   6
ATOM      6  N   UNL     1      16.384   6.553  20.132  0.00  0.00    -0.306 N 
ATOM      7  N   UNL     1      18.192   7.069  21.537  0.00  0.00    -0.214 NA
ATOM      8  N   UNL     1      18.435   5.487  19.733  0.00  0.00    -0.223 NA
ATOM     16  C   UNL     1      17.711   6.365  20.478  0.00  0.00    +0.216 A 
ATOM     18  C   UNL     1      19.489   6.859  21.845  0.00  0.00    +0.083 A 
ATOM     19  C   UNL     1      19.724   5.327  20.099  0.00  0.00    +0.116 A 
ATOM     21  C   UNL     1      20.311   5.992  21.155  0.00  0.00    +0.049 A 
ATOM     28  H   UNL     1      16.021   5.985  19.376  0.00  0.00    +0.149 HD
BRANCH  18  22
ATOM      1  S   UNL     1      20.002   9.330  22.866  0.00  0.00    -0.095 S 
ATOM     22  C   UNL     1      19.971   7.618  22.968  0.00  0.00    +0.038 A 
ATOM     24  C   UNL     1      20.442   7.171  24.187  0.00  0.00    +0.017 A 
ATOM     25  C   UNL     1      20.829   8.243  25.042  0.00  0.00    +0.008 A 
ATOM     26  C   UNL     1      20.641   9.472  24.448  0.00  0.00    +0.046 A 
ENDBRANCH  18  22
ENDBRANCH  12   6
BRANCH  13   4
ATOM      4  O   UNL     1      11.505   8.722  18.994  0.00  0.00    -0.442 OA
BRANCH   4  17
ATOM      5  O   UNL     1      11.243   7.553  17.034  0.00  0.00    -0.226 OA
ATOM      9  N   UNL     1      12.386   9.571  17.089  0.00  0.00    -0.278 N 
ATOM     17  C   UNL     1      11.674   8.528  17.642  0.00  0.00    +0.401 C 
ATOM     29  H   UNL     1      12.678  10.327  17.701  0.00  0.00    +0.152 HD
BRANCH   9  20
ATOM     20  C   UNL     1      12.725   9.656  15.687  0.00  0.00    +0.134 C 
BRANCH  20  23
ATOM     23  C   UNL     1      14.204   9.531  15.534  0.00  0.00    -0.016 C 
ATOM     27  C   UNL     1      15.005  10.539  15.170  0.00  0.00    +0.005 C 
ENDBRANCH  20  23
ENDBRANCH   9  20
ENDBRANCH   4  17
ENDBRANCH  13   4
TORSDOF 6
ENDMDL
MODEL 3
REMARK VINA RESULT:      -6.3     26.955     30.164
REMARK  Name = 11913087
REMARK  6 active torsions:
REMARK  status: ('A' for Active; 'I' for Inactive)
REMARK    1  A    between atoms: O_4  and  C_13
REMARK    2  A    between atoms: O_4  and  C_17
REMARK    3  A    between atoms: N_6  and  C_12
REMARK    4  A    between atoms: N_9  and  C_20
REMARK    5  A    between atoms: C_18  and  C_22
REMARK    6  A    between atoms: C_20  and  C_23
REMARK                            x       y       z     vdW  Elec       q    Type
REMARK                         _______ _______ _______ _____ _____    ______ ____
ROOT
ATOM      2  O   UNL     1      17.676   8.391  21.485  0.00  0.00    -0.368 OA
ATOM      3  O   UNL     1      17.612   5.967  19.605  0.00  0.00    -0.368 OA
ATOM     10  C   UNL     1      16.783   6.329  20.730  0.00  0.00    +0.173 C 
ATOM     11  C   UNL     1      17.690   6.979  21.754  0.00  0.00    +0.192 C 
ATOM     12  C   UNL     1      15.827   7.431  20.335  0.00  0.00    +0.130 C 
ATOM     13  C   UNL     1      19.033   6.365  21.438  0.00  0.00    +0.235 C 
ATOM     14  C   UNL     1      16.688   8.673  20.481  0.00  0.00    +0.185 C 
ATOM     15  C   UNL     1      18.982   6.243  19.933  0.00  0.00    +0.207 C 
ENDROOT
BRANCH  12   6
ATOM      6  N   UNL     1      14.711   7.481  21.256  0.00  0.00    -0.306 N 
ATOM      7  N   UNL     1      13.207   8.117  19.570  0.00  0.00    -0.214 NA
ATOM      8  N   UNL     1      12.467   7.826  21.845  0.00  0.00    -0.223 NA
ATOM     16  C   UNL     1      13.423   7.819  20.879  0.00  0.00    +0.216 A 
ATOM     18  C   UNL     1      11.940   8.440  19.238  0.00  0.00    +0.083 A 
ATOM     19  C   UNL     1      11.222   8.158  21.442  0.00  0.00    +0.116 A 
ATOM     21  C   UNL     1      10.897   8.477  20.141  0.00  0.00    +0.049 A 
ATOM     28  H   UNL     1      14.850   7.210  22.222  0.00  0.00    +0.149 HD
BRANCH  18  22
ATOM      1  S   UNL     1      12.994   9.546  16.985  0.00  0.00    -0.095 S 
ATOM     22  C   UNL     1      11.742   8.751  17.848  0.00  0.00    +0.038 A 
ATOM     24  C   UNL     1      10.646   8.503  17.044  0.00  0.00    +0.017 A 
ATOM     25  C   UNL     1      10.839   8.969  15.711  0.00  0.00    +0.008 A 
ATOM     26  C   UNL     1      12.073   9.556  15.541  0.00  0.00    +0.046 A 
ENDBRANCH  18  22
ENDBRANCH  12   6
BRANCH  13   4
ATOM      4  O   UNL     1      20.125   7.145  21.871  0.00  0.00    -0.442 OA
BRANCH   4  17
ATOM      5  O   UNL     1      22.412   7.074  21.667  0.00  0.00    -0.226 OA
ATOM      9  N   UNL     1      21.202   5.201  22.308  0.00  0.00    -0.278 N 
ATOM     17  C   UNL     1      21.349   6.518  21.926  0.00  0.00    +0.401 C 
ATOM     29  H   UNL     1      20.264   4.865  22.507  0.00  0.00    +0.152 HD
BRANCH   9  20
ATOM     20  C   UNL     1      22.305   4.281  22.458  0.00  0.00    +0.134 C 
BRANCH  20  23
ATOM     23  C   UNL     1      22.373   3.401  21.255  0.00  0.00    -0.016 C 
ATOM     27  C   UNL     1      23.301   2.454  21.074  0.00  0.00    +0.005 C 
ENDBRANCH  20  23
ENDBRANCH   9  20
ENDBRANCH   4  17
ENDBRANCH  13   4
TORSDOF 6
ENDMDL
MODEL 4
REMARK VINA RESULT:      -6.2      3.169      8.965
REMARK  Name = 11913087
REMARK  6 active torsions:
REMARK  status: ('A' for Active; 'I' for Inactive)
REMARK    1  A    between atoms: O_4  and  C_13
REMARK    2  A    between atoms: O_4  and  C_17
REMARK    3  A    between atoms: N_6  and  C_12
REMARK    4  A    between atoms: N_9  and  C_20
REMARK    5  A    between atoms: C_18  and  C_22
REMARK    6  A    between atoms: C_20  and  C_23
REMARK                            x       y       z     vdW  Elec       q    Type
REMARK                         _______ _______ _______ _____ _____    ______ ____
ROOT
ATOM      2  O   UNL     1      -5.628 -11.120  15.270  0.00  0.00    -0.368 OA
ATOM      3  O   UNL     1      -5.162 -10.774  18.282  0.00  0.00    -0.368 OA
ATOM     10  C   UNL     1      -5.707  -9.880  17.289  0.00  0.00    +0.173 C 
ATOM     11  C   UNL     1      -4.924 -10.111  16.013  0.00  0.00    +0.192 C 
ATOM     12  C   UNL     1      -7.116 -10.298  16.935  0.00  0.00    +0.130 C 
ATOM     13  C   UNL     1      -3.599 -10.620  16.529  0.00  0.00    +0.235 C 
ATOM     14  C   UNL     1      -6.880 -11.398  15.916  0.00  0.00    +0.185 C 
ATOM     15  C   UNL     1      -4.018 -11.440  17.726  0.00  0.00    +0.207 C 
ENDROOT
BRANCH  12   6
ATOM      6  N   UNL     1      -7.829  -9.195  16.328  0.00  0.00    -0.306 N 
ATOM      7  N   UNL     1      -9.752  -9.585  17.616  0.00  0.00    -0.214 NA
ATOM      8  N   UNL     1      -9.677  -7.784  16.016  0.00  0.00    -0.223 NA
ATOM     16  C   UNL     1      -9.126  -8.845  16.663  0.00  0.00    +0.216 A 
ATOM     18  C   UNL     1     -11.014  -9.215  17.918  0.00  0.00    +0.083 A 
ATOM     19  C   UNL     1     -10.941  -7.470  16.368  0.00  0.00    +0.116 A 
ATOM     21  C   UNL     1     -11.665  -8.155  17.321  0.00  0.00    +0.049 A 
ATOM     28  H   UNL     1      -7.354  -8.605  15.656  0.00  0.00    +0.149 HD
BRANCH  18  22
ATOM      1  S   UNL     1     -10.917 -11.490  19.408  0.00  0.00    -0.095 S 
ATOM     22  C   UNL     1     -11.651 -10.017  18.928  0.00  0.00    +0.038 A 
ATOM     24  C   UNL     1     -12.827  -9.784  19.615  0.00  0.00    +0.017 A 
ATOM     25  C   UNL     1     -13.124 -10.824  20.542  0.00  0.00    +0.008 A 
ATOM     26  C   UNL     1     -12.166 -11.815  20.533  0.00  0.00    +0.046 A 
ENDBRANCH  18  22
ENDBRANCH  12   6
BRANCH  13   4
ATOM      4  O   UNL     1      -2.884 -11.384  15.585  0.00  0.00    -0.442 OA
BRANCH   4  17
ATOM      5  O   UNL     1      -1.150  -9.983  15.030  0.00  0.00    -0.226 OA
ATOM      9  N   UNL     1      -2.525 -10.902  13.402  0.00  0.00    -0.278 N 
ATOM     17  C   UNL     1      -2.096 -10.689  14.695  0.00  0.00    +0.401 C 
ATOM     29  H   UNL     1      -3.317 -11.521  13.258  0.00  0.00    +0.152 HD
BRANCH   9  20
ATOM     20  C   UNL     1      -1.899 -10.308  12.242  0.00  0.00    +0.134 C 
BRANCH  20  23
ATOM     23  C   UNL     1      -2.855 -10.354  11.096  0.00  0.00    -0.016 C 
ATOM     27  C   UNL     1      -3.074  -9.328  10.267  0.00  0.00    +0.005 C 
ENDBRANCH  20  23
ENDBRANCH   9  20
ENDBRANCH   4  17
ENDBRANCH  13   4
TORSDOF 6
ENDMDL
MODEL 5
REMARK VINA RESULT:      -6.2      4.668      9.766
REMARK  Name = 11913087
REMARK  6 active torsions:
REMARK  status: ('A' for Active; 'I' for Inactive)
REMARK    1  A    between atoms: O_4  and  C_13
REMARK    2  A    between atoms: O_4  and  C_17
REMARK    3  A    between atoms: N_6  and  C_12
REMARK    4  A    between atoms: N_9  and  C_20
REMARK    5  A    between atoms: C_18  and  C_22
REMARK    6  A    between atoms: C_20  and  C_23
REMARK                            x       y       z     vdW  Elec       q    Type
REMARK                         _______ _______ _______ _____ _____    ______ ____
ROOT
ATOM      2  O   UNL     1      -4.900  -9.069  10.118  0.00  0.00    -0.368 OA
ATOM      3  O   UNL     1      -6.491 -11.661  10.520  0.00  0.00    -0.368 OA
ATOM     10  C   UNL     1      -5.095 -11.355  10.717  0.00  0.00    +0.173 C 
ATOM     11  C   UNL     1      -4.695 -10.399   9.612  0.00  0.00    +0.192 C 
ATOM     12  C   UNL     1      -4.915 -10.548  11.982  0.00  0.00    +0.130 C 
ATOM     13  C   UNL     1      -5.677 -10.737   8.515  0.00  0.00    +0.235 C 
ATOM     14  C   UNL     1      -5.230  -9.139  11.514  0.00  0.00    +0.185 C 
ATOM     15  C   UNL     1      -6.931 -11.053   9.297  0.00  0.00    +0.207 C 
ENDROOT
BRANCH  12   6
ATOM      6  N   UNL     1      -3.545 -10.631  12.440  0.00  0.00    -0.306 N 
ATOM      7  N   UNL     1      -4.181 -10.580  14.699  0.00  0.00    -0.214 NA
ATOM      8  N   UNL     1      -1.859 -10.730  14.068  0.00  0.00    -0.223 NA
ATOM     16  C   UNL     1      -3.184 -10.647  13.776  0.00  0.00    +0.216 A 
ATOM     18  C   UNL     1      -3.793 -10.598  15.991  0.00  0.00    +0.083 A 
ATOM     19  C   UNL     1      -1.543 -10.744  15.380  0.00  0.00    +0.116 A 
ATOM     21  C   UNL     1      -2.475 -10.680  16.394  0.00  0.00    +0.049 A 
ATOM     28  H   UNL     1      -2.799 -10.735  11.762  0.00  0.00    +0.149 HD
BRANCH  18  22
ATOM      1  S   UNL     1      -6.340  -9.777  16.482  0.00  0.00    -0.095 S 
ATOM     22  C   UNL     1      -4.867 -10.525  16.943  0.00  0.00    +0.038 A 
ATOM     24  C   UNL     1      -4.914 -10.983  18.246  0.00  0.00    +0.017 A 
ATOM     25  C   UNL     1      -6.168 -10.717  18.866  0.00  0.00    +0.008 A 
ATOM     26  C   UNL     1      -7.038 -10.066  18.019  0.00  0.00    +0.046 A 
ENDBRANCH  18  22
ENDBRANCH  12   6
BRANCH  13   4
ATOM      4  O   UNL     1      -5.876  -9.688   7.595  0.00  0.00    -0.442 OA
BRANCH   4  17
ATOM      5  O   UNL     1      -6.569  -9.413   5.422  0.00  0.00    -0.226 OA
ATOM      9  N   UNL     1      -5.172 -11.164   6.027  0.00  0.00    -0.278 N 
ATOM     17  C   UNL     1      -5.929 -10.035   6.264  0.00  0.00    +0.401 C 
ATOM     29  H   UNL     1      -4.679 -11.580   6.812  0.00  0.00    +0.152 HD
BRANCH   9  20
ATOM     20  C   UNL     1      -5.029 -11.775   4.726  0.00  0.00    +0.134 C 
BRANCH  20  23
ATOM     23  C   UNL     1      -3.661 -12.363   4.612  0.00  0.00    -0.016 C 
ATOM     27  C   UNL     1      -2.964 -12.413   3.471  0.00  0.00    +0.005 C 
ENDBRANCH  20  23
ENDBRANCH   9  20
ENDBRANCH   4  17
ENDBRANCH  13   4
TORSDOF 6
ENDMDL
MODEL 6
REMARK VINA RESULT:      -6.2      4.280      5.956
REMARK  Name = 11913087
REMARK  6 active torsions:
REMARK  status: ('A' for Active; 'I' for Inactive)
REMARK    1  A    between atoms: O_4  and  C_13
REMARK    2  A    between atoms: O_4  and  C_17
REMARK    3  A    between atoms: N_6  and  C_12
REMARK    4  A    between atoms: N_9  and  C_20
REMARK    5  A    between atoms: C_18  and  C_22
REMARK    6  A    between atoms: C_20  and  C_23
REMARK                            x       y       z     vdW  Elec       q    Type
REMARK                         _______ _______ _______ _____ _____    ______ ____
ROOT
ATOM      2  O   UNL     1     -11.058  -9.691  16.312  0.00  0.00    -0.368 OA
ATOM      3  O   UNL     1      -9.813  -6.918  15.893  0.00  0.00    -0.368 OA
ATOM     10  C   UNL     1      -9.825  -7.799  17.036  0.00  0.00    +0.173 C 
ATOM     11  C   UNL     1     -11.184  -8.470  17.059  0.00  0.00    +0.192 C 
ATOM     12  C   UNL     1      -8.858  -8.939  16.820  0.00  0.00    +0.130 C 
ATOM     13  C   UNL     1     -12.057  -7.466  16.346  0.00  0.00    +0.235 C 
ATOM     14  C   UNL     1      -9.676  -9.904  15.981  0.00  0.00    +0.185 C 
ATOM     15  C   UNL     1     -11.119  -6.917  15.296  0.00  0.00    +0.207 C 
ENDROOT
BRANCH  12   6
ATOM      6  N   UNL     1      -8.508  -9.547  18.086  0.00  0.00    -0.306 N 
ATOM      7  N   UNL     1      -6.369 -10.152  17.330  0.00  0.00    -0.214 NA
ATOM      8  N   UNL     1      -7.085 -10.676  19.571  0.00  0.00    -0.223 NA
ATOM     16  C   UNL     1      -7.284 -10.143  18.336  0.00  0.00    +0.216 A 
ATOM     18  C   UNL     1      -5.188 -10.741  17.609  0.00  0.00    +0.083 A 
ATOM     19  C   UNL     1      -5.881 -11.248  19.781  0.00  0.00    +0.116 A 
ATOM     21  C   UNL     1      -4.885 -11.310  18.829  0.00  0.00    +0.049 A 
ATOM     28  H   UNL     1      -9.161  -9.500  18.859  0.00  0.00    +0.149 HD
BRANCH  18  22
ATOM      1  S   UNL     1      -4.822 -10.705  14.913  0.00  0.00    -0.095 S 
ATOM     22  C   UNL     1      -4.242 -10.736  16.526  0.00  0.00    +0.038 A 
ATOM     24  C   UNL     1      -2.861 -10.753  16.572  0.00  0.00    +0.017 A 
ATOM     25  C   UNL     1      -2.279 -10.741  15.272  0.00  0.00    +0.008 A 
ATOM     26  C   UNL     1      -3.232 -10.714  14.277  0.00  0.00    +0.046 A 
ENDBRANCH  18  22
ENDBRANCH  12   6
BRANCH  13   4
ATOM      4  O   UNL     1     -13.216  -8.032  15.778  0.00  0.00    -0.442 OA
BRANCH   4  17
ATOM      5  O   UNL     1     -15.051  -6.823  16.450  0.00  0.00    -0.226 OA
ATOM      9  N   UNL     1     -14.343  -6.808  14.241  0.00  0.00    -0.278 N 
ATOM     17  C   UNL     1     -14.279  -7.183  15.566  0.00  0.00    +0.401 C 
ATOM     29  H   UNL     1     -13.633  -7.168  13.609  0.00  0.00    +0.152 HD
BRANCH   9  20
ATOM     20  C   UNL     1     -15.350  -5.921  13.705  0.00  0.00    +0.134 C 
BRANCH  20  23
ATOM     23  C   UNL     1     -14.717  -4.611  13.371  0.00  0.00    -0.016 C 
ATOM     27  C   UNL     1     -13.403  -4.442  13.188  0.00  0.00    +0.005 C 
ENDBRANCH  20  23
ENDBRANCH   9  20
ENDBRANCH   4  17
ENDBRANCH  13   4
TORSDOF 6
ENDMDL
MODEL 7
REMARK VINA RESULT:      -6.2     19.013     21.560
REMARK  Name = 11913087
REMARK  6 active torsions:
REMARK  status: ('A' for Active; 'I' for Inactive)
REMARK    1  A    between atoms: O_4  and  C_13
REMARK    2  A    between atoms: O_4  and  C_17
REMARK    3  A    between atoms: N_6  and  C_12
REMARK    4  A    between atoms: N_9  and  C_20
REMARK    5  A    between atoms: C_18  and  C_22
REMARK    6  A    between atoms: C_20  and  C_23
REMARK                            x       y       z     vdW  Elec       q    Type
REMARK                         _______ _______ _______ _____ _____    ______ ____
ROOT
ATOM      2  O   UNL     1     -13.537   4.975  22.058  0.00  0.00    -0.368 OA
ATOM      3  O   UNL     1     -15.381   7.169  23.152  0.00  0.00    -0.368 OA
ATOM     10  C   UNL     1     -15.640   5.800  22.776  0.00  0.00    +0.173 C 
ATOM     11  C   UNL     1     -14.778   5.506  21.565  0.00  0.00    +0.192 C 
ATOM     12  C   UNL     1     -15.112   4.864  23.838  0.00  0.00    +0.130 C 
ATOM     13  C   UNL     1     -14.596   6.875  20.953  0.00  0.00    +0.235 C 
ATOM     14  C   UNL     1     -13.642   4.758  23.474  0.00  0.00    +0.185 C 
ATOM     15  C   UNL     1     -14.514   7.761  22.174  0.00  0.00    +0.207 C 
ENDROOT
BRANCH  12   6
ATOM      6  N   UNL     1     -15.751   3.569  23.728  0.00  0.00    -0.306 N 
ATOM      7  N   UNL     1     -15.838   3.292  26.057  0.00  0.00    -0.214 NA
ATOM      8  N   UNL     1     -16.704   1.600  24.575  0.00  0.00    -0.223 NA
ATOM     16  C   UNL     1     -16.108   2.797  24.820  0.00  0.00    +0.216 A 
ATOM     18  C   UNL     1     -16.200   2.514  27.098  0.00  0.00    +0.083 A 
ATOM     19  C   UNL     1     -17.040   0.874  25.662  0.00  0.00    +0.116 A 
ATOM     21  C   UNL     1     -16.810   1.283  26.959  0.00  0.00    +0.049 A 
ATOM     28  H   UNL     1     -16.004   3.215  22.813  0.00  0.00    +0.149 HD
BRANCH  18  22
ATOM      1  S   UNL     1     -16.613   4.554  28.850  0.00  0.00    -0.095 S 
ATOM     22  C   UNL     1     -15.902   3.062  28.393  0.00  0.00    +0.038 A 
ATOM     24  C   UNL     1     -15.088   2.558  29.389  0.00  0.00    +0.017 A 
ATOM     25  C   UNL     1     -15.051   3.405  30.535  0.00  0.00    +0.008 A 
ATOM     26  C   UNL     1     -15.837   4.525  30.376  0.00  0.00    +0.046 A 
ENDBRANCH  18  22
ENDBRANCH  12   6
BRANCH  13   4
ATOM      4  O   UNL     1     -13.448   6.980  20.142  0.00  0.00    -0.442 OA
BRANCH   4  17
ATOM      5  O   UNL     1     -13.932   8.860  18.914  0.00  0.00    -0.226 OA
ATOM      9  N   UNL     1     -11.914   8.642  20.038  0.00  0.00    -0.278 N 
ATOM     17  C   UNL     1     -13.164   8.226  19.631  0.00  0.00    +0.401 C 
ATOM     29  H   UNL     1     -11.380   8.025  20.643  0.00  0.00    +0.152 HD
BRANCH   9  20
ATOM     20  C   UNL     1     -11.330   9.910  19.666  0.00  0.00    +0.134 C 
BRANCH  20  23
ATOM     23  C   UNL     1     -10.102   9.663  18.854  0.00  0.00    -0.016 C 
ATOM     27  C   UNL     1     -10.088   9.616  17.517  0.00  0.00    +0.005 C 
ENDBRANCH  20  23
ENDBRANCH   9  20
ENDBRANCH   4  17
ENDBRANCH  13   4
TORSDOF 6
ENDMDL
MODEL 8
REMARK VINA RESULT:      -6.2     25.273     28.534
REMARK  Name = 11913087
REMARK  6 active torsions:
REMARK  status: ('A' for Active; 'I' for Inactive)
REMARK    1  A    between atoms: O_4  and  C_13
REMARK    2  A    between atoms: O_4  and  C_17
REMARK    3  A    between atoms: N_6  and  C_12
REMARK    4  A    between atoms: N_9  and  C_20
REMARK    5  A    between atoms: C_18  and  C_22
REMARK    6  A    between atoms: C_20  and  C_23
REMARK                            x       y       z     vdW  Elec       q    Type
REMARK                         _______ _______ _______ _____ _____    ______ ____
ROOT
ATOM      2  O   UNL     1      10.974   3.614   0.725  0.00  0.00    -0.368 OA
ATOM      3  O   UNL     1      13.758   4.705   1.410  0.00  0.00    -0.368 OA
ATOM     10  C   UNL     1      12.523   5.374   1.079  0.00  0.00    +0.173 C 
ATOM     11  C   UNL     1      11.835   4.529   0.027  0.00  0.00    +0.192 C 
ATOM     12  C   UNL     1      11.579   5.329   2.259  0.00  0.00    +0.130 C 
ATOM     13  C   UNL     1      12.993   3.817  -0.630  0.00  0.00    +0.235 C 
ATOM     14  C   UNL     1      10.953   3.953   2.120  0.00  0.00    +0.185 C 
ATOM     15  C   UNL     1      13.923   3.578   0.537  0.00  0.00    +0.207 C 
ENDROOT
BRANCH  12   6
ATOM      6  N   UNL     1      10.568   6.357   2.131  0.00  0.00    -0.306 N 
ATOM      7  N   UNL     1       9.930   6.163   4.382  0.00  0.00    -0.214 NA
ATOM      8  N   UNL     1       8.848   7.744   2.920  0.00  0.00    -0.223 NA
ATOM     16  C   UNL     1       9.757   6.767   3.176  0.00  0.00    +0.216 A 
ATOM     18  C   UNL     1       9.123   6.587   5.377  0.00  0.00    +0.083 A 
ATOM     19  C   UNL     1       8.075   8.120   3.960  0.00  0.00    +0.116 A 
ATOM     21  C   UNL     1       8.169   7.572   5.222  0.00  0.00    +0.049 A 
ATOM     28  H   UNL     1      10.467   6.850   1.252  0.00  0.00    +0.149 HD
BRANCH  18  22
ATOM      1  S   UNL     1       9.043   6.802   8.088  0.00  0.00    -0.095 S 
ATOM     22  C   UNL     1       9.328   5.930   6.639  0.00  0.00    +0.038 A 
ATOM     24  C   UNL     1       9.741   4.637   6.895  0.00  0.00    +0.017 A 
ATOM     25  C   UNL     1       9.823   4.362   8.290  0.00  0.00    +0.008 A 
ATOM     26  C   UNL     1       9.469   5.454   9.054  0.00  0.00    +0.046 A 
ENDBRANCH  18  22
ENDBRANCH  12   6
BRANCH  13   4
ATOM      4  O   UNL     1      12.625   2.616  -1.270  0.00  0.00    -0.442 OA
BRANCH   4  17
ATOM      5  O   UNL     1      12.686   2.962  -3.540  0.00  0.00    -0.226 OA
ATOM      9  N   UNL     1      10.686   2.548  -2.439  0.00  0.00    -0.278 N 
ATOM     17  C   UNL     1      12.051   2.729  -2.516  0.00  0.00    +0.401 C 
ATOM     29  H   UNL     1      10.283   2.349  -1.528  0.00  0.00    +0.152 HD
BRANCH   9  20
ATOM     20  C   UNL     1       9.804   2.607  -3.581  0.00  0.00    +0.134 C 
BRANCH  20  23
ATOM     23  C   UNL     1       9.247   3.987  -3.696  0.00  0.00    -0.016 C 
ATOM     27  C   UNL     1       9.405   4.935  -2.765  0.00  0.00    +0.005 C 
ENDBRANCH  20  23
ENDBRANCH   9  20
ENDBRANCH   4  17
ENDBRANCH  13   4
TORSDOF 6
ENDMDL
MODEL 9
REMARK VINA RESULT:      -6.1     24.340     27.751
REMARK  Name = 11913087
REMARK  6 active torsions:
REMARK  status: ('A' for Active; 'I' for Inactive)
REMARK    1  A    between atoms: O_4  and  C_13
REMARK    2  A    between atoms: O_4  and  C_17
REMARK    3  A    between atoms: N_6  and  C_12
REMARK    4  A    between atoms: N_9  and  C_20
REMARK    5  A    between atoms: C_18  and  C_22
REMARK    6  A    between atoms: C_20  and  C_23
REMARK                            x       y       z     vdW  Elec       q    Type
REMARK                         _______ _______ _______ _____ _____    ______ ____
ROOT
ATOM      2  O   UNL     1      10.205   5.170   4.405  0.00  0.00    -0.368 OA
ATOM      3  O   UNL     1       9.569   7.448   2.450  0.00  0.00    -0.368 OA
ATOM     10  C   UNL     1      10.818   6.979   3.000  0.00  0.00    +0.173 C 
ATOM     11  C   UNL     1      10.541   6.568   4.432  0.00  0.00    +0.192 C 
ATOM     12  C   UNL     1      11.232   5.693   2.323  0.00  0.00    +0.130 C 
ATOM     13  C   UNL     1       9.349   7.422   4.793  0.00  0.00    +0.235 C 
ATOM     14  C   UNL     1      10.427   4.654   3.084  0.00  0.00    +0.185 C 
ATOM     15  C   UNL     1       8.582   7.464   3.492  0.00  0.00    +0.207 C 
ENDROOT
BRANCH  12   6
ATOM      6  N   UNL     1      12.649   5.463   2.505  0.00  0.00    -0.306 N 
ATOM      7  N   UNL     1      12.901   4.611   0.333  0.00  0.00    -0.214 NA
ATOM      8  N   UNL     1      14.785   4.769   1.828  0.00  0.00    -0.223 NA
ATOM     16  C   UNL     1      13.470   4.931   1.526  0.00  0.00    +0.216 A 
ATOM     18  C   UNL     1      13.731   4.095  -0.598  0.00  0.00    +0.083 A 
ATOM     19  C   UNL     1      15.556   4.249   0.851  0.00  0.00    +0.116 A 
ATOM     21  C   UNL     1      15.080   3.890  -0.393  0.00  0.00    +0.049 A 
ATOM     28  H   UNL     1      13.092   5.747   3.371  0.00  0.00    +0.149 HD
BRANCH  18  22
ATOM      1  S   UNL     1      13.305   4.818  -3.187  0.00  0.00    -0.095 S 
ATOM     22  C   UNL     1      13.102   3.766  -1.849  0.00  0.00    +0.038 A 
ATOM     24  C   UNL     1      12.314   2.678  -2.170  0.00  0.00    +0.017 A 
ATOM     25  C   UNL     1      11.875   2.711  -3.525  0.00  0.00    +0.008 A 
ATOM     26  C   UNL     1      12.344   3.821  -4.194  0.00  0.00    +0.046 A 
ENDBRANCH  18  22
ENDBRANCH  12   6
BRANCH  13   4
ATOM      4  O   UNL     1       8.578   6.893   5.848  0.00  0.00    -0.442 OA
BRANCH   4  17
ATOM      5  O   UNL     1       9.171   8.026   7.757  0.00  0.00    -0.226 OA
ATOM      9  N   UNL     1       9.570   5.751   7.534  0.00  0.00    -0.278 N 
ATOM     17  C   UNL     1       9.115   6.983   7.113  0.00  0.00    +0.401 C 
ATOM     29  H   UNL     1       9.453   4.960   6.907  0.00  0.00    +0.152 HD
BRANCH   9  20
ATOM     20  C   UNL     1      10.186   5.521   8.820  0.00  0.00    +0.134 C 
BRANCH  20  23
ATOM     23  C   UNL     1       9.465   4.414   9.515  0.00  0.00    -0.016 C 
ATOM     27  C   UNL     1       8.617   4.599  10.533  0.00  0.00    +0.005 C 
ENDBRANCH  20  23
ENDBRANCH   9  20
ENDBRANCH   4  17
ENDBRANCH  13   4
TORSDOF 6
ENDMDL
MODEL 10
REMARK VINA RESULT:      -6.0      3.199      5.032
REMARK  Name = 11913087
REMARK  6 active torsions:
REMARK  status: ('A' for Active; 'I' for Inactive)
REMARK    1  A    between atoms: O_4  and  C_13
REMARK    2  A    between atoms: O_4  and  C_17
REMARK    3  A    between atoms: N_6  and  C_12
REMARK    4  A    between atoms: N_9  and  C_20
REMARK    5  A    between atoms: C_18  and  C_22
REMARK    6  A    between atoms: C_20  and  C_23
REMARK                            x       y       z     vdW  Elec       q    Type
REMARK                         _______ _______ _______ _____ _____    ______ ____
ROOT
ATOM      2  O   UNL     1     -10.900  -9.995  16.553  0.00  0.00    -0.368 OA
ATOM      3  O   UNL     1      -9.800  -7.168  16.089  0.00  0.00    -0.368 OA
ATOM     10  C   UNL     1      -9.728  -8.048  17.231  0.00  0.00    +0.173 C 
ATOM     11  C   UNL     1     -11.053  -8.779  17.305  0.00  0.00    +0.192 C 
ATOM     12  C   UNL     1      -8.719  -9.143  16.978  0.00  0.00    +0.130 C 
ATOM     13  C   UNL     1     -11.997  -7.817  16.626  0.00  0.00    +0.235 C 
ATOM     14  C   UNL     1      -9.524 -10.145  16.170  0.00  0.00    +0.185 C 
ATOM     15  C   UNL     1     -11.126  -7.228  15.541  0.00  0.00    +0.207 C 
ENDROOT
BRANCH  12   6
ATOM      6  N   UNL     1      -8.294  -9.733  18.229  0.00  0.00    -0.306 N 
ATOM      7  N   UNL     1      -6.169 -10.263  17.385  0.00  0.00    -0.214 NA
ATOM      8  N   UNL     1      -6.769 -10.803  19.656  0.00  0.00    -0.223 NA
ATOM     16  C   UNL     1      -7.039 -10.283  18.429  0.00  0.00    +0.216 A 
ATOM     18  C   UNL     1      -4.956 -10.807  17.615  0.00  0.00    +0.083 A 
ATOM     19  C   UNL     1      -5.538 -11.330  19.816  0.00  0.00    +0.116 A 
ATOM     21  C   UNL     1      -4.581 -11.360  18.823  0.00  0.00    +0.049 A 
ATOM     28  H   UNL     1      -8.915  -9.706  19.029  0.00  0.00    +0.149 HD
BRANCH  18  22
ATOM      1  S   UNL     1      -4.706 -10.718  14.907  0.00  0.00    -0.095 S 
ATOM     22  C   UNL     1      -4.057 -10.772  16.494  0.00  0.00    +0.038 A 
ATOM     24  C   UNL     1      -2.676 -10.775  16.480  0.00  0.00    +0.017 A 
ATOM     25  C   UNL     1      -2.150 -10.733  15.157  0.00  0.00    +0.008 A 
ATOM     26  C   UNL     1      -3.145 -10.699  14.204  0.00  0.00    +0.046 A 
ENDBRANCH  18  22
ENDBRANCH  12   6
BRANCH  13   4
ATOM      4  O   UNL     1     -13.151  -8.436  16.102  0.00  0.00    -0.442 OA
BRANCH   4  17
ATOM      5  O   UNL     1     -15.126  -7.348  16.540  0.00  0.00    -0.226 OA
ATOM      9  N   UNL     1     -14.458  -9.183  17.793  0.00  0.00    -0.278 N 
ATOM     17  C   UNL     1     -14.325  -8.242  16.794  0.00  0.00    +0.401 C 
ATOM     29  H   UNL     1     -13.726  -9.880  17.893  0.00  0.00    +0.152 HD
BRANCH   9  20
ATOM     20  C   UNL     1     -15.587  -9.242  18.693  0.00  0.00    +0.134 C 
BRANCH  20  23
ATOM     23  C   UNL     1     -15.088  -9.360  20.095  0.00  0.00    -0.016 C 
ATOM     27  C   UNL     1     -13.803  -9.550  20.415  0.00  0.00    +0.005 C 
ENDBRANCH  20  23
ENDBRANCH   9  20
ENDBRANCH   4  17
ENDBRANCH  13   4
TORSDOF 6
ENDMDL
