MODEL 1
REMARK VINA RESULT:      -5.4      0.000      0.000
REMARK  Name = 11912219
REMARK  6 active torsions:
REMARK  status: ('A' for Active; 'I' for Inactive)
REMARK    1  A    between atoms: N_4  and  C_15
REMARK    2  A    between atoms: C_5  and  C_13
REMARK    3  A    between atoms: C_6  and  C_16
REMARK    4  A    between atoms: C_7  and  C_14
REMARK    5  A    between atoms: C_13  and  C_19
REMARK    6  A    between atoms: C_16  and  C_20
REMARK                            x       y       z     vdW  Elec       q    Type
REMARK                         _______ _______ _______ _____ _____    ______ ____
ROOT
ATOM      1  O   UNL     1      12.268   6.687  19.267  0.00  0.00    -0.275 OA
ATOM      3  N   UNL     1      11.847   8.782  20.191  0.00  0.00    -0.301 N 
ATOM      5  C   UNL     1      11.047  10.143  22.619  0.00  0.00    +0.004 C 
ATOM      6  C   UNL     1      12.326  10.567  21.850  0.00  0.00    +0.010 C 
ATOM      8  C   UNL     1      12.186  10.200  20.362  0.00  0.00    +0.111 C 
ATOM      9  C   UNL     1      10.701   8.664  22.370  0.00  0.00    +0.023 C 
ATOM     12  C   UNL     1      10.629   8.355  20.877  0.00  0.00    +0.108 C 
ATOM     14  C   UNL     1      12.573   7.867  19.423  0.00  0.00    +0.219 C 
ENDROOT
BRANCH  14   7
ATOM      7  C   UNL     1      13.809   8.366  18.750  0.00  0.00    +0.075 C 
ATOM     10  C   UNL     1      14.384   7.559  17.637  0.00  0.00    +0.013 C 
ATOM     11  C   UNL     1      13.700   8.864  17.350  0.00  0.00    +0.013 C 
ENDBRANCH  14   7
BRANCH   6  16
ATOM     16  C   UNL     1      13.621   9.979  22.425  0.00  0.00    +0.002 C 
ATOM     20  C   UNL     1      14.829  10.462  21.653  0.00  0.00    +0.004 C 
ENDBRANCH   6  16
BRANCH   5  13
ATOM     13  C   UNL     1      11.122  10.434  24.117  0.00  0.00    +0.099 C 
BRANCH  13  19
ATOM      2  O   UNL     1      11.991  12.474  25.090  0.00  0.00    -0.276 OA
ATOM      4  N   UNL     1      10.050  12.556  23.818  0.00  0.00    -0.312 N 
ATOM     19  C   UNL     1      11.130  11.919  24.411  0.00  0.00    +0.214 C 
ATOM     21  H   UNL     1       9.390  12.024  23.256  0.00  0.00    +0.149 HD
BRANCH   4  15
ATOM     15  C   UNL     1       9.823  13.968  23.943  0.00  0.00    +0.073 C 
ATOM     17  C   UNL     1      10.500  14.936  23.027  0.00  0.00    +0.024 C 
ATOM     18  C   UNL     1       9.021  14.706  22.922  0.00  0.00    +0.024 C 
ENDBRANCH   4  15
ENDBRANCH  13  19
ENDBRANCH   5  13
TORSDOF 5
ENDMDL
MODEL 2
REMARK VINA RESULT:      -5.3     26.317     28.124
REMARK  Name = 11912219
REMARK  6 active torsions:
REMARK  status: ('A' for Active; 'I' for Inactive)
REMARK    1  A    between atoms: N_4  and  C_15
REMARK    2  A    between atoms: C_5  and  C_13
REMARK    3  A    between atoms: C_6  and  C_16
REMARK    4  A    between atoms: C_7  and  C_14
REMARK    5  A    between atoms: C_13  and  C_19
REMARK    6  A    between atoms: C_16  and  C_20
REMARK                            x       y       z     vdW  Elec       q    Type
REMARK                         _______ _______ _______ _____ _____    ______ ____
ROOT
ATOM      1  O   UNL     1      -3.549 -11.883  18.844  0.00  0.00    -0.275 OA
ATOM      3  N   UNL     1      -3.816 -10.813  16.793  0.00  0.00    -0.301 N 
ATOM      5  C   UNL     1      -2.891 -10.763  14.051  0.00  0.00    +0.004 C 
ATOM      6  C   UNL     1      -4.403 -10.845  14.381  0.00  0.00    +0.010 C 
ATOM      8  C   UNL     1      -4.671 -10.217  15.760  0.00  0.00    +0.111 C 
ATOM      9  C   UNL     1      -2.031 -11.353  15.182  0.00  0.00    +0.023 C 
ATOM     12  C   UNL     1      -2.381 -10.726  16.530  0.00  0.00    +0.108 C 
ATOM     14  C   UNL     1      -4.273 -11.407  17.974  0.00  0.00    +0.219 C 
ENDROOT
BRANCH  14   7
ATOM      7  C   UNL     1      -5.751 -11.467  18.183  0.00  0.00    +0.075 C 
ATOM     10  C   UNL     1      -6.261 -11.875  19.522  0.00  0.00    +0.013 C 
ATOM     11  C   UNL     1      -6.381 -10.448  19.069  0.00  0.00    +0.013 C 
ENDBRANCH  14   7
BRANCH   6  16
ATOM     16  C   UNL     1      -4.977 -12.266  14.322  0.00  0.00    +0.002 C 
ATOM     20  C   UNL     1      -6.459 -12.269  14.630  0.00  0.00    +0.004 C 
ENDBRANCH   6  16
BRANCH   5  13
ATOM     13  C   UNL     1      -2.532 -11.405  12.712  0.00  0.00    +0.099 C 
BRANCH  13  19
ATOM      2  O   UNL     1      -1.402  -9.670  11.455  0.00  0.00    -0.276 OA
ATOM      4  N   UNL     1      -3.521 -10.356  10.797  0.00  0.00    -0.312 N 
ATOM     19  C   UNL     1      -2.393 -10.381  11.605  0.00  0.00    +0.214 C 
ATOM     21  H   UNL     1      -4.293 -10.992  10.981  0.00  0.00    +0.149 HD
BRANCH   4  15
ATOM     15  C   UNL     1      -3.645  -9.472   9.674  0.00  0.00    +0.073 C 
ATOM     17  C   UNL     1      -4.770  -9.622   8.702  0.00  0.00    +0.024 C 
ATOM     18  C   UNL     1      -4.727  -8.442   9.628  0.00  0.00    +0.024 C 
ENDBRANCH   4  15
ENDBRANCH  13  19
ENDBRANCH   5  13
TORSDOF 5
ENDMDL
MODEL 3
REMARK VINA RESULT:      -5.2     27.099     28.852
REMARK  Name = 11912219
REMARK  6 active torsions:
REMARK  status: ('A' for Active; 'I' for Inactive)
REMARK    1  A    between atoms: N_4  and  C_15
REMARK    2  A    between atoms: C_5  and  C_13
REMARK    3  A    between atoms: C_6  and  C_16
REMARK    4  A    between atoms: C_7  and  C_14
REMARK    5  A    between atoms: C_13  and  C_19
REMARK    6  A    between atoms: C_16  and  C_20
REMARK                            x       y       z     vdW  Elec       q    Type
REMARK                         _______ _______ _______ _____ _____    ______ ____
ROOT
ATOM      1  O   UNL     1     -16.416   1.537  29.472  0.00  0.00    -0.275 OA
ATOM      3  N   UNL     1     -14.925   3.019  30.474  0.00  0.00    -0.301 N 
ATOM      5  C   UNL     1     -14.729   5.567  31.834  0.00  0.00    +0.004 C 
ATOM      6  C   UNL     1     -14.109   4.285  32.447  0.00  0.00    +0.010 C 
ATOM      8  C   UNL     1     -13.763   3.286  31.329  0.00  0.00    +0.111 C 
ATOM      9  C   UNL     1     -15.911   5.236  30.906  0.00  0.00    +0.023 C 
ATOM     12  C   UNL     1     -15.517   4.203  29.853  0.00  0.00    +0.108 C 
ATOM     14  C   UNL     1     -15.457   1.753  30.209  0.00  0.00    +0.219 C 
ENDROOT
BRANCH  14   7
ATOM      7  C   UNL     1     -14.808   0.584  30.875  0.00  0.00    +0.075 C 
ATOM     10  C   UNL     1     -15.482  -0.741  30.792  0.00  0.00    +0.013 C 
ATOM     11  C   UNL     1     -14.223  -0.483  30.017  0.00  0.00    +0.013 C 
ENDBRANCH  14   7
BRANCH   6  16
ATOM     16  C   UNL     1     -14.989   3.614  33.508  0.00  0.00    +0.002 C 
ATOM     20  C   UNL     1     -14.453   2.248  33.877  0.00  0.00    +0.004 C 
ENDBRANCH   6  16
BRANCH   5  13
ATOM     13  C   UNL     1     -15.141   6.598  32.884  0.00  0.00    +0.099 C 
BRANCH  13  19
ATOM      2  O   UNL     1     -13.539   7.726  34.306  0.00  0.00    -0.276 OA
ATOM      4  N   UNL     1     -13.650   8.279  32.053  0.00  0.00    -0.312 N 
ATOM     19  C   UNL     1     -14.030   7.579  33.190  0.00  0.00    +0.214 C 
ATOM     21  H   UNL     1     -14.098   8.085  31.162  0.00  0.00    +0.149 HD
BRANCH   4  15
ATOM     15  C   UNL     1     -12.615   9.273  32.070  0.00  0.00    +0.073 C 
ATOM     17  C   UNL     1     -11.180   8.887  31.919  0.00  0.00    +0.024 C 
ATOM     18  C   UNL     1     -11.879   9.631  30.820  0.00  0.00    +0.024 C 
ENDBRANCH   4  15
ENDBRANCH  13  19
ENDBRANCH   5  13
TORSDOF 5
ENDMDL
MODEL 4
REMARK VINA RESULT:      -5.1     26.789     28.957
REMARK  Name = 11912219
REMARK  6 active torsions:
REMARK  status: ('A' for Active; 'I' for Inactive)
REMARK    1  A    between atoms: N_4  and  C_15
REMARK    2  A    between atoms: C_5  and  C_13
REMARK    3  A    between atoms: C_6  and  C_16
REMARK    4  A    between atoms: C_7  and  C_14
REMARK    5  A    between atoms: C_13  and  C_19
REMARK    6  A    between atoms: C_16  and  C_20
REMARK                            x       y       z     vdW  Elec       q    Type
REMARK                         _______ _______ _______ _____ _____    ______ ____
ROOT
ATOM      1  O   UNL     1      -8.969  -9.158  17.770  0.00  0.00    -0.275 OA
ATOM      3  N   UNL     1      -7.367 -10.714  17.111  0.00  0.00    -0.301 N 
ATOM      5  C   UNL     1      -4.640 -11.004  16.183  0.00  0.00    +0.004 C 
ATOM      6  C   UNL     1      -5.163 -11.822  17.392  0.00  0.00    +0.010 C 
ATOM      8  C   UNL     1      -6.687 -12.004  17.279  0.00  0.00    +0.111 C 
ATOM      9  C   UNL     1      -5.414  -9.684  16.015  0.00  0.00    +0.023 C 
ATOM     12  C   UNL     1      -6.920  -9.928  15.962  0.00  0.00    +0.108 C 
ATOM     14  C   UNL     1      -8.389 -10.229  17.932  0.00  0.00    +0.219 C 
ENDROOT
BRANCH  14   7
ATOM      7  C   UNL     1      -8.799 -11.078  19.091  0.00  0.00    +0.075 C 
ATOM     10  C   UNL     1     -10.021 -10.696  19.851  0.00  0.00    +0.013 C 
ATOM     11  C   UNL     1     -10.031 -11.905  18.961  0.00  0.00    +0.013 C 
ENDBRANCH  14   7
BRANCH   6  16
ATOM     16  C   UNL     1      -4.797 -11.223  18.755  0.00  0.00    +0.002 C 
ATOM     20  C   UNL     1      -3.822 -12.111  19.498  0.00  0.00    +0.004 C 
ENDBRANCH   6  16
BRANCH   5  13
ATOM     13  C   UNL     1      -3.136 -10.741  16.241  0.00  0.00    +0.099 C 
BRANCH  13  19
ATOM      2  O   UNL     1      -2.118 -10.299  14.089  0.00  0.00    -0.276 OA
ATOM      4  N   UNL     1      -2.222 -12.483  14.872  0.00  0.00    -0.312 N 
ATOM     19  C   UNL     1      -2.441 -11.114  14.949  0.00  0.00    +0.214 C 
ATOM     21  H   UNL     1      -2.506 -13.088  15.637  0.00  0.00    +0.149 HD
BRANCH   4  15
ATOM     15  C   UNL     1      -1.579 -13.098  13.746  0.00  0.00    +0.073 C 
ATOM     17  C   UNL     1      -1.615 -14.580  13.560  0.00  0.00    +0.024 C 
ATOM     18  C   UNL     1      -2.384 -13.686  12.633  0.00  0.00    +0.024 C 
ENDBRANCH   4  15
ENDBRANCH  13  19
ENDBRANCH   5  13
TORSDOF 5
ENDMDL
MODEL 5
REMARK VINA RESULT:      -5.0      3.635      6.986
REMARK  Name = 11912219
REMARK  6 active torsions:
REMARK  status: ('A' for Active; 'I' for Inactive)
REMARK    1  A    between atoms: N_4  and  C_15
REMARK    2  A    between atoms: C_5  and  C_13
REMARK    3  A    between atoms: C_6  and  C_16
REMARK    4  A    between atoms: C_7  and  C_14
REMARK    5  A    between atoms: C_13  and  C_19
REMARK    6  A    between atoms: C_16  and  C_20
REMARK                            x       y       z     vdW  Elec       q    Type
REMARK                         _______ _______ _______ _____ _____    ______ ____
ROOT
ATOM      1  O   UNL     1      10.448   8.385  19.578  0.00  0.00    -0.275 OA
ATOM      3  N   UNL     1      12.655   8.891  19.038  0.00  0.00    -0.301 N 
ATOM      5  C   UNL     1      14.327  10.329  17.162  0.00  0.00    +0.004 C 
ATOM      6  C   UNL     1      14.493  10.525  18.691  0.00  0.00    +0.010 C 
ATOM      8  C   UNL     1      14.019   9.263  19.433  0.00  0.00    +0.111 C 
ATOM      9  C   UNL     1      12.897   9.891  16.798  0.00  0.00    +0.023 C 
ATOM     12  C   UNL     1      12.470   8.668  17.605  0.00  0.00    +0.108 C 
ATOM     14  C   UNL     1      11.581   8.720  19.915  0.00  0.00    +0.219 C 
ENDROOT
BRANCH  14   7
ATOM      7  C   UNL     1      11.835   8.966  21.367  0.00  0.00    +0.075 C 
ATOM     10  C   UNL     1      11.052  10.032  22.052  0.00  0.00    +0.013 C 
ATOM     11  C   UNL     1      10.776   8.585  22.344  0.00  0.00    +0.013 C 
ENDBRANCH  14   7
BRANCH   6  16
ATOM     16  C   UNL     1      13.778  11.766  19.240  0.00  0.00    +0.002 C 
ATOM     20  C   UNL     1      14.033  11.930  20.723  0.00  0.00    +0.004 C 
ENDBRANCH   6  16
BRANCH   5  13
ATOM     13  C   UNL     1      14.737  11.557  16.350  0.00  0.00    +0.099 C 
BRANCH  13  19
ATOM      2  O   UNL     1      14.861  10.595  14.131  0.00  0.00    -0.276 OA
ATOM      4  N   UNL     1      13.403  12.360  14.528  0.00  0.00    -0.312 N 
ATOM     19  C   UNL     1      14.365  11.426  14.889  0.00  0.00    +0.214 C 
ATOM     21  H   UNL     1      13.033  13.003  15.222  0.00  0.00    +0.149 HD
BRANCH   4  15
ATOM     15  C   UNL     1      12.878  12.449  13.195  0.00  0.00    +0.073 C 
ATOM     17  C   UNL     1      11.466  12.059  12.901  0.00  0.00    +0.024 C 
ATOM     18  C   UNL     1      11.878  13.500  12.838  0.00  0.00    +0.024 C 
ENDBRANCH   4  15
ENDBRANCH  13  19
ENDBRANCH   5  13
TORSDOF 5
ENDMDL
MODEL 6
REMARK VINA RESULT:      -4.9     26.151     28.455
REMARK  Name = 11912219
REMARK  6 active torsions:
REMARK  status: ('A' for Active; 'I' for Inactive)
REMARK    1  A    between atoms: N_4  and  C_15
REMARK    2  A    between atoms: C_5  and  C_13
REMARK    3  A    between atoms: C_6  and  C_16
REMARK    4  A    between atoms: C_7  and  C_14
REMARK    5  A    between atoms: C_13  and  C_19
REMARK    6  A    between atoms: C_16  and  C_20
REMARK                            x       y       z     vdW  Elec       q    Type
REMARK                         _______ _______ _______ _____ _____    ______ ____
ROOT
ATOM      1  O   UNL     1      -6.281  -9.861  16.608  0.00  0.00    -0.275 OA
ATOM      3  N   UNL     1      -4.882 -11.070  15.192  0.00  0.00    -0.301 N 
ATOM      5  C   UNL     1      -3.448 -10.961  12.679  0.00  0.00    +0.004 C 
ATOM      6  C   UNL     1      -2.729 -11.368  13.992  0.00  0.00    +0.010 C 
ATOM      8  C   UNL     1      -3.745 -11.973  14.977  0.00  0.00    +0.111 C 
ATOM      9  C   UNL     1      -4.663 -10.058  12.956  0.00  0.00    +0.023 C 
ATOM     12  C   UNL     1      -5.603 -10.690  13.979  0.00  0.00    +0.108 C 
ATOM     14  C   UNL     1      -5.313 -10.598  16.436  0.00  0.00    +0.219 C 
ENDROOT
BRANCH  14   7
ATOM      7  C   UNL     1      -4.532 -11.021  17.637  0.00  0.00    +0.075 C 
ATOM     10  C   UNL     1      -5.205 -10.990  18.965  0.00  0.00    +0.013 C 
ATOM     11  C   UNL     1      -4.899 -12.302  18.303  0.00  0.00    +0.013 C 
ENDBRANCH  14   7
BRANCH   6  16
ATOM     16  C   UNL     1      -1.956 -10.224  14.658  0.00  0.00    +0.002 C 
ATOM     20  C   UNL     1      -1.335 -10.673  15.964  0.00  0.00    +0.004 C 
ENDBRANCH   6  16
BRANCH   5  13
ATOM     13  C   UNL     1      -2.515 -10.311  11.659  0.00  0.00    +0.099 C 
BRANCH  13  19
ATOM      2  O   UNL     1      -3.338  -8.797   9.959  0.00  0.00    -0.276 OA
ATOM      4  N   UNL     1      -3.750 -11.073   9.753  0.00  0.00    -0.312 N 
ATOM     19  C   UNL     1      -3.233  -9.947  10.378  0.00  0.00    +0.214 C 
ATOM     21  H   UNL     1      -3.604 -11.993  10.159  0.00  0.00    +0.149 HD
BRANCH   4  15
ATOM     15  C   UNL     1      -4.479 -11.003   8.518  0.00  0.00    +0.073 C 
ATOM     17  C   UNL     1      -5.462 -12.066   8.148  0.00  0.00    +0.024 C 
ATOM     18  C   UNL     1      -5.940 -10.691   8.511  0.00  0.00    +0.024 C 
ENDBRANCH   4  15
ENDBRANCH  13  19
ENDBRANCH   5  13
TORSDOF 5
ENDMDL
MODEL 7
REMARK VINA RESULT:      -4.9      1.990      2.995
REMARK  Name = 11912219
REMARK  6 active torsions:
REMARK  status: ('A' for Active; 'I' for Inactive)
REMARK    1  A    between atoms: N_4  and  C_15
REMARK    2  A    between atoms: C_5  and  C_13
REMARK    3  A    between atoms: C_6  and  C_16
REMARK    4  A    between atoms: C_7  and  C_14
REMARK    5  A    between atoms: C_13  and  C_19
REMARK    6  A    between atoms: C_16  and  C_20
REMARK                            x       y       z     vdW  Elec       q    Type
REMARK                         _______ _______ _______ _____ _____    ______ ____
ROOT
ATOM      1  O   UNL     1      13.129  10.398  17.862  0.00  0.00    -0.275 OA
ATOM      3  N   UNL     1      13.196   9.905  20.136  0.00  0.00    -0.301 N 
ATOM      5  C   UNL     1      11.980  10.514  22.692  0.00  0.00    +0.004 C 
ATOM      6  C   UNL     1      12.134   9.049  22.211  0.00  0.00    +0.010 C 
ATOM      8  C   UNL     1      13.320   8.941  21.236  0.00  0.00    +0.111 C 
ATOM      9  C   UNL     1      11.905  11.494  21.508  0.00  0.00    +0.023 C 
ATOM     12  C   UNL     1      13.080  11.301  20.553  0.00  0.00    +0.108 C 
ATOM     14  C   UNL     1      13.210   9.582  18.776  0.00  0.00    +0.219 C 
ENDROOT
BRANCH  14   7
ATOM      7  C   UNL     1      13.329   8.137  18.416  0.00  0.00    +0.075 C 
ATOM     10  C   UNL     1      13.948   7.781  17.109  0.00  0.00    +0.013 C 
ATOM     11  C   UNL     1      14.686   7.524  18.390  0.00  0.00    +0.013 C 
ENDBRANCH  14   7
BRANCH   6  16
ATOM     16  C   UNL     1      10.866   8.466  21.574  0.00  0.00    +0.002 C 
ATOM     20  C   UNL     1      10.902   6.953  21.574  0.00  0.00    +0.004 C 
ENDBRANCH   6  16
BRANCH   5  13
ATOM     13  C   UNL     1      10.794  10.717  23.634  0.00  0.00    +0.099 C 
BRANCH  13  19
ATOM      2  O   UNL     1      10.131  12.756  24.759  0.00  0.00    -0.276 OA
ATOM      4  N   UNL     1      12.255  11.892  25.126  0.00  0.00    -0.312 N 
ATOM     19  C   UNL     1      10.991  11.902  24.554  0.00  0.00    +0.214 C 
ATOM     21  H   UNL     1      12.903  11.137  24.916  0.00  0.00    +0.149 HD
BRANCH   4  15
ATOM     15  C   UNL     1      12.697  12.908  26.039  0.00  0.00    +0.073 C 
ATOM     17  C   UNL     1      14.137  13.017  26.424  0.00  0.00    +0.024 C 
ATOM     18  C   UNL     1      13.507  14.067  25.557  0.00  0.00    +0.024 C 
ENDBRANCH   4  15
ENDBRANCH  13  19
ENDBRANCH   5  13
TORSDOF 5
ENDMDL
MODEL 8
REMARK VINA RESULT:      -4.8     16.286     20.777
REMARK  Name = 11912219
REMARK  6 active torsions:
REMARK  status: ('A' for Active; 'I' for Inactive)
REMARK    1  A    between atoms: N_4  and  C_15
REMARK    2  A    between atoms: C_5  and  C_13
REMARK    3  A    between atoms: C_6  and  C_16
REMARK    4  A    between atoms: C_7  and  C_14
REMARK    5  A    between atoms: C_13  and  C_19
REMARK    6  A    between atoms: C_16  and  C_20
REMARK                            x       y       z     vdW  Elec       q    Type
REMARK                         _______ _______ _______ _____ _____    ______ ____
ROOT
ATOM      1  O   UNL     1       9.810   4.275   6.193  0.00  0.00    -0.275 OA
ATOM      3  N   UNL     1      10.676   5.629   4.508  0.00  0.00    -0.301 N 
ATOM      5  C   UNL     1      10.631   6.121   1.656  0.00  0.00    +0.004 C 
ATOM      6  C   UNL     1      10.385   7.270   2.667  0.00  0.00    +0.010 C 
ATOM      8  C   UNL     1      11.079   6.947   4.003  0.00  0.00    +0.111 C 
ATOM      9  C   UNL     1      10.243   4.753   2.246  0.00  0.00    +0.023 C 
ATOM     12  C   UNL     1      10.922   4.517   3.592  0.00  0.00    +0.108 C 
ATOM     14  C   UNL     1      10.122   5.385   5.769  0.00  0.00    +0.219 C 
ENDROOT
BRANCH  14   7
ATOM      7  C   UNL     1       9.893   6.564   6.657  0.00  0.00    +0.075 C 
ATOM     10  C   UNL     1       8.503   7.078   6.807  0.00  0.00    +0.013 C 
ATOM     11  C   UNL     1       9.166   6.351   7.940  0.00  0.00    +0.013 C 
ENDBRANCH  14   7
BRANCH   6  16
ATOM     16  C   UNL     1       8.903   7.587   2.900  0.00  0.00    +0.002 C 
ATOM     20  C   UNL     1       8.731   8.941   3.555  0.00  0.00    +0.004 C 
ENDBRANCH   6  16
BRANCH   5  13
ATOM     13  C   UNL     1       9.938   6.343   0.312  0.00  0.00    +0.099 C 
BRANCH  13  19
ATOM      2  O   UNL     1       9.560   4.600  -1.325  0.00  0.00    -0.276 OA
ATOM      4  N   UNL     1      11.730   5.305  -0.892  0.00  0.00    -0.312 N 
ATOM     19  C   UNL     1      10.353   5.319  -0.722  0.00  0.00    +0.214 C 
ATOM     21  H   UNL     1      12.315   5.946  -0.364  0.00  0.00    +0.149 HD
BRANCH   4  15
ATOM     15  C   UNL     1      12.384   4.422  -1.816  0.00  0.00    +0.073 C 
ATOM     17  C   UNL     1      13.794   3.984  -1.589  0.00  0.00    +0.024 C 
ATOM     18  C   UNL     1      12.669   3.003  -1.445  0.00  0.00    +0.024 C 
ENDBRANCH   4  15
ENDBRANCH  13  19
ENDBRANCH   5  13
TORSDOF 5
ENDMDL
MODEL 9
REMARK VINA RESULT:      -4.8     16.866     20.535
REMARK  Name = 11912219
REMARK  6 active torsions:
REMARK  status: ('A' for Active; 'I' for Inactive)
REMARK    1  A    between atoms: N_4  and  C_15
REMARK    2  A    between atoms: C_5  and  C_13
REMARK    3  A    between atoms: C_6  and  C_16
REMARK    4  A    between atoms: C_7  and  C_14
REMARK    5  A    between atoms: C_13  and  C_19
REMARK    6  A    between atoms: C_16  and  C_20
REMARK                            x       y       z     vdW  Elec       q    Type
REMARK                         _______ _______ _______ _____ _____    ______ ____
ROOT
ATOM      1  O   UNL     1      10.834   4.351  -2.451  0.00  0.00    -0.275 OA
ATOM      3  N   UNL     1      11.500   5.301  -0.432  0.00  0.00    -0.301 N 
ATOM      5  C   UNL     1      10.972   5.340   2.414  0.00  0.00    +0.004 C 
ATOM      6  C   UNL     1      12.406   5.107   1.872  0.00  0.00    +0.010 C 
ATOM      8  C   UNL     1      12.551   5.758   0.485  0.00  0.00    +0.111 C 
ATOM      9  C   UNL     1       9.903   4.893   1.400  0.00  0.00    +0.023 C 
ATOM     12  C   UNL     1      10.134   5.533   0.033  0.00  0.00    +0.108 C 
ATOM     14  C   UNL     1      11.721   4.709  -1.680  0.00  0.00    +0.219 C 
ENDROOT
BRANCH  14   7
ATOM      7  C   UNL     1      13.139   4.497  -2.097  0.00  0.00    +0.075 C 
ATOM     10  C   UNL     1      13.403   3.729  -3.345  0.00  0.00    +0.013 C 
ATOM     11  C   UNL     1      13.634   5.211  -3.307  0.00  0.00    +0.013 C 
ENDBRANCH  14   7
BRANCH   6  16
ATOM     16  C   UNL     1      12.817   3.631   1.814  0.00  0.00    +0.002 C 
ATOM     20  C   UNL     1      14.308   3.488   1.596  0.00  0.00    +0.004 C 
ENDBRANCH   6  16
BRANCH   5  13
ATOM     13  C   UNL     1      10.730   4.687   3.774  0.00  0.00    +0.099 C 
BRANCH  13  19
ATOM      2  O   UNL     1      10.798   6.912   4.726  0.00  0.00    -0.276 OA
ATOM      4  N   UNL     1      10.564   5.079   6.132  0.00  0.00    -0.312 N 
ATOM     19  C   UNL     1      10.704   5.700   4.898  0.00  0.00    +0.214 C 
ATOM     21  H   UNL     1      10.476   4.068   6.186  0.00  0.00    +0.149 HD
BRANCH   4  15
ATOM     15  C   UNL     1      10.512   5.815   7.363  0.00  0.00    +0.073 C 
ATOM     17  C   UNL     1       9.244   6.461   7.817  0.00  0.00    +0.024 C 
ATOM     18  C   UNL     1       9.786   5.269   8.549  0.00  0.00    +0.024 C 
ENDBRANCH   4  15
ENDBRANCH  13  19
ENDBRANCH   5  13
TORSDOF 5
ENDMDL
MODEL 10
REMARK VINA RESULT:      -4.8     26.740     29.453
REMARK  Name = 11912219
REMARK  6 active torsions:
REMARK  status: ('A' for Active; 'I' for Inactive)
REMARK    1  A    between atoms: N_4  and  C_15
REMARK    2  A    between atoms: C_5  and  C_13
REMARK    3  A    between atoms: C_6  and  C_16
REMARK    4  A    between atoms: C_7  and  C_14
REMARK    5  A    between atoms: C_13  and  C_19
REMARK    6  A    between atoms: C_16  and  C_20
REMARK                            x       y       z     vdW  Elec       q    Type
REMARK                         _______ _______ _______ _____ _____    ______ ____
ROOT
ATOM      1  O   UNL     1     -11.002 -10.579  19.727  0.00  0.00    -0.275 OA
ATOM      3  N   UNL     1      -9.369 -11.217  18.194  0.00  0.00    -0.301 N 
ATOM      5  C   UNL     1      -7.125 -10.253  16.640  0.00  0.00    +0.004 C 
ATOM      6  C   UNL     1      -6.992 -11.508  17.540  0.00  0.00    +0.010 C 
ATOM      8  C   UNL     1      -8.367 -12.176  17.713  0.00  0.00    +0.111 C 
ATOM      9  C   UNL     1      -8.219  -9.301  17.154  0.00  0.00    +0.023 C 
ATOM     12  C   UNL     1      -9.543 -10.035  17.353  0.00  0.00    +0.108 C 
ATOM     14  C   UNL     1     -10.149 -11.376  19.344  0.00  0.00    +0.219 C 
ENDROOT
BRANCH  14   7
ATOM      7  C   UNL     1      -9.921 -12.604  20.163  0.00  0.00    +0.075 C 
ATOM     10  C   UNL     1     -11.030 -13.095  21.027  0.00  0.00    +0.013 C 
ATOM     11  C   UNL     1     -10.648 -13.849  19.787  0.00  0.00    +0.013 C 
ENDBRANCH  14   7
BRANCH   6  16
ATOM     16  C   UNL     1      -6.360 -11.228  18.909  0.00  0.00    +0.002 C 
ATOM     20  C   UNL     1      -5.008 -11.898  19.033  0.00  0.00    +0.004 C 
ENDBRANCH   6  16
BRANCH   5  13
ATOM     13  C   UNL     1      -5.806  -9.505  16.452  0.00  0.00    +0.099 C 
BRANCH  13  19
ATOM      2  O   UNL     1      -5.091 -10.979  14.670  0.00  0.00    -0.276 OA
ATOM      4  N   UNL     1      -3.524 -10.189  16.191  0.00  0.00    -0.312 N 
ATOM     19  C   UNL     1      -4.800 -10.309  15.658  0.00  0.00    +0.214 C 
ATOM     21  H   UNL     1      -3.366  -9.599  17.004  0.00  0.00    +0.149 HD
BRANCH   4  15
ATOM     15  C   UNL     1      -2.386 -10.854  15.625  0.00  0.00    +0.073 C 
ATOM     17  C   UNL     1      -1.694 -10.298  14.423  0.00  0.00    +0.024 C 
ATOM     18  C   UNL     1      -1.016 -10.274  15.761  0.00  0.00    +0.024 C 
ENDBRANCH   4  15
ENDBRANCH  13  19
ENDBRANCH   5  13
TORSDOF 5
ENDMDL
