MODEL 1
REMARK VINA RESULT:      -7.1      0.000      0.000
REMARK  Name = 45361654
REMARK  13 active torsions:
REMARK  status: ('A' for Active; 'I' for Inactive)
REMARK    1  A    between atoms: O_1  and  C_11
REMARK    2  A    between atoms: O_4  and  C_32
REMARK    3  A    between atoms: O_4  and  C_33
REMARK    4  A    between atoms: N_5  and  C_15
REMARK    5  A    between atoms: N_6  and  C_24
REMARK    6  A    between atoms: N_7  and  C_25
REMARK    7  A    between atoms: C_8  and  C_18
REMARK    8  A    between atoms: C_10  and  C_20
REMARK    9  A    between atoms: C_14  and  C_19
REMARK   10  A    between atoms: C_19  and  C_21
REMARK   11  A    between atoms: C_19  and  C_22
REMARK   12  A    between atoms: C_24  and  C_26
REMARK   13  A    between atoms: C_25  and  C_27
REMARK                            x       y       z     vdW  Elec       q    Type
REMARK                         _______ _______ _______ _____ _____    ______ ____
ROOT
ATOM      8  C   UNL     1      -3.603 -10.291  11.078  0.00  0.00    -0.027 C 
ATOM      9  C   UNL     1      -4.876  -9.856  11.877  0.00  0.00    +0.028 C 
ATOM     10  C   UNL     1      -5.053 -10.736  13.167  0.00  0.00    +0.012 C 
ATOM     11  C   UNL     1      -6.121  -9.772  10.949  0.00  0.00    +0.122 C 
ATOM     12  C   UNL     1      -3.394  -9.335   9.880  0.00  0.00    +0.007 C 
ATOM     13  C   UNL     1      -2.364 -10.170  11.997  0.00  0.00    +0.009 C 
ATOM     14  C   UNL     1      -5.872  -8.898   9.698  0.00  0.00    +0.029 C 
ATOM     15  C   UNL     1      -3.773 -10.666  14.047  0.00  0.00    +0.078 C 
ATOM     16  C   UNL     1      -4.598  -9.280   8.948  0.00  0.00    +0.007 C 
ATOM     17  C   UNL     1      -2.490 -10.982  13.278  0.00  0.00    +0.023 C 
ATOM     18  C   UNL     1      -3.702 -11.743  10.545  0.00  0.00    +0.011 C 
ATOM     20  C   UNL     1      -6.273 -10.342  14.018  0.00  0.00    +0.010 C 
ENDROOT
BRANCH  15   5
ATOM      3  O   UNL     1      -4.045  -9.918  16.820  0.00  0.00    -0.253 OA
ATOM      5  N   UNL     1      -3.856 -11.556  15.186  0.00  0.00    -0.296 N 
ATOM      7  N   UNL     1      -4.042 -12.167  17.390  0.00  0.00    -0.300 N 
ATOM     23  C   UNL     1      -3.986 -11.103  16.494  0.00  0.00    +0.300 C 
ATOM     34  H   UNL     1      -3.734 -12.552  15.030  0.00  0.00    +0.151 HD
ATOM     37  H   UNL     1      -3.999 -13.114  17.028  0.00  0.00    +0.150 HD
BRANCH   7  25
ATOM     25  C   UNL     1      -4.178 -11.984  18.816  0.00  0.00    +0.102 C 
ATOM     27  C   UNL     1      -5.631 -11.849  19.222  0.00  0.00    +0.024 C 
ENDBRANCH   7  25
ENDBRANCH  15   5
BRANCH  11   1
ATOM      1  O   UNL     1      -7.205  -9.169  11.660  0.00  0.00    -0.391 OA
ATOM     35  H   UNL     1      -7.746  -8.674  11.022  0.00  0.00    +0.210 HD
ENDBRANCH  11   1
BRANCH  14  19
ATOM     19  C   UNL     1      -7.064  -8.932   8.734  0.00  0.00    +0.077 C 
ATOM     21  C   UNL     1      -6.679  -9.656   7.449  0.00  0.00    +0.017 C 
BRANCH  19  22
ATOM      2  O   UNL     1      -6.861  -6.519   8.687  0.00  0.00    -0.276 OA
ATOM      6  N   UNL     1      -8.823  -7.483   7.910  0.00  0.00    -0.311 N 
ATOM     22  C   UNL     1      -7.546  -7.513   8.451  0.00  0.00    +0.216 C 
ATOM     36  H   UNL     1      -9.303  -8.352   7.696  0.00  0.00    +0.149 HD
BRANCH   6  24
ATOM     24  C   UNL     1      -9.495  -6.253   7.560  0.00  0.00    +0.139 C 
BRANCH  24  26
ATOM     26  C   UNL     1     -10.393  -5.771   8.662  0.00  0.00    -0.030 A 
ATOM     28  C   UNL     1     -10.496  -4.406   8.933  0.00  0.00    +0.009 A 
ATOM     29  C   UNL     1     -11.127  -6.688   9.415  0.00  0.00    +0.009 A 
ATOM     30  C   UNL     1     -11.331  -3.958   9.957  0.00  0.00    +0.046 A 
ATOM     31  C   UNL     1     -11.961  -6.241  10.440  0.00  0.00    +0.046 A 
ATOM     32  C   UNL     1     -12.064  -4.877  10.711  0.00  0.00    +0.120 A 
BRANCH  32   4
ATOM      4  O   UNL     1     -12.879  -4.441  11.709  0.00  0.00    -0.495 OA
ATOM     33  C   UNL     1     -12.351  -4.459  13.034  0.00  0.00    +0.277 C 
ENDBRANCH  32   4
ENDBRANCH  24  26
ENDBRANCH   6  24
ENDBRANCH  19  22
ENDBRANCH  14  19
TORSDOF 8
ENDMDL
MODEL 2
REMARK VINA RESULT:      -7.0      3.936      9.002
REMARK  Name = 45361654
REMARK  13 active torsions:
REMARK  status: ('A' for Active; 'I' for Inactive)
REMARK    1  A    between atoms: O_1  and  C_11
REMARK    2  A    between atoms: O_4  and  C_32
REMARK    3  A    between atoms: O_4  and  C_33
REMARK    4  A    between atoms: N_5  and  C_15
REMARK    5  A    between atoms: N_6  and  C_24
REMARK    6  A    between atoms: N_7  and  C_25
REMARK    7  A    between atoms: C_8  and  C_18
REMARK    8  A    between atoms: C_10  and  C_20
REMARK    9  A    between atoms: C_14  and  C_19
REMARK   10  A    between atoms: C_19  and  C_21
REMARK   11  A    between atoms: C_19  and  C_22
REMARK   12  A    between atoms: C_24  and  C_26
REMARK   13  A    between atoms: C_25  and  C_27
REMARK                            x       y       z     vdW  Elec       q    Type
REMARK                         _______ _______ _______ _____ _____    ______ ____
ROOT
ATOM      8  C   UNL     1      -5.021 -12.585  10.023  0.00  0.00    -0.027 C 
ATOM      9  C   UNL     1      -4.550 -11.123  10.322  0.00  0.00    +0.028 C 
ATOM     10  C   UNL     1      -4.533 -10.262   9.008  0.00  0.00    +0.012 C 
ATOM     11  C   UNL     1      -3.230 -11.115  11.145  0.00  0.00    +0.122 C 
ATOM     12  C   UNL     1      -5.136 -13.373  11.349  0.00  0.00    +0.007 C 
ATOM     13  C   UNL     1      -6.427 -12.541   9.379  0.00  0.00    +0.009 C 
ATOM     14  C   UNL     1      -3.317 -11.988  12.418  0.00  0.00    +0.029 C 
ATOM     15  C   UNL     1      -5.932 -10.286   8.330  0.00  0.00    +0.078 C 
ATOM     16  C   UNL     1      -3.834 -13.398  12.139  0.00  0.00    +0.007 C 
ATOM     17  C   UNL     1      -6.478 -11.696   8.114  0.00  0.00    +0.023 C 
ATOM     18  C   UNL     1      -4.053 -13.341   9.078  0.00  0.00    +0.011 C 
ATOM     20  C   UNL     1      -4.106  -8.802   9.235  0.00  0.00    +0.010 C 
ENDROOT
BRANCH  15   5
ATOM      3  O   UNL     1      -8.213  -9.259   6.891  0.00  0.00    -0.253 OA
ATOM      5  N   UNL     1      -5.923  -9.597   7.056  0.00  0.00    -0.296 N 
ATOM      7  N   UNL     1      -6.781  -8.513   5.225  0.00  0.00    -0.300 N 
ATOM     23  C   UNL     1      -7.077  -9.136   6.434  0.00  0.00    +0.300 C 
ATOM     34  H   UNL     1      -5.041  -9.517   6.558  0.00  0.00    +0.151 HD
ATOM     37  H   UNL     1      -5.811  -8.446   4.934  0.00  0.00    +0.150 HD
BRANCH   7  25
ATOM     25  C   UNL     1      -7.795  -7.940   4.371  0.00  0.00    +0.102 C 
ATOM     27  C   UNL     1      -8.019  -8.782   3.132  0.00  0.00    +0.024 C 
ENDBRANCH   7  25
ENDBRANCH  15   5
BRANCH  11   1
ATOM      1  O   UNL     1      -2.950  -9.783  11.582  0.00  0.00    -0.391 OA
ATOM     35  H   UNL     1      -3.796  -9.332  11.737  0.00  0.00    +0.210 HD
ENDBRANCH  11   1
BRANCH  14  19
ATOM     19  C   UNL     1      -1.969 -12.071  13.144  0.00  0.00    +0.077 C 
ATOM     21  C   UNL     1      -1.674 -13.513  13.540  0.00  0.00    +0.017 C 
BRANCH  19  22
ATOM      2  O   UNL     1      -1.465 -10.030  14.348  0.00  0.00    -0.276 OA
ATOM      6  N   UNL     1      -2.610 -11.717  15.454  0.00  0.00    -0.311 N 
ATOM     22  C   UNL     1      -1.975 -11.149  14.360  0.00  0.00    +0.216 C 
ATOM     36  H   UNL     1      -3.054 -12.626  15.367  0.00  0.00    +0.149 HD
BRANCH   6  24
ATOM     24  C   UNL     1      -2.740 -11.036  16.722  0.00  0.00    +0.139 C 
BRANCH  24  26
ATOM     26  C   UNL     1      -4.171 -10.709  17.038  0.00  0.00    -0.030 A 
ATOM     28  C   UNL     1      -4.715 -11.075  18.269  0.00  0.00    +0.009 A 
ATOM     29  C   UNL     1      -4.955 -10.036  16.101  0.00  0.00    +0.009 A 
ATOM     30  C   UNL     1      -6.045 -10.770  18.563  0.00  0.00    +0.046 A 
ATOM     31  C   UNL     1      -6.285  -9.731  16.394  0.00  0.00    +0.046 A 
ATOM     32  C   UNL     1      -6.830 -10.098  17.625  0.00  0.00    +0.120 A 
BRANCH  32   4
ATOM      4  O   UNL     1      -8.125  -9.799  17.911  0.00  0.00    -0.495 OA
ATOM     33  C   UNL     1      -8.758  -8.809  17.101  0.00  0.00    +0.277 C 
ENDBRANCH  32   4
ENDBRANCH  24  26
ENDBRANCH   6  24
ENDBRANCH  19  22
ENDBRANCH  14  19
TORSDOF 8
ENDMDL
MODEL 3
REMARK VINA RESULT:      -7.0     19.296     22.590
REMARK  Name = 45361654
REMARK  13 active torsions:
REMARK  status: ('A' for Active; 'I' for Inactive)
REMARK    1  A    between atoms: O_1  and  C_11
REMARK    2  A    between atoms: O_4  and  C_32
REMARK    3  A    between atoms: O_4  and  C_33
REMARK    4  A    between atoms: N_5  and  C_15
REMARK    5  A    between atoms: N_6  and  C_24
REMARK    6  A    between atoms: N_7  and  C_25
REMARK    7  A    between atoms: C_8  and  C_18
REMARK    8  A    between atoms: C_10  and  C_20
REMARK    9  A    between atoms: C_14  and  C_19
REMARK   10  A    between atoms: C_19  and  C_21
REMARK   11  A    between atoms: C_19  and  C_22
REMARK   12  A    between atoms: C_24  and  C_26
REMARK   13  A    between atoms: C_25  and  C_27
REMARK                            x       y       z     vdW  Elec       q    Type
REMARK                         _______ _______ _______ _____ _____    ______ ____
ROOT
ATOM      8  C   UNL     1     -16.202   6.592  21.823  0.00  0.00    -0.027 C 
ATOM      9  C   UNL     1     -14.798   6.166  22.368  0.00  0.00    +0.028 C 
ATOM     10  C   UNL     1     -13.721   6.200  21.225  0.00  0.00    +0.012 C 
ATOM     11  C   UNL     1     -14.885   4.834  23.166  0.00  0.00    +0.122 C 
ATOM     12  C   UNL     1     -17.212   6.658  22.992  0.00  0.00    +0.007 C 
ATOM     13  C   UNL     1     -16.098   8.009  21.211  0.00  0.00    +0.009 C 
ATOM     14  C   UNL     1     -15.969   4.870  24.268  0.00  0.00    +0.029 C 
ATOM     15  C   UNL     1     -13.677   7.608  20.567  0.00  0.00    +0.078 C 
ATOM     16  C   UNL     1     -17.327   5.343  23.752  0.00  0.00    +0.007 C 
ATOM     17  C   UNL     1     -15.048   8.110  20.113  0.00  0.00    +0.023 C 
ATOM     18  C   UNL     1     -16.745   5.614  20.751  0.00  0.00    +0.011 C 
ATOM     20  C   UNL     1     -12.308   5.819  21.699  0.00  0.00    +0.010 C 
ENDROOT
BRANCH  15   5
ATOM      3  O   UNL     1     -11.638   9.577  20.026  0.00  0.00    -0.253 OA
ATOM      5  N   UNL     1     -12.777   7.644  19.433  0.00  0.00    -0.296 N 
ATOM      7  N   UNL     1     -11.095   8.428  18.084  0.00  0.00    -0.300 N 
ATOM     23  C   UNL     1     -11.821   8.636  19.254  0.00  0.00    +0.300 C 
ATOM     34  H   UNL     1     -12.903   6.955  18.696  0.00  0.00    +0.151 HD
ATOM     37  H   UNL     1     -11.308   7.615  17.515  0.00  0.00    +0.150 HD
BRANCH   7  25
ATOM     25  C   UNL     1     -10.035   9.310  17.653  0.00  0.00    +0.102 C 
ATOM     27  C   UNL     1     -10.375   9.985  16.341  0.00  0.00    +0.024 C 
ENDBRANCH   7  25
ENDBRANCH  15   5
BRANCH  11   1
ATOM      1  O   UNL     1     -13.640   4.592  23.826  0.00  0.00    -0.391 OA
ATOM     35  H   UNL     1     -13.808   4.557  24.783  0.00  0.00    +0.210 HD
ENDBRANCH  11   1
BRANCH  14  19
ATOM     19  C   UNL     1     -16.128   3.509  24.955  0.00  0.00    +0.077 C 
ATOM     21  C   UNL     1     -16.817   2.525  24.017  0.00  0.00    +0.017 C 
BRANCH  19  22
ATOM      2  O   UNL     1     -17.987   3.128  26.459  0.00  0.00    -0.276 OA
ATOM      6  N   UNL     1     -16.248   4.489  27.168  0.00  0.00    -0.311 N 
ATOM     22  C   UNL     1     -16.902   3.671  26.259  0.00  0.00    +0.216 C 
ATOM     36  H   UNL     1     -15.328   4.857  26.947  0.00  0.00    +0.149 HD
BRANCH   6  24
ATOM     24  C   UNL     1     -16.786   4.793  28.473  0.00  0.00    +0.139 C 
BRANCH  24  26
ATOM     26  C   UNL     1     -16.001   4.136  29.571  0.00  0.00    -0.030 A 
ATOM     28  C   UNL     1     -16.207   4.511  30.899  0.00  0.00    +0.009 A 
ATOM     29  C   UNL     1     -15.066   3.147  29.264  0.00  0.00    +0.009 A 
ATOM     30  C   UNL     1     -15.478   3.900  31.919  0.00  0.00    +0.046 A 
ATOM     31  C   UNL     1     -14.336   2.536  30.283  0.00  0.00    +0.046 A 
ATOM     32  C   UNL     1     -14.541   2.912  31.610  0.00  0.00    +0.120 A 
BRANCH  32   4
ATOM      4  O   UNL     1     -13.831   2.314  32.604  0.00  0.00    -0.495 OA
ATOM     33  C   UNL     1     -14.575   1.673  33.639  0.00  0.00    +0.277 C 
ENDBRANCH  32   4
ENDBRANCH  24  26
ENDBRANCH   6  24
ENDBRANCH  19  22
ENDBRANCH  14  19
TORSDOF 8
ENDMDL
MODEL 4
REMARK VINA RESULT:      -7.0     28.173     31.037
REMARK  Name = 45361654
REMARK  13 active torsions:
REMARK  status: ('A' for Active; 'I' for Inactive)
REMARK    1  A    between atoms: O_1  and  C_11
REMARK    2  A    between atoms: O_4  and  C_32
REMARK    3  A    between atoms: O_4  and  C_33
REMARK    4  A    between atoms: N_5  and  C_15
REMARK    5  A    between atoms: N_6  and  C_24
REMARK    6  A    between atoms: N_7  and  C_25
REMARK    7  A    between atoms: C_8  and  C_18
REMARK    8  A    between atoms: C_10  and  C_20
REMARK    9  A    between atoms: C_14  and  C_19
REMARK   10  A    between atoms: C_19  and  C_21
REMARK   11  A    between atoms: C_19  and  C_22
REMARK   12  A    between atoms: C_24  and  C_26
REMARK   13  A    between atoms: C_25  and  C_27
REMARK                            x       y       z     vdW  Elec       q    Type
REMARK                         _______ _______ _______ _____ _____    ______ ____
ROOT
ATOM      8  C   UNL     1      11.607   8.095  21.096  0.00  0.00    -0.027 C 
ATOM      9  C   UNL     1      12.857   8.910  21.567  0.00  0.00    +0.028 C 
ATOM     10  C   UNL     1      12.441  10.349  22.039  0.00  0.00    +0.012 C 
ATOM     11  C   UNL     1      13.996   8.856  20.509  0.00  0.00    +0.122 C 
ATOM     12  C   UNL     1      12.034   6.649  20.748  0.00  0.00    +0.007 C 
ATOM     13  C   UNL     1      10.588   8.017  22.258  0.00  0.00    +0.009 C 
ATOM     14  C   UNL     1      14.347   7.410  20.087  0.00  0.00    +0.029 C 
ATOM     15  C   UNL     1      11.362  10.260  23.155  0.00  0.00    +0.078 C 
ATOM     16  C   UNL     1      13.122   6.592  19.683  0.00  0.00    +0.007 C 
ATOM     17  C   UNL     1      10.168   9.385  22.776  0.00  0.00    +0.023 C 
ATOM     18  C   UNL     1      10.920   8.723  19.858  0.00  0.00    +0.011 C 
ATOM     20  C   UNL     1      13.621  11.197  22.544  0.00  0.00    +0.010 C 
ENDROOT
BRANCH  15   5
ATOM      3  O   UNL     1      11.664  11.558  25.713  0.00  0.00    -0.253 OA
ATOM      5  N   UNL     1      10.870  11.568  23.533  0.00  0.00    -0.296 N 
ATOM      7  N   UNL     1      10.490  13.381  24.887  0.00  0.00    -0.300 N 
ATOM     23  C   UNL     1      11.064  12.116  24.795  0.00  0.00    +0.300 C 
ATOM     34  H   UNL     1      10.291  12.076  22.870  0.00  0.00    +0.151 HD
ATOM     37  H   UNL     1      10.025  13.767  24.072  0.00  0.00    +0.150 HD
BRANCH   7  25
ATOM     25  C   UNL     1      10.543  14.179  26.089  0.00  0.00    +0.102 C 
ATOM     27  C   UNL     1      11.750  15.093  26.097  0.00  0.00    +0.024 C 
ENDBRANCH   7  25
ENDBRANCH  15   5
BRANCH  11   1
ATOM      1  O   UNL     1      15.187   9.421  21.060  0.00  0.00    -0.391 OA
ATOM     35  H   UNL     1      15.197   9.232  22.014  0.00  0.00    +0.210 HD
ENDBRANCH  11   1
BRANCH  14  19
ATOM     19  C   UNL     1      15.377   7.384  18.951  0.00  0.00    +0.077 C 
ATOM     21  C   UNL     1      14.723   6.907  17.659  0.00  0.00    +0.017 C 
BRANCH  19  22
ATOM      2  O   UNL     1      16.922   5.542  18.655  0.00  0.00    -0.276 OA
ATOM      6  N   UNL     1      17.149   6.890  20.529  0.00  0.00    -0.311 N 
ATOM     22  C   UNL     1      16.557   6.497  19.338  0.00  0.00    +0.216 C 
ATOM     36  H   UNL     1      16.821   7.724  21.007  0.00  0.00    +0.149 HD
BRANCH   6  24
ATOM     24  C   UNL     1      18.283   6.203  21.101  0.00  0.00    +0.139 C 
BRANCH  24  26
ATOM     26  C   UNL     1      19.526   7.045  21.068  0.00  0.00    -0.030 A 
ATOM     28  C   UNL     1      20.694   6.543  20.495  0.00  0.00    +0.009 A 
ATOM     29  C   UNL     1      19.511   8.331  21.609  0.00  0.00    +0.009 A 
ATOM     30  C   UNL     1      21.849   7.326  20.463  0.00  0.00    +0.046 A 
ATOM     31  C   UNL     1      20.665   9.113  21.579  0.00  0.00    +0.046 A 
ATOM     32  C   UNL     1      21.834   8.612  21.006  0.00  0.00    +0.120 A 
BRANCH  32   4
ATOM      4  O   UNL     1      22.959   9.376  20.975  0.00  0.00    -0.495 OA
ATOM     33  C   UNL     1      22.783  10.792  21.002  0.00  0.00    +0.277 C 
ENDBRANCH  32   4
ENDBRANCH  24  26
ENDBRANCH   6  24
ENDBRANCH  19  22
ENDBRANCH  14  19
TORSDOF 8
ENDMDL
MODEL 5
REMARK VINA RESULT:      -6.9      2.640      8.266
REMARK  Name = 45361654
REMARK  13 active torsions:
REMARK  status: ('A' for Active; 'I' for Inactive)
REMARK    1  A    between atoms: O_1  and  C_11
REMARK    2  A    between atoms: O_4  and  C_32
REMARK    3  A    between atoms: O_4  and  C_33
REMARK    4  A    between atoms: N_5  and  C_15
REMARK    5  A    between atoms: N_6  and  C_24
REMARK    6  A    between atoms: N_7  and  C_25
REMARK    7  A    between atoms: C_8  and  C_18
REMARK    8  A    between atoms: C_10  and  C_20
REMARK    9  A    between atoms: C_14  and  C_19
REMARK   10  A    between atoms: C_19  and  C_21
REMARK   11  A    between atoms: C_19  and  C_22
REMARK   12  A    between atoms: C_24  and  C_26
REMARK   13  A    between atoms: C_25  and  C_27
REMARK                            x       y       z     vdW  Elec       q    Type
REMARK                         _______ _______ _______ _____ _____    ______ ____
ROOT
ATOM      8  C   UNL     1      -3.345 -10.944  11.230  0.00  0.00    -0.027 C 
ATOM      9  C   UNL     1      -4.641 -10.364  11.888  0.00  0.00    +0.028 C 
ATOM     10  C   UNL     1      -5.260  -9.228  10.996  0.00  0.00    +0.012 C 
ATOM     11  C   UNL     1      -4.396  -9.986  13.377  0.00  0.00    +0.122 C 
ATOM     12  C   UNL     1      -2.826 -12.133  12.072  0.00  0.00    +0.007 C 
ATOM     13  C   UNL     1      -3.692 -11.482   9.821  0.00  0.00    +0.009 C 
ATOM     14  C   UNL     1      -3.779 -11.147  14.191  0.00  0.00    +0.029 C 
ATOM     15  C   UNL     1      -5.535  -9.759   9.561  0.00  0.00    +0.078 C 
ATOM     16  C   UNL     1      -2.548 -11.757  13.522  0.00  0.00    +0.007 C 
ATOM     17  C   UNL     1      -4.322 -10.430   8.919  0.00  0.00    +0.023 C 
ATOM     18  C   UNL     1      -2.217  -9.889  11.108  0.00  0.00    +0.011 C 
ATOM     20  C   UNL     1      -6.556  -8.632  11.571  0.00  0.00    +0.010 C 
ENDROOT
BRANCH  15   5
ATOM      3  O   UNL     1      -8.022  -9.687   8.100  0.00  0.00    -0.253 OA
ATOM      5  N   UNL     1      -5.999  -8.709   8.679  0.00  0.00    -0.296 N 
ATOM      7  N   UNL     1      -7.412  -7.622   7.234  0.00  0.00    -0.300 N 
ATOM     23  C   UNL     1      -7.218  -8.759   8.013  0.00  0.00    +0.300 C 
ATOM     34  H   UNL     1      -5.371  -7.936   8.478  0.00  0.00    +0.151 HD
ATOM     37  H   UNL     1      -6.698  -6.901   7.235  0.00  0.00    +0.150 HD
BRANCH   7  25
ATOM     25  C   UNL     1      -8.597  -7.413   6.436  0.00  0.00    +0.102 C 
ATOM     27  C   UNL     1      -9.638  -6.611   7.188  0.00  0.00    +0.024 C 
ENDBRANCH   7  25
ENDBRANCH  15   5
BRANCH  11   1
ATOM      1  O   UNL     1      -5.642  -9.668  14.000  0.00  0.00    -0.391 OA
ATOM     35  H   UNL     1      -6.221  -9.269  13.329  0.00  0.00    +0.210 HD
ENDBRANCH  11   1
BRANCH  14  19
ATOM     19  C   UNL     1      -3.425 -10.715  15.619  0.00  0.00    +0.077 C 
ATOM     21  C   UNL     1      -1.962 -11.027  15.914  0.00  0.00    +0.017 C 
BRANCH  19  22
ATOM      2  O   UNL     1      -4.605 -12.605  16.570  0.00  0.00    -0.276 OA
ATOM      6  N   UNL     1      -4.868 -10.522  17.556  0.00  0.00    -0.311 N 
ATOM     22  C   UNL     1      -4.353 -11.402  16.616  0.00  0.00    +0.216 C 
ATOM     36  H   UNL     1      -4.569  -9.552  17.559  0.00  0.00    +0.149 HD
BRANCH   6  24
ATOM     24  C   UNL     1      -5.772 -10.938  18.603  0.00  0.00    +0.139 C 
BRANCH  24  26
ATOM     26  C   UNL     1      -7.173 -10.457  18.358  0.00  0.00    -0.030 A 
ATOM     28  C   UNL     1      -7.417  -9.476  17.397  0.00  0.00    +0.009 A 
ATOM     29  C   UNL     1      -8.232 -10.993  19.091  0.00  0.00    +0.009 A 
ATOM     30  C   UNL     1      -8.719  -9.029  17.170  0.00  0.00    +0.046 A 
ATOM     31  C   UNL     1      -9.534 -10.547  18.865  0.00  0.00    +0.046 A 
ATOM     32  C   UNL     1      -9.778  -9.565  17.904  0.00  0.00    +0.120 A 
BRANCH  32   4
ATOM      4  O   UNL     1     -11.048  -9.131  17.682  0.00  0.00    -0.495 OA
ATOM     33  C   UNL     1     -11.198  -7.878  17.015  0.00  0.00    +0.277 C 
ENDBRANCH  32   4
ENDBRANCH  24  26
ENDBRANCH   6  24
ENDBRANCH  19  22
ENDBRANCH  14  19
TORSDOF 8
ENDMDL
MODEL 6
REMARK VINA RESULT:      -6.8     28.618     31.882
REMARK  Name = 45361654
REMARK  13 active torsions:
REMARK  status: ('A' for Active; 'I' for Inactive)
REMARK    1  A    between atoms: O_1  and  C_11
REMARK    2  A    between atoms: O_4  and  C_32
REMARK    3  A    between atoms: O_4  and  C_33
REMARK    4  A    between atoms: N_5  and  C_15
REMARK    5  A    between atoms: N_6  and  C_24
REMARK    6  A    between atoms: N_7  and  C_25
REMARK    7  A    between atoms: C_8  and  C_18
REMARK    8  A    between atoms: C_10  and  C_20
REMARK    9  A    between atoms: C_14  and  C_19
REMARK   10  A    between atoms: C_19  and  C_21
REMARK   11  A    between atoms: C_19  and  C_22
REMARK   12  A    between atoms: C_24  and  C_26
REMARK   13  A    between atoms: C_25  and  C_27
REMARK                            x       y       z     vdW  Elec       q    Type
REMARK                         _______ _______ _______ _____ _____    ______ ____
ROOT
ATOM      8  C   UNL     1      12.983   8.252  21.135  0.00  0.00    -0.027 C 
ATOM      9  C   UNL     1      13.873   9.445  21.621  0.00  0.00    +0.028 C 
ATOM     10  C   UNL     1      13.137  10.816  21.405  0.00  0.00    +0.012 C 
ATOM     11  C   UNL     1      15.308   9.355  21.027  0.00  0.00    +0.122 C 
ATOM     12  C   UNL     1      13.687   6.915  21.465  0.00  0.00    +0.007 C 
ATOM     13  C   UNL     1      11.640   8.279  21.902  0.00  0.00    +0.009 C 
ATOM     14  C   UNL     1      15.967   7.978  21.271  0.00  0.00    +0.029 C 
ATOM     15  C   UNL     1      11.755  10.804  22.117  0.00  0.00    +0.078 C 
ATOM     16  C   UNL     1      15.077   6.808  20.853  0.00  0.00    +0.007 C 
ATOM     17  C   UNL     1      10.893   9.597  21.751  0.00  0.00    +0.023 C 
ATOM     18  C   UNL     1      12.701   8.303  19.612  0.00  0.00    +0.011 C 
ATOM     20  C   UNL     1      13.945  12.032  21.889  0.00  0.00    +0.010 C 
ENDROOT
BRANCH  15   5
ATOM      3  O   UNL     1      10.589  12.602  24.049  0.00  0.00    -0.253 OA
ATOM      5  N   UNL     1      10.999  12.008  21.843  0.00  0.00    -0.296 N 
ATOM      7  N   UNL     1       9.793  13.906  22.302  0.00  0.00    -0.300 N 
ATOM     23  C   UNL     1      10.472  12.817  22.843  0.00  0.00    +0.300 C 
ATOM     34  H   UNL     1      10.778  12.229  20.877  0.00  0.00    +0.151 HD
ATOM     37  H   UNL     1       9.760  14.008  21.293  0.00  0.00    +0.150 HD
BRANCH   7  25
ATOM     25  C   UNL     1       9.148  14.909  23.116  0.00  0.00    +0.102 C 
ATOM     27  C   UNL     1       7.757  15.225  22.608  0.00  0.00    +0.024 C 
ENDBRANCH   7  25
ENDBRANCH  15   5
BRANCH  11   1
ATOM      1  O   UNL     1      16.146  10.326  21.657  0.00  0.00    -0.391 OA
ATOM     35  H   UNL     1      16.195  10.114  22.605  0.00  0.00    +0.210 HD
ENDBRANCH  11   1
BRANCH  14  19
ATOM     19  C   UNL     1      17.325   7.865  20.568  0.00  0.00    +0.077 C 
ATOM     21  C   UNL     1      17.430   6.530  19.839  0.00  0.00    +0.017 C 
BRANCH  19  22
ATOM      2  O   UNL     1      18.887   9.138  21.912  0.00  0.00    -0.276 OA
ATOM      6  N   UNL     1      18.917   6.824  22.070  0.00  0.00    -0.311 N 
ATOM     22  C   UNL     1      18.452   8.036  21.581  0.00  0.00    +0.216 C 
ATOM     36  H   UNL     1      18.468   5.958  21.786  0.00  0.00    +0.149 HD
BRANCH   6  24
ATOM     24  C   UNL     1      19.983   6.730  23.040  0.00  0.00    +0.139 C 
BRANCH  24  26
ATOM     26  C   UNL     1      21.101   5.851  22.561  0.00  0.00    -0.030 A 
ATOM     28  C   UNL     1      22.264   5.722  23.321  0.00  0.00    +0.009 A 
ATOM     29  C   UNL     1      20.978   5.160  21.355  0.00  0.00    +0.009 A 
ATOM     30  C   UNL     1      23.303   4.905  22.876  0.00  0.00    +0.046 A 
ATOM     31  C   UNL     1      22.016   4.344  20.908  0.00  0.00    +0.046 A 
ATOM     32  C   UNL     1      23.179   4.215  21.668  0.00  0.00    +0.120 A 
BRANCH  32   4
ATOM      4  O   UNL     1      24.191   3.417  21.234  0.00  0.00    -0.495 OA
ATOM     33  C   UNL     1      23.838   2.114  20.773  0.00  0.00    +0.277 C 
ENDBRANCH  32   4
ENDBRANCH  24  26
ENDBRANCH   6  24
ENDBRANCH  19  22
ENDBRANCH  14  19
TORSDOF 8
ENDMDL
MODEL 7
REMARK VINA RESULT:      -6.8      3.572      6.473
REMARK  Name = 45361654
REMARK  13 active torsions:
REMARK  status: ('A' for Active; 'I' for Inactive)
REMARK    1  A    between atoms: O_1  and  C_11
REMARK    2  A    between atoms: O_4  and  C_32
REMARK    3  A    between atoms: O_4  and  C_33
REMARK    4  A    between atoms: N_5  and  C_15
REMARK    5  A    between atoms: N_6  and  C_24
REMARK    6  A    between atoms: N_7  and  C_25
REMARK    7  A    between atoms: C_8  and  C_18
REMARK    8  A    between atoms: C_10  and  C_20
REMARK    9  A    between atoms: C_14  and  C_19
REMARK   10  A    between atoms: C_19  and  C_21
REMARK   11  A    between atoms: C_19  and  C_22
REMARK   12  A    between atoms: C_24  and  C_26
REMARK   13  A    between atoms: C_25  and  C_27
REMARK                            x       y       z     vdW  Elec       q    Type
REMARK                         _______ _______ _______ _____ _____    ______ ____
ROOT
ATOM      8  C   UNL     1      -4.694 -11.056  16.822  0.00  0.00    -0.027 C 
ATOM      9  C   UNL     1      -5.504 -10.534  15.589  0.00  0.00    +0.028 C 
ATOM     10  C   UNL     1      -7.045 -10.755  15.799  0.00  0.00    +0.012 C 
ATOM     11  C   UNL     1      -4.924 -11.090  14.257  0.00  0.00    +0.122 C 
ATOM     12  C   UNL     1      -3.195 -10.721  16.634  0.00  0.00    +0.007 C 
ATOM     13  C   UNL     1      -5.182 -10.324  18.094  0.00  0.00    +0.009 C 
ATOM     14  C   UNL     1      -3.403 -10.844  14.122  0.00  0.00    +0.029 C 
ATOM     15  C   UNL     1      -7.511 -10.079  17.119  0.00  0.00    +0.078 C 
ATOM     16  C   UNL     1      -2.614 -11.298  15.349  0.00  0.00    +0.007 C 
ATOM     17  C   UNL     1      -6.677 -10.481  18.335  0.00  0.00    +0.023 C 
ATOM     18  C   UNL     1      -4.840 -12.585  17.025  0.00  0.00    +0.011 C 
ATOM     20  C   UNL     1      -7.906 -10.237  14.634  0.00  0.00    +0.010 C 
ENDROOT
BRANCH  15   5
ATOM      3  O   UNL     1      -9.613  -8.158  17.584  0.00  0.00    -0.253 OA
ATOM      5  N   UNL     1      -8.903 -10.360  17.404  0.00  0.00    -0.296 N 
ATOM      7  N   UNL     1     -11.105  -9.912  17.869  0.00  0.00    -0.300 N 
ATOM     23  C   UNL     1      -9.850  -9.365  17.616  0.00  0.00    +0.300 C 
ATOM     34  H   UNL     1      -9.183 -11.328  17.532  0.00  0.00    +0.151 HD
ATOM     37  H   UNL     1     -11.208 -10.922  17.861  0.00  0.00    +0.150 HD
BRANCH   7  25
ATOM     25  C   UNL     1     -12.275  -9.104  18.123  0.00  0.00    +0.102 C 
ATOM     27  C   UNL     1     -13.020  -8.788  16.843  0.00  0.00    +0.024 C 
ENDBRANCH   7  25
ENDBRANCH  15   5
BRANCH  11   1
ATOM      1  O   UNL     1      -5.544 -10.428  13.153  0.00  0.00    -0.391 OA
ATOM     35  H   UNL     1      -6.078  -9.695  13.502  0.00  0.00    +0.210 HD
ENDBRANCH  11   1
BRANCH  14  19
ATOM     19  C   UNL     1      -2.828 -11.513  12.867  0.00  0.00    +0.077 C 
ATOM     21  C   UNL     1      -1.618 -12.364  13.234  0.00  0.00    +0.017 C 
BRANCH  19  22
ATOM      2  O   UNL     1      -1.361  -9.925  11.775  0.00  0.00    -0.276 OA
ATOM      6  N   UNL     1      -3.527 -10.163  10.980  0.00  0.00    -0.311 N 
ATOM     22  C   UNL     1      -2.470 -10.453  11.830  0.00  0.00    +0.216 C 
ATOM     36  H   UNL     1      -4.397 -10.681  11.057  0.00  0.00    +0.149 HD
BRANCH   6  24
ATOM     24  C   UNL     1      -3.430  -9.189   9.917  0.00  0.00    +0.139 C 
BRANCH  24  26
ATOM     26  C   UNL     1      -4.713  -9.067   9.149  0.00  0.00    -0.030 A 
ATOM     28  C   UNL     1      -5.704  -8.185   9.580  0.00  0.00    +0.009 A 
ATOM     29  C   UNL     1      -4.916  -9.836   8.002  0.00  0.00    +0.009 A 
ATOM     30  C   UNL     1      -6.897  -8.071   8.865  0.00  0.00    +0.046 A 
ATOM     31  C   UNL     1      -6.108  -9.723   7.288  0.00  0.00    +0.046 A 
ATOM     32  C   UNL     1      -7.099  -8.841   7.719  0.00  0.00    +0.120 A 
BRANCH  32   4
ATOM      4  O   UNL     1      -8.261  -8.730   7.021  0.00  0.00    -0.495 OA
ATOM     33  C   UNL     1      -8.360  -7.653   6.090  0.00  0.00    +0.277 C 
ENDBRANCH  32   4
ENDBRANCH  24  26
ENDBRANCH   6  24
ENDBRANCH  19  22
ENDBRANCH  14  19
TORSDOF 8
ENDMDL
MODEL 8
REMARK VINA RESULT:      -6.7     23.947     26.726
REMARK  Name = 45361654
REMARK  13 active torsions:
REMARK  status: ('A' for Active; 'I' for Inactive)
REMARK    1  A    between atoms: O_1  and  C_11
REMARK    2  A    between atoms: O_4  and  C_32
REMARK    3  A    between atoms: O_4  and  C_33
REMARK    4  A    between atoms: N_5  and  C_15
REMARK    5  A    between atoms: N_6  and  C_24
REMARK    6  A    between atoms: N_7  and  C_25
REMARK    7  A    between atoms: C_8  and  C_18
REMARK    8  A    between atoms: C_10  and  C_20
REMARK    9  A    between atoms: C_14  and  C_19
REMARK   10  A    between atoms: C_19  and  C_21
REMARK   11  A    between atoms: C_19  and  C_22
REMARK   12  A    between atoms: C_24  and  C_26
REMARK   13  A    between atoms: C_25  and  C_27
REMARK                            x       y       z     vdW  Elec       q    Type
REMARK                         _______ _______ _______ _____ _____    ______ ____
ROOT
ATOM      8  C   UNL     1       9.402   6.323   6.266  0.00  0.00    -0.027 C 
ATOM      9  C   UNL     1      10.445   7.366   5.745  0.00  0.00    +0.028 C 
ATOM     10  C   UNL     1      10.013   8.827   6.127  0.00  0.00    +0.012 C 
ATOM     11  C   UNL     1      10.769   7.136   4.241  0.00  0.00    +0.122 C 
ATOM     12  C   UNL     1       9.913   4.892   5.975  0.00  0.00    +0.007 C 
ATOM     13  C   UNL     1       9.264   6.469   7.800  0.00  0.00    +0.009 C 
ATOM     14  C   UNL     1      11.179   5.676   3.938  0.00  0.00    +0.029 C 
ATOM     15  C   UNL     1       9.805   8.944   7.663  0.00  0.00    +0.078 C 
ATOM     16  C   UNL     1      10.194   4.651   4.497  0.00  0.00    +0.007 C 
ATOM     17  C   UNL     1       8.872   7.875   8.232  0.00  0.00    +0.023 C 
ATOM     18  C   UNL     1       8.009   6.497   5.611  0.00  0.00    +0.011 C 
ATOM     20  C   UNL     1      11.011   9.904   5.669  0.00  0.00    +0.010 C 
ENDROOT
BRANCH  15   5
ATOM      3  O   UNL     1      11.016  10.828   9.481  0.00  0.00    -0.253 OA
ATOM      5  N   UNL     1       9.294  10.246   8.039  0.00  0.00    -0.296 N 
ATOM      7  N   UNL     1       9.240  12.275   9.110  0.00  0.00    -0.300 N 
ATOM     23  C   UNL     1       9.950  11.090   8.927  0.00  0.00    +0.300 C 
ATOM     34  H   UNL     1       8.378  10.521   7.698  0.00  0.00    +0.151 HD
ATOM     37  H   UNL     1       8.374  12.409   8.599  0.00  0.00    +0.150 HD
BRANCH   7  25
ATOM     25  C   UNL     1       9.694  13.333   9.981  0.00  0.00    +0.102 C 
ATOM     27  C   UNL     1       8.959  13.316  11.305  0.00  0.00    +0.024 C 
ENDBRANCH   7  25
ENDBRANCH  15   5
BRANCH  11   1
ATOM      1  O   UNL     1      11.874   7.958   3.860  0.00  0.00    -0.391 OA
ATOM     35  H   UNL     1      11.901   7.997   2.889  0.00  0.00    +0.210 HD
ENDBRANCH  11   1
BRANCH  14  19
ATOM     19  C   UNL     1      11.367   5.439   2.434  0.00  0.00    +0.077 C 
ATOM     21  C   UNL     1      10.567   4.219   1.992  0.00  0.00    +0.017 C 
BRANCH  19  22
ATOM      2  O   UNL     1      13.626   6.231   2.069  0.00  0.00    -0.276 OA
ATOM      6  N   UNL     1      13.204   3.958   1.881  0.00  0.00    -0.311 N 
ATOM     22  C   UNL     1      12.849   5.278   2.114  0.00  0.00    +0.216 C 
ATOM     36  H   UNL     1      12.513   3.222   1.989  0.00  0.00    +0.149 HD
BRANCH   6  24
ATOM     24  C   UNL     1      14.553   3.556   1.556  0.00  0.00    +0.139 C 
BRANCH  24  26
ATOM     26  C   UNL     1      14.929   3.937   0.154  0.00  0.00    -0.030 A 
ATOM     28  C   UNL     1      13.970   3.908  -0.859  0.00  0.00    +0.009 A 
ATOM     29  C   UNL     1      16.239   4.320  -0.137  0.00  0.00    +0.009 A 
ATOM     30  C   UNL     1      14.321   4.262  -2.163  0.00  0.00    +0.046 A 
ATOM     31  C   UNL     1      16.590   4.673  -1.440  0.00  0.00    +0.046 A 
ATOM     32  C   UNL     1      15.631   4.645  -2.452  0.00  0.00    +0.120 A 
BRANCH  32   4
ATOM      4  O   UNL     1      15.973   4.991  -3.723  0.00  0.00    -0.495 OA
ATOM     33  C   UNL     1      14.920   5.425  -4.583  0.00  0.00    +0.277 C 
ENDBRANCH  32   4
ENDBRANCH  24  26
ENDBRANCH   6  24
ENDBRANCH  19  22
ENDBRANCH  14  19
TORSDOF 8
ENDMDL
MODEL 9
REMARK VINA RESULT:      -6.6     17.823     19.655
REMARK  Name = 45361654
REMARK  13 active torsions:
REMARK  status: ('A' for Active; 'I' for Inactive)
REMARK    1  A    between atoms: O_1  and  C_11
REMARK    2  A    between atoms: O_4  and  C_32
REMARK    3  A    between atoms: O_4  and  C_33
REMARK    4  A    between atoms: N_5  and  C_15
REMARK    5  A    between atoms: N_6  and  C_24
REMARK    6  A    between atoms: N_7  and  C_25
REMARK    7  A    between atoms: C_8  and  C_18
REMARK    8  A    between atoms: C_10  and  C_20
REMARK    9  A    between atoms: C_14  and  C_19
REMARK   10  A    between atoms: C_19  and  C_21
REMARK   11  A    between atoms: C_19  and  C_22
REMARK   12  A    between atoms: C_24  and  C_26
REMARK   13  A    between atoms: C_25  and  C_27
REMARK                            x       y       z     vdW  Elec       q    Type
REMARK                         _______ _______ _______ _____ _____    ______ ____
ROOT
ATOM      8  C   UNL     1     -14.442   8.534  19.885  0.00  0.00    -0.027 C 
ATOM      9  C   UNL     1     -13.456   7.340  20.112  0.00  0.00    +0.028 C 
ATOM     10  C   UNL     1     -13.581   6.781  21.575  0.00  0.00    +0.012 C 
ATOM     11  C   UNL     1     -12.014   7.707  19.657  0.00  0.00    +0.122 C 
ATOM     12  C   UNL     1     -14.376   8.985  18.407  0.00  0.00    +0.007 C 
ATOM     13  C   UNL     1     -15.886   8.056  20.166  0.00  0.00    +0.009 C 
ATOM     14  C   UNL     1     -11.968   8.256  18.212  0.00  0.00    +0.029 C 
ATOM     15  C   UNL     1     -15.052   6.373  21.872  0.00  0.00    +0.078 C 
ATOM     16  C   UNL     1     -12.972   9.382  17.970  0.00  0.00    +0.007 C 
ATOM     17  C   UNL     1     -16.062   7.478  21.564  0.00  0.00    +0.023 C 
ATOM     18  C   UNL     1     -14.122   9.749  20.792  0.00  0.00    +0.011 C 
ATOM     20  C   UNL     1     -12.658   5.584  21.858  0.00  0.00    +0.010 C 
ENDROOT
BRANCH  15   5
ATOM      3  O   UNL     1     -15.786   3.750  22.822  0.00  0.00    -0.253 OA
ATOM      5  N   UNL     1     -15.227   5.962  23.249  0.00  0.00    -0.296 N 
ATOM      7  N   UNL     1     -15.684   4.549  24.999  0.00  0.00    -0.300 N 
ATOM     23  C   UNL     1     -15.585   4.669  23.615  0.00  0.00    +0.300 C 
ATOM     34  H   UNL     1     -15.162   6.669  23.975  0.00  0.00    +0.151 HD
ATOM     37  H   UNL     1     -15.486   5.361  25.575  0.00  0.00    +0.150 HD
BRANCH   7  25
ATOM     25  C   UNL     1     -16.040   3.312  25.653  0.00  0.00    +0.102 C 
ATOM     27  C   UNL     1     -16.377   3.534  27.113  0.00  0.00    +0.024 C 
ENDBRANCH   7  25
ENDBRANCH  15   5
BRANCH  11   1
ATOM      1  O   UNL     1     -11.196   6.535  19.675  0.00  0.00    -0.391 OA
ATOM     35  H   UNL     1     -11.779   5.759  19.620  0.00  0.00    +0.210 HD
ENDBRANCH  11   1
BRANCH  14  19
ATOM     19  C   UNL     1     -10.561   8.733  17.830  0.00  0.00    +0.077 C 
ATOM     21  C   UNL     1     -10.195   9.980  18.626  0.00  0.00    +0.017 C 
BRANCH  19  22
ATOM      2  O   UNL     1     -10.284  10.106  15.854  0.00  0.00    -0.276 OA
ATOM      6  N   UNL     1     -10.683   7.837  15.581  0.00  0.00    -0.311 N 
ATOM     22  C   UNL     1     -10.490   8.990  16.328  0.00  0.00    +0.216 C 
ATOM     36  H   UNL     1     -10.794   6.943  16.049  0.00  0.00    +0.149 HD
BRANCH   6  24
ATOM     24  C   UNL     1     -10.661   7.830  14.137  0.00  0.00    +0.139 C 
BRANCH  24  26
ATOM     26  C   UNL     1     -11.971   8.276  13.554  0.00  0.00    -0.030 A 
ATOM     28  C   UNL     1     -13.169   7.767  14.055  0.00  0.00    +0.009 A 
ATOM     29  C   UNL     1     -11.990   9.202  12.510  0.00  0.00    +0.009 A 
ATOM     30  C   UNL     1     -14.385   8.182  13.513  0.00  0.00    +0.046 A 
ATOM     31  C   UNL     1     -13.205   9.616  11.967  0.00  0.00    +0.046 A 
ATOM     32  C   UNL     1     -14.403   9.108  12.468  0.00  0.00    +0.120 A 
BRANCH  32   4
ATOM      4  O   UNL     1     -15.589   9.513  11.940  0.00  0.00    -0.495 OA
ATOM     33  C   UNL     1     -16.750   8.767  12.302  0.00  0.00    +0.277 C 
ENDBRANCH  32   4
ENDBRANCH  24  26
ENDBRANCH   6  24
ENDBRANCH  19  22
ENDBRANCH  14  19
TORSDOF 8
ENDMDL
MODEL 10
REMARK VINA RESULT:      -6.6      3.565      7.464
REMARK  Name = 45361654
REMARK  13 active torsions:
REMARK  status: ('A' for Active; 'I' for Inactive)
REMARK    1  A    between atoms: O_1  and  C_11
REMARK    2  A    between atoms: O_4  and  C_32
REMARK    3  A    between atoms: O_4  and  C_33
REMARK    4  A    between atoms: N_5  and  C_15
REMARK    5  A    between atoms: N_6  and  C_24
REMARK    6  A    between atoms: N_7  and  C_25
REMARK    7  A    between atoms: C_8  and  C_18
REMARK    8  A    between atoms: C_10  and  C_20
REMARK    9  A    between atoms: C_14  and  C_19
REMARK   10  A    between atoms: C_19  and  C_21
REMARK   11  A    between atoms: C_19  and  C_22
REMARK   12  A    between atoms: C_24  and  C_26
REMARK   13  A    between atoms: C_25  and  C_27
REMARK                            x       y       z     vdW  Elec       q    Type
REMARK                         _______ _______ _______ _____ _____    ______ ____
ROOT
ATOM      8  C   UNL     1      -5.360 -11.302  17.751  0.00  0.00    -0.027 C 
ATOM      9  C   UNL     1      -5.503 -12.439  16.686  0.00  0.00    +0.028 C 
ATOM     10  C   UNL     1      -6.208 -13.700  17.305  0.00  0.00    +0.012 C 
ATOM     11  C   UNL     1      -4.149 -12.714  15.970  0.00  0.00    +0.122 C 
ATOM     12  C   UNL     1      -4.768 -10.039  17.082  0.00  0.00    +0.007 C 
ATOM     13  C   UNL     1      -6.762 -10.935  18.290  0.00  0.00    +0.009 C 
ATOM     14  C   UNL     1      -3.511 -11.430  15.393  0.00  0.00    +0.029 C 
ATOM     15  C   UNL     1      -7.584 -13.304  17.910  0.00  0.00    +0.078 C 
ATOM     16  C   UNL     1      -3.423 -10.296  16.414  0.00  0.00    +0.007 C 
ATOM     17  C   UNL     1      -7.506 -12.126  18.879  0.00  0.00    +0.023 C 
ATOM     18  C   UNL     1      -4.449 -11.710  18.938  0.00  0.00    +0.011 C 
ATOM     20  C   UNL     1      -6.407 -14.848  16.302  0.00  0.00    +0.010 C 
ENDROOT
BRANCH  15   5
ATOM      3  O   UNL     1     -10.410 -13.856  18.106  0.00  0.00    -0.253 OA
ATOM      5  N   UNL     1      -8.211 -14.418  18.591  0.00  0.00    -0.296 N 
ATOM      7  N   UNL     1      -9.917 -15.750  19.353  0.00  0.00    -0.300 N 
ATOM     23  C   UNL     1      -9.588 -14.604  18.634  0.00  0.00    +0.300 C 
ATOM     34  H   UNL     1      -7.622 -15.048  19.128  0.00  0.00    +0.151 HD
ATOM     37  H   UNL     1      -9.169 -16.314  19.743  0.00  0.00    +0.150 HD
BRANCH   7  25
ATOM     25  C   UNL     1     -11.280 -16.183  19.554  0.00  0.00    +0.102 C 
ATOM     27  C   UNL     1     -11.586 -16.389  21.022  0.00  0.00    +0.024 C 
ENDBRANCH   7  25
ENDBRANCH  15   5
BRANCH  11   1
ATOM      1  O   UNL     1      -4.364 -13.595  14.866  0.00  0.00    -0.391 OA
ATOM     35  H   UNL     1      -5.300 -13.535  14.609  0.00  0.00    +0.210 HD
ENDBRANCH  11   1
BRANCH  14  19
ATOM     19  C   UNL     1      -2.119 -11.700  14.808  0.00  0.00    +0.077 C 
ATOM     21  C   UNL     1      -1.114 -10.695  15.358  0.00  0.00    +0.017 C 
BRANCH  19  22
ATOM      2  O   UNL     1      -2.234 -12.666  12.589  0.00  0.00    -0.276 OA
ATOM      6  N   UNL     1      -2.155 -10.357  12.791  0.00  0.00    -0.311 N 
ATOM     22  C   UNL     1      -2.177 -11.653  13.284  0.00  0.00    +0.216 C 
ATOM     36  H   UNL     1      -2.161  -9.570  13.433  0.00  0.00    +0.149 HD
BRANCH   6  24
ATOM     24  C   UNL     1      -2.198 -10.057  11.378  0.00  0.00    +0.139 C 
BRANCH  24  26
ATOM     26  C   UNL     1      -3.571  -9.643  10.934  0.00  0.00    -0.030 A 
ATOM     28  C   UNL     1      -3.774  -9.172   9.637  0.00  0.00    +0.009 A 
ATOM     29  C   UNL     1      -4.646  -9.731  11.820  0.00  0.00    +0.009 A 
ATOM     30  C   UNL     1      -5.050  -8.787   9.225  0.00  0.00    +0.046 A 
ATOM     31  C   UNL     1      -5.922  -9.345  11.409  0.00  0.00    +0.046 A 
ATOM     32  C   UNL     1      -6.124  -8.874  10.112  0.00  0.00    +0.120 A 
BRANCH  32   4
ATOM      4  O   UNL     1      -7.369  -8.500   9.710  0.00  0.00    -0.495 OA
ATOM     33  C   UNL     1      -7.457  -7.687   8.541  0.00  0.00    +0.277 C 
ENDBRANCH  32   4
ENDBRANCH  24  26
ENDBRANCH   6  24
ENDBRANCH  19  22
ENDBRANCH  14  19
TORSDOF 8
ENDMDL
