MODEL 1
REMARK VINA RESULT:      -6.8      0.000      0.000
REMARK  Name = 71693643
REMARK  9 active torsions:
REMARK  status: ('A' for Active; 'I' for Inactive)
REMARK    1  A    between atoms: O_2  and  C_10
REMARK    2  A    between atoms: N_5  and  C_13
REMARK    3  A    between atoms: N_6  and  C_17
REMARK    4  A    between atoms: C_7  and  C_10
REMARK    5  A    between atoms: C_8  and  C_9
REMARK    6  A    between atoms: C_14  and  C_20
REMARK    7  A    between atoms: C_14  and  C_21
REMARK    8  A    between atoms: C_14  and  C_22
REMARK    9  A    between atoms: C_14  and  C_23
REMARK                            x       y       z     vdW  Elec       q    Type
REMARK                         _______ _______ _______ _____ _____    ______ ____
ROOT
ATOM      9  C   UNL     1      15.925   7.549  19.804  0.00  0.00    -0.017 A 
ATOM     15  C   UNL     1      16.825   8.257  20.600  0.00  0.00    +0.008 A 
ATOM     16  C   UNL     1      16.301   6.329  19.242  0.00  0.00    +0.008 A 
ATOM     17  C   UNL     1      18.477   6.525  20.273  0.00  0.00    +0.033 A 
ATOM     18  C   UNL     1      18.102   7.745  20.835  0.00  0.00    +0.023 A 
ATOM     19  C   UNL     1      17.577   5.817  19.476  0.00  0.00    +0.023 A 
ENDROOT
BRANCH   9   8
ATOM      1  O   UNL     1      14.200   7.781  18.202  0.00  0.00    -0.361 OA
ATOM      3  O   UNL     1      10.706   8.483  18.218  0.00  0.00    -0.273 OA
ATOM      5  N   UNL     1      12.093   7.917  20.004  0.00  0.00    -0.295 N 
ATOM      7  C   UNL     1      13.446   7.525  20.468  0.00  0.00    +0.134 C 
ATOM      8  C   UNL     1      14.539   8.105  19.550  0.00  0.00    +0.171 C 
ATOM     11  C   UNL     1      13.045   8.476  17.796  0.00  0.00    +0.256 C 
ATOM     12  C   UNL     1      11.830   8.273  18.680  0.00  0.00    +0.242 C 
ATOM     13  C   UNL     1      10.965   7.688  20.904  0.00  0.00    +0.132 C 
BRANCH   7  10
ATOM     10  C   UNL     1      13.704   7.919  21.931  0.00  0.00    +0.181 C 
BRANCH  10   2
ATOM      2  O   UNL     1      13.764   9.328  22.004  0.00  0.00    -0.393 OA
ATOM     25  H   UNL     1      13.630   9.574  22.935  0.00  0.00    +0.209 HD
ENDBRANCH  10   2
ENDBRANCH   7  10
ENDBRANCH   9   8
BRANCH  17   6
ATOM      4  O   UNL     1      19.944   6.115  22.838  0.00  0.00    -0.275 OA
ATOM      6  N   UNL     1      19.753   6.012  20.507  0.00  0.00    -0.285 N 
ATOM     20  C   UNL     1      20.412   5.835  21.736  0.00  0.00    +0.223 C 
ATOM     24  H   UNL     1      20.257   5.737  19.668  0.00  0.00    +0.155 HD
BRANCH  20  14
ATOM     14  C   UNL     1      21.832   5.233  21.603  0.00  0.00    +0.039 C 
ATOM     21  C   UNL     1      22.611   5.950  20.489  0.00  0.00    +0.020 C 
ATOM     22  C   UNL     1      22.586   5.349  22.937  0.00  0.00    +0.020 C 
ATOM     23  C   UNL     1      21.723   3.741  21.235  0.00  0.00    +0.020 C 
ENDBRANCH  20  14
ENDBRANCH  17   6
TORSDOF 5
ENDMDL
MODEL 2
REMARK VINA RESULT:      -6.1      1.896      8.362
REMARK  Name = 71693643
REMARK  9 active torsions:
REMARK  status: ('A' for Active; 'I' for Inactive)
REMARK    1  A    between atoms: O_2  and  C_10
REMARK    2  A    between atoms: N_5  and  C_13
REMARK    3  A    between atoms: N_6  and  C_17
REMARK    4  A    between atoms: C_7  and  C_10
REMARK    5  A    between atoms: C_8  and  C_9
REMARK    6  A    between atoms: C_14  and  C_20
REMARK    7  A    between atoms: C_14  and  C_21
REMARK    8  A    between atoms: C_14  and  C_22
REMARK    9  A    between atoms: C_14  and  C_23
REMARK                            x       y       z     vdW  Elec       q    Type
REMARK                         _______ _______ _______ _____ _____    ______ ____
ROOT
ATOM      9  C   UNL     1      18.803   6.369  20.562  0.00  0.00    -0.017 A 
ATOM     15  C   UNL     1      18.217   7.425  21.257  0.00  0.00    +0.008 A 
ATOM     16  C   UNL     1      18.130   5.778  19.493  0.00  0.00    +0.008 A 
ATOM     17  C   UNL     1      16.284   7.303  19.813  0.00  0.00    +0.033 A 
ATOM     18  C   UNL     1      16.956   7.893  20.883  0.00  0.00    +0.023 A 
ATOM     19  C   UNL     1      16.871   6.244  19.118  0.00  0.00    +0.023 A 
ENDROOT
BRANCH   9   8
ATOM      1  O   UNL     1      20.317   4.557  20.408  0.00  0.00    -0.361 OA
ATOM      3  O   UNL     1      23.815   4.040  20.849  0.00  0.00    -0.273 OA
ATOM      5  N   UNL     1      22.644   6.048  20.680  0.00  0.00    -0.295 N 
ATOM      7  C   UNL     1      21.343   6.728  20.466  0.00  0.00    +0.134 C 
ATOM      8  C   UNL     1      20.172   5.862  20.969  0.00  0.00    +0.171 C 
ATOM     11  C   UNL     1      21.445   3.906  20.943  0.00  0.00    +0.256 C 
ATOM     12  C   UNL     1      22.751   4.660  20.798  0.00  0.00    +0.242 C 
ATOM     13  C   UNL     1      23.864   6.832  20.518  0.00  0.00    +0.132 C 
BRANCH   7  10
ATOM     10  C   UNL     1      21.297   8.123  21.108  0.00  0.00    +0.181 C 
BRANCH  10   2
ATOM      2  O   UNL     1      21.369   7.966  22.510  0.00  0.00    -0.393 OA
ATOM     25  H   UNL     1      22.306   8.032  22.759  0.00  0.00    +0.209 HD
ENDBRANCH  10   2
ENDBRANCH   7  10
ENDBRANCH   9   8
BRANCH  17   6
ATOM      4  O   UNL     1      13.640   6.997  21.160  0.00  0.00    -0.275 OA
ATOM      6  N   UNL     1      15.024   7.770  19.438  0.00  0.00    -0.285 N 
ATOM     20  C   UNL     1      13.797   7.603  20.102  0.00  0.00    +0.223 C 
ATOM     24  H   UNL     1      15.012   8.296  18.568  0.00  0.00    +0.155 HD
BRANCH  20  14
ATOM     14  C   UNL     1      12.600   8.269  19.380  0.00  0.00    +0.039 C 
ATOM     21  C   UNL     1      11.321   8.114  20.219  0.00  0.00    +0.020 C 
ATOM     22  C   UNL     1      12.892   9.756  19.125  0.00  0.00    +0.020 C 
ATOM     23  C   UNL     1      12.374   7.578  18.022  0.00  0.00    +0.020 C 
ENDBRANCH  20  14
ENDBRANCH  17   6
TORSDOF 5
ENDMDL
MODEL 3
REMARK VINA RESULT:      -5.9     16.291     19.594
REMARK  Name = 71693643
REMARK  9 active torsions:
REMARK  status: ('A' for Active; 'I' for Inactive)
REMARK    1  A    between atoms: O_2  and  C_10
REMARK    2  A    between atoms: N_5  and  C_13
REMARK    3  A    between atoms: N_6  and  C_17
REMARK    4  A    between atoms: C_7  and  C_10
REMARK    5  A    between atoms: C_8  and  C_9
REMARK    6  A    between atoms: C_14  and  C_20
REMARK    7  A    between atoms: C_14  and  C_21
REMARK    8  A    between atoms: C_14  and  C_22
REMARK    9  A    between atoms: C_14  and  C_23
REMARK                            x       y       z     vdW  Elec       q    Type
REMARK                         _______ _______ _______ _____ _____    ______ ____
ROOT
ATOM      9  C   UNL     1      12.093   4.905   1.626  0.00  0.00    -0.017 A 
ATOM     15  C   UNL     1      11.423   3.983   2.431  0.00  0.00    +0.008 A 
ATOM     16  C   UNL     1      12.084   6.259   1.962  0.00  0.00    +0.008 A 
ATOM     17  C   UNL     1      10.738   5.768   3.906  0.00  0.00    +0.033 A 
ATOM     18  C   UNL     1      10.745   4.415   3.571  0.00  0.00    +0.023 A 
ATOM     19  C   UNL     1      11.407   6.691   3.101  0.00  0.00    +0.023 A 
ENDROOT
BRANCH   9   8
ATOM      1  O   UNL     1      12.411   5.274  -0.689  0.00  0.00    -0.361 OA
ATOM      3  O   UNL     1      14.858   4.454  -3.146  0.00  0.00    -0.273 OA
ATOM      5  N   UNL     1      15.005   4.295  -0.825  0.00  0.00    -0.295 N 
ATOM      7  C   UNL     1      14.364   4.526   0.493  0.00  0.00    +0.134 C 
ATOM      8  C   UNL     1      12.829   4.436   0.388  0.00  0.00    +0.171 C 
ATOM     11  C   UNL     1      12.842   4.754  -1.924  0.00  0.00    +0.256 C 
ATOM     12  C   UNL     1      14.335   4.509  -2.031  0.00  0.00    +0.242 C 
ATOM     13  C   UNL     1      16.447   4.071  -0.857  0.00  0.00    +0.132 C 
BRANCH   7  10
ATOM     10  C   UNL     1      14.888   3.573   1.577  0.00  0.00    +0.181 C 
BRANCH  10   2
ATOM      2  O   UNL     1      15.334   4.351   2.669  0.00  0.00    -0.393 OA
ATOM     25  H   UNL     1      16.277   4.540   2.521  0.00  0.00    +0.209 HD
ENDBRANCH  10   2
ENDBRANCH   7  10
ENDBRANCH   9   8
BRANCH  17   6
ATOM      4  O   UNL     1      11.777   6.458   6.616  0.00  0.00    -0.275 OA
ATOM      6  N   UNL     1      10.060   6.201   5.047  0.00  0.00    -0.285 N 
ATOM     20  C   UNL     1      10.588   6.516   6.310  0.00  0.00    +0.223 C 
ATOM     24  H   UNL     1       9.054   6.293   4.929  0.00  0.00    +0.155 HD
BRANCH  20  14
ATOM     14  C   UNL     1       9.522   6.965   7.339  0.00  0.00    +0.039 C 
ATOM     21  C   UNL     1       8.158   7.131   6.652  0.00  0.00    +0.020 C 
ATOM     22  C   UNL     1       9.421   5.941   8.481  0.00  0.00    +0.020 C 
ATOM     23  C   UNL     1       9.931   8.323   7.940  0.00  0.00    +0.020 C 
ENDBRANCH  20  14
ENDBRANCH  17   6
TORSDOF 5
ENDMDL
MODEL 4
REMARK VINA RESULT:      -5.8     16.814     20.116
REMARK  Name = 71693643
REMARK  9 active torsions:
REMARK  status: ('A' for Active; 'I' for Inactive)
REMARK    1  A    between atoms: O_2  and  C_10
REMARK    2  A    between atoms: N_5  and  C_13
REMARK    3  A    between atoms: N_6  and  C_17
REMARK    4  A    between atoms: C_7  and  C_10
REMARK    5  A    between atoms: C_8  and  C_9
REMARK    6  A    between atoms: C_14  and  C_20
REMARK    7  A    between atoms: C_14  and  C_21
REMARK    8  A    between atoms: C_14  and  C_22
REMARK    9  A    between atoms: C_14  and  C_23
REMARK                            x       y       z     vdW  Elec       q    Type
REMARK                         _______ _______ _______ _____ _____    ______ ____
ROOT
ATOM      9  C   UNL     1      10.311   5.762   2.913  0.00  0.00    -0.017 A 
ATOM     15  C   UNL     1      10.000   6.562   1.813  0.00  0.00    +0.008 A 
ATOM     16  C   UNL     1      10.664   4.426   2.726  0.00  0.00    +0.008 A 
ATOM     17  C   UNL     1      10.396   4.689   0.340  0.00  0.00    +0.033 A 
ATOM     18  C   UNL     1      10.042   6.025   0.526  0.00  0.00    +0.023 A 
ATOM     19  C   UNL     1      10.706   3.888   1.440  0.00  0.00    +0.023 A 
ENDROOT
BRANCH   9   8
ATOM      1  O   UNL     1       9.365   5.539   5.071  0.00  0.00    -0.361 OA
ATOM      3  O   UNL     1      10.114   6.654   8.371  0.00  0.00    -0.273 OA
ATOM      5  N   UNL     1      11.463   6.700   6.471  0.00  0.00    -0.295 N 
ATOM      7  C   UNL     1      11.624   6.356   5.037  0.00  0.00    +0.134 C 
ATOM      8  C   UNL     1      10.265   6.346   4.310  0.00  0.00    +0.171 C 
ATOM     11  C   UNL     1       9.061   6.153   6.301  0.00  0.00    +0.256 C 
ATOM     12  C   UNL     1      10.262   6.504   7.157  0.00  0.00    +0.242 C 
ATOM     13  C   UNL     1      12.661   7.023   7.239  0.00  0.00    +0.132 C 
BRANCH   7  10
ATOM     10  C   UNL     1      12.615   7.284   4.317  0.00  0.00    +0.181 C 
BRANCH  10   2
ATOM      2  O   UNL     1      13.660   6.491   3.794  0.00  0.00    -0.393 OA
ATOM     25  H   UNL     1      13.323   6.068   2.986  0.00  0.00    +0.209 HD
ENDBRANCH  10   2
ENDBRANCH   7  10
ENDBRANCH   9   8
BRANCH  17   6
ATOM      4  O   UNL     1      12.671   3.483  -1.166  0.00  0.00    -0.275 OA
ATOM      6  N   UNL     1      10.439   4.151  -0.947  0.00  0.00    -0.285 N 
ATOM     20  C   UNL     1      11.535   3.591  -1.623  0.00  0.00    +0.223 C 
ATOM     24  H   UNL     1       9.552   4.177  -1.444  0.00  0.00    +0.155 HD
BRANCH  20  14
ATOM     14  C   UNL     1      11.200   3.093  -3.051  0.00  0.00    +0.039 C 
ATOM     21  C   UNL     1      10.351   1.814  -2.982  0.00  0.00    +0.020 C 
ATOM     22  C   UNL     1      10.454   4.184  -3.834  0.00  0.00    +0.020 C 
ATOM     23  C   UNL     1      12.507   2.767  -3.798  0.00  0.00    +0.020 C 
ENDBRANCH  20  14
ENDBRANCH  17   6
TORSDOF 5
ENDMDL
MODEL 5
REMARK VINA RESULT:      -5.7     22.755     26.727
REMARK  Name = 71693643
REMARK  9 active torsions:
REMARK  status: ('A' for Active; 'I' for Inactive)
REMARK    1  A    between atoms: O_2  and  C_10
REMARK    2  A    between atoms: N_5  and  C_13
REMARK    3  A    between atoms: N_6  and  C_17
REMARK    4  A    between atoms: C_7  and  C_10
REMARK    5  A    between atoms: C_8  and  C_9
REMARK    6  A    between atoms: C_14  and  C_20
REMARK    7  A    between atoms: C_14  and  C_21
REMARK    8  A    between atoms: C_14  and  C_22
REMARK    9  A    between atoms: C_14  and  C_23
REMARK                            x       y       z     vdW  Elec       q    Type
REMARK                         _______ _______ _______ _____ _____    ______ ____
ROOT
ATOM      9  C   UNL     1      -2.814   8.937   4.572  0.00  0.00    -0.017 A 
ATOM     15  C   UNL     1      -3.879   9.511   3.879  0.00  0.00    +0.008 A 
ATOM     16  C   UNL     1      -2.983   7.715   5.224  0.00  0.00    +0.008 A 
ATOM     17  C   UNL     1      -5.283   7.642   4.488  0.00  0.00    +0.033 A 
ATOM     18  C   UNL     1      -5.115   8.863   3.837  0.00  0.00    +0.023 A 
ATOM     19  C   UNL     1      -4.217   7.067   5.182  0.00  0.00    +0.023 A 
ENDROOT
BRANCH   9   8
ATOM      1  O   UNL     1      -1.167  10.042   3.281  0.00  0.00    -0.361 OA
ATOM      3  O   UNL     1       1.532  12.291   3.874  0.00  0.00    -0.273 OA
ATOM      5  N   UNL     1      -0.195  11.669   5.310  0.00  0.00    -0.295 N 
ATOM      7  C   UNL     1      -1.447  10.896   5.508  0.00  0.00    +0.134 C 
ATOM      8  C   UNL     1      -1.473   9.640   4.617  0.00  0.00    +0.171 C 
ATOM     11  C   UNL     1       0.170  10.472   3.182  0.00  0.00    +0.256 C 
ATOM     12  C   UNL     1       0.560  11.581   4.139  0.00  0.00    +0.242 C 
ATOM     13  C   UNL     1       0.117  12.727   6.266  0.00  0.00    +0.132 C 
BRANCH   7  10
ATOM     10  C   UNL     1      -1.678  10.520   6.980  0.00  0.00    +0.181 C 
BRANCH  10   2
ATOM      2  O   UNL     1      -0.707   9.562   7.347  0.00  0.00    -0.393 OA
ATOM     25  H   UNL     1      -0.723   9.493   8.317  0.00  0.00    +0.209 HD
ENDBRANCH  10   2
ENDBRANCH   7  10
ENDBRANCH   9   8
BRANCH  17   6
ATOM      4  O   UNL     1      -7.845   8.292   5.870  0.00  0.00    -0.275 OA
ATOM      6  N   UNL     1      -6.517   6.993   4.446  0.00  0.00    -0.285 N 
ATOM     20  C   UNL     1      -7.705   7.332   5.116  0.00  0.00    +0.223 C 
ATOM     24  H   UNL     1      -6.541   6.171   3.849  0.00  0.00    +0.155 HD
BRANCH  20  14
ATOM     14  C   UNL     1      -8.884   6.371   4.823  0.00  0.00    +0.039 C 
ATOM     21  C   UNL     1      -8.501   4.931   5.200  0.00  0.00    +0.020 C 
ATOM     22  C   UNL     1     -10.134   6.810   5.602  0.00  0.00    +0.020 C 
ATOM     23  C   UNL     1      -9.212   6.407   3.318  0.00  0.00    +0.020 C 
ENDBRANCH  20  14
ENDBRANCH  17   6
TORSDOF 5
ENDMDL
MODEL 6
REMARK VINA RESULT:      -5.7     17.234     20.431
REMARK  Name = 71693643
REMARK  9 active torsions:
REMARK  status: ('A' for Active; 'I' for Inactive)
REMARK    1  A    between atoms: O_2  and  C_10
REMARK    2  A    between atoms: N_5  and  C_13
REMARK    3  A    between atoms: N_6  and  C_17
REMARK    4  A    between atoms: C_7  and  C_10
REMARK    5  A    between atoms: C_8  and  C_9
REMARK    6  A    between atoms: C_14  and  C_20
REMARK    7  A    between atoms: C_14  and  C_21
REMARK    8  A    between atoms: C_14  and  C_22
REMARK    9  A    between atoms: C_14  and  C_23
REMARK                            x       y       z     vdW  Elec       q    Type
REMARK                         _______ _______ _______ _____ _____    ______ ____
ROOT
ATOM      9  C   UNL     1      10.745   4.844   1.001  0.00  0.00    -0.017 A 
ATOM     15  C   UNL     1      10.494   6.116   1.514  0.00  0.00    +0.008 A 
ATOM     16  C   UNL     1      10.978   3.776   1.867  0.00  0.00    +0.008 A 
ATOM     17  C   UNL     1      10.707   5.252   3.760  0.00  0.00    +0.033 A 
ATOM     18  C   UNL     1      10.475   6.321   2.895  0.00  0.00    +0.023 A 
ATOM     19  C   UNL     1      10.960   3.979   3.246  0.00  0.00    +0.023 A 
ENDROOT
BRANCH   9   8
ATOM      1  O   UNL     1       9.552   5.169  -1.017  0.00  0.00    -0.361 OA
ATOM      3  O   UNL     1      10.291   5.213  -4.502  0.00  0.00    -0.273 OA
ATOM      5  N   UNL     1      11.762   5.261  -2.695  0.00  0.00    -0.295 N 
ATOM      7  C   UNL     1      11.941   5.304  -1.223  0.00  0.00    +0.134 C 
ATOM      8  C   UNL     1      10.765   4.623  -0.498  0.00  0.00    +0.171 C 
ATOM     11  C   UNL     1       9.363   4.783  -2.357  0.00  0.00    +0.256 C 
ATOM     12  C   UNL     1      10.506   5.128  -3.291  0.00  0.00    +0.242 C 
ATOM     13  C   UNL     1      12.902   5.610  -3.537  0.00  0.00    +0.132 C 
BRANCH   7  10
ATOM     10  C   UNL     1      13.278   4.694  -0.775  0.00  0.00    +0.181 C 
BRANCH  10   2
ATOM      2  O   UNL     1      13.196   3.292  -0.929  0.00  0.00    -0.393 OA
ATOM     25  H   UNL     1      13.912   2.902  -0.399  0.00  0.00    +0.209 HD
ENDBRANCH  10   2
ENDBRANCH   7  10
ENDBRANCH   9   8
BRANCH  17   6
ATOM      4  O   UNL     1       8.402   5.592   5.622  0.00  0.00    -0.275 OA
ATOM      6  N   UNL     1      10.688   5.456   5.140  0.00  0.00    -0.285 N 
ATOM     20  C   UNL     1       9.577   5.612   5.985  0.00  0.00    +0.223 C 
ATOM     24  H   UNL     1      11.608   5.493   5.573  0.00  0.00    +0.155 HD
BRANCH  20  14
ATOM     14  C   UNL     1       9.947   5.820   7.474  0.00  0.00    +0.039 C 
ATOM     21  C   UNL     1      11.424   6.225   7.602  0.00  0.00    +0.020 C 
ATOM     22  C   UNL     1       9.046   6.895   8.101  0.00  0.00    +0.020 C 
ATOM     23  C   UNL     1       9.738   4.501   8.242  0.00  0.00    +0.020 C 
ENDBRANCH  20  14
ENDBRANCH  17   6
TORSDOF 5
ENDMDL
MODEL 7
REMARK VINA RESULT:      -5.7     27.725     29.960
REMARK  Name = 71693643
REMARK  9 active torsions:
REMARK  status: ('A' for Active; 'I' for Inactive)
REMARK    1  A    between atoms: O_2  and  C_10
REMARK    2  A    between atoms: N_5  and  C_13
REMARK    3  A    between atoms: N_6  and  C_17
REMARK    4  A    between atoms: C_7  and  C_10
REMARK    5  A    between atoms: C_8  and  C_9
REMARK    6  A    between atoms: C_14  and  C_20
REMARK    7  A    between atoms: C_14  and  C_21
REMARK    8  A    between atoms: C_14  and  C_22
REMARK    9  A    between atoms: C_14  and  C_23
REMARK                            x       y       z     vdW  Elec       q    Type
REMARK                         _______ _______ _______ _____ _____    ______ ____
ROOT
ATOM      9  C   UNL     1      -7.498 -10.048  16.438  0.00  0.00    -0.017 A 
ATOM     15  C   UNL     1      -6.197  -9.588  16.639  0.00  0.00    +0.008 A 
ATOM     16  C   UNL     1      -7.820 -10.744  15.273  0.00  0.00    +0.008 A 
ATOM     17  C   UNL     1      -5.539 -10.520  14.510  0.00  0.00    +0.033 A 
ATOM     18  C   UNL     1      -5.217  -9.824  15.674  0.00  0.00    +0.023 A 
ATOM     19  C   UNL     1      -6.841 -10.980  14.309  0.00  0.00    +0.023 A 
ENDROOT
BRANCH   9   8
ATOM      1  O   UNL     1      -9.737  -9.371  16.794  0.00  0.00    -0.361 OA
ATOM      3  O   UNL     1     -12.162  -9.649  19.390  0.00  0.00    -0.273 OA
ATOM      5  N   UNL     1     -10.134 -10.774  19.156  0.00  0.00    -0.295 N 
ATOM      7  C   UNL     1      -8.925 -11.026  18.334  0.00  0.00    +0.134 C 
ATOM      8  C   UNL     1      -8.561  -9.792  17.487  0.00  0.00    +0.171 C 
ATOM     11  C   UNL     1     -10.694  -8.865  17.695  0.00  0.00    +0.256 C 
ATOM     12  C   UNL     1     -11.084  -9.810  18.814  0.00  0.00    +0.242 C 
ATOM     13  C   UNL     1     -10.456 -11.727  20.215  0.00  0.00    +0.132 C 
BRANCH   7  10
ATOM     10  C   UNL     1      -7.723 -11.475  19.178  0.00  0.00    +0.181 C 
BRANCH  10   2
ATOM      2  O   UNL     1      -7.290 -10.374  19.950  0.00  0.00    -0.393 OA
ATOM     25  H   UNL     1      -7.881  -9.629  19.745  0.00  0.00    +0.209 HD
ENDBRANCH  10   2
ENDBRANCH   7  10
ENDBRANCH   9   8
BRANCH  17   6
ATOM      4  O   UNL     1      -5.163  -9.304  11.812  0.00  0.00    -0.275 OA
ATOM      6  N   UNL     1      -4.559 -10.757  13.545  0.00  0.00    -0.285 N 
ATOM     20  C   UNL     1      -4.417 -10.161  12.280  0.00  0.00    +0.223 C 
ATOM     24  H   UNL     1      -3.868 -11.454  13.809  0.00  0.00    +0.155 HD
BRANCH  20  14
ATOM     14  C   UNL     1      -3.197 -10.680  11.479  0.00  0.00    +0.039 C 
ATOM     21  C   UNL     1      -3.633 -11.788  10.508  0.00  0.00    +0.020 C 
ATOM     22  C   UNL     1      -2.539  -9.525  10.706  0.00  0.00    +0.020 C 
ATOM     23  C   UNL     1      -2.158 -11.267  12.452  0.00  0.00    +0.020 C 
ENDBRANCH  20  14
ENDBRANCH  17   6
TORSDOF 5
ENDMDL
MODEL 8
REMARK VINA RESULT:      -5.7     27.607     30.687
REMARK  Name = 71693643
REMARK  9 active torsions:
REMARK  status: ('A' for Active; 'I' for Inactive)
REMARK    1  A    between atoms: O_2  and  C_10
REMARK    2  A    between atoms: N_5  and  C_13
REMARK    3  A    between atoms: N_6  and  C_17
REMARK    4  A    between atoms: C_7  and  C_10
REMARK    5  A    between atoms: C_8  and  C_9
REMARK    6  A    between atoms: C_14  and  C_20
REMARK    7  A    between atoms: C_14  and  C_21
REMARK    8  A    between atoms: C_14  and  C_22
REMARK    9  A    between atoms: C_14  and  C_23
REMARK                            x       y       z     vdW  Elec       q    Type
REMARK                         _______ _______ _______ _____ _____    ______ ____
ROOT
ATOM      9  C   UNL     1     -12.522   7.288  20.250  0.00  0.00    -0.017 A 
ATOM     15  C   UNL     1     -12.012   6.355  21.153  0.00  0.00    +0.008 A 
ATOM     16  C   UNL     1     -13.900   7.393  20.059  0.00  0.00    +0.008 A 
ATOM     17  C   UNL     1     -14.257   5.633  21.675  0.00  0.00    +0.033 A 
ATOM     18  C   UNL     1     -12.880   5.527  21.865  0.00  0.00    +0.023 A 
ATOM     19  C   UNL     1     -14.768   6.566  20.771  0.00  0.00    +0.023 A 
ENDROOT
BRANCH   9   8
ATOM      1  O   UNL     1     -11.570   7.722  18.128  0.00  0.00    -0.361 OA
ATOM      3  O   UNL     1      -9.968  10.457  16.500  0.00  0.00    -0.273 OA
ATOM      5  N   UNL     1     -11.175  10.446  18.494  0.00  0.00    -0.295 N 
ATOM      7  C   UNL     1     -11.988   9.673  19.465  0.00  0.00    +0.134 C 
ATOM      8  C   UNL     1     -11.579   8.188  19.477  0.00  0.00    +0.171 C 
ATOM     11  C   UNL     1     -10.533   8.330  17.395  0.00  0.00    +0.256 C 
ATOM     12  C   UNL     1     -10.546   9.846  17.401  0.00  0.00    +0.242 C 
ATOM     13  C   UNL     1     -11.239  11.903  18.551  0.00  0.00    +0.132 C 
BRANCH   7  10
ATOM     10  C   UNL     1     -11.928  10.262  20.883  0.00  0.00    +0.181 C 
BRANCH  10   2
ATOM      2  O   UNL     1     -13.231  10.668  21.247  0.00  0.00    -0.393 OA
ATOM     25  H   UNL     1     -13.222  10.838  22.205  0.00  0.00    +0.209 HD
ENDBRANCH  10   2
ENDBRANCH   7  10
ENDBRANCH   9   8
BRANCH  17   6
ATOM      4  O   UNL     1     -16.180   6.288  23.859  0.00  0.00    -0.275 OA
ATOM      6  N   UNL     1     -15.126   4.805  22.387  0.00  0.00    -0.285 N 
ATOM     20  C   UNL     1     -16.019   5.154  23.414  0.00  0.00    +0.223 C 
ATOM     24  H   UNL     1     -15.093   3.827  22.113  0.00  0.00    +0.155 HD
BRANCH  20  14
ATOM     14  C   UNL     1     -16.828   3.957  23.972  0.00  0.00    +0.039 C 
ATOM     21  C   UNL     1     -15.929   3.072  24.849  0.00  0.00    +0.020 C 
ATOM     22  C   UNL     1     -18.032   4.461  24.783  0.00  0.00    +0.020 C 
ATOM     23  C   UNL     1     -17.353   3.105  22.802  0.00  0.00    +0.020 C 
ENDBRANCH  20  14
ENDBRANCH  17   6
TORSDOF 5
ENDMDL
MODEL 9
REMARK VINA RESULT:      -5.7      2.069      8.530
REMARK  Name = 71693643
REMARK  9 active torsions:
REMARK  status: ('A' for Active; 'I' for Inactive)
REMARK    1  A    between atoms: O_2  and  C_10
REMARK    2  A    between atoms: N_5  and  C_13
REMARK    3  A    between atoms: N_6  and  C_17
REMARK    4  A    between atoms: C_7  and  C_10
REMARK    5  A    between atoms: C_8  and  C_9
REMARK    6  A    between atoms: C_14  and  C_20
REMARK    7  A    between atoms: C_14  and  C_21
REMARK    8  A    between atoms: C_14  and  C_22
REMARK    9  A    between atoms: C_14  and  C_23
REMARK                            x       y       z     vdW  Elec       q    Type
REMARK                         _______ _______ _______ _____ _____    ______ ____
ROOT
ATOM      9  C   UNL     1      19.332   7.294  21.824  0.00  0.00    -0.017 A 
ATOM     15  C   UNL     1      18.813   8.582  21.952  0.00  0.00    +0.008 A 
ATOM     16  C   UNL     1      18.676   6.352  21.031  0.00  0.00    +0.008 A 
ATOM     17  C   UNL     1      16.982   7.988  20.492  0.00  0.00    +0.033 A 
ATOM     18  C   UNL     1      17.637   8.929  21.285  0.00  0.00    +0.023 A 
ATOM     19  C   UNL     1      17.501   6.699  20.365  0.00  0.00    +0.023 A 
ENDROOT
BRANCH   9   8
ATOM      1  O   UNL     1      20.252   6.616  23.896  0.00  0.00    -0.361 OA
ATOM      3  O   UNL     1      23.240   5.039  25.029  0.00  0.00    -0.273 OA
ATOM      5  N   UNL     1      22.419   5.227  22.855  0.00  0.00    -0.295 N 
ATOM      7  C   UNL     1      21.329   5.688  21.960  0.00  0.00    +0.134 C 
ATOM      8  C   UNL     1      20.609   6.917  22.547  0.00  0.00    +0.171 C 
ATOM     11  C   UNL     1      21.399   6.506  24.705  0.00  0.00    +0.256 C 
ATOM     12  C   UNL     1      22.429   5.503  24.225  0.00  0.00    +0.242 C 
ATOM     13  C   UNL     1      23.374   4.255  22.331  0.00  0.00    +0.132 C 
BRANCH   7  10
ATOM     10  C   UNL     1      21.824   5.981  20.535  0.00  0.00    +0.181 C 
BRANCH  10   2
ATOM      2  O   UNL     1      21.423   4.913  19.702  0.00  0.00    -0.393 OA
ATOM     25  H   UNL     1      22.027   4.901  18.940  0.00  0.00    +0.209 HD
ENDBRANCH  10   2
ENDBRANCH   7  10
ENDBRANCH   9   8
BRANCH  17   6
ATOM      4  O   UNL     1      14.274   6.741  20.593  0.00  0.00    -0.275 OA
ATOM      6  N   UNL     1      15.806   8.335  19.826  0.00  0.00    -0.285 N 
ATOM     20  C   UNL     1      14.545   7.719  19.900  0.00  0.00    +0.223 C 
ATOM     24  H   UNL     1      15.893   9.140  19.211  0.00  0.00    +0.155 HD
BRANCH  20  14
ATOM     14  C   UNL     1      13.469   8.388  19.010  0.00  0.00    +0.039 C 
ATOM     21  C   UNL     1      14.137   9.242  17.921  0.00  0.00    +0.020 C 
ATOM     22  C   UNL     1      12.570   7.319  18.369  0.00  0.00    +0.020 C 
ATOM     23  C   UNL     1      12.589   9.309  19.876  0.00  0.00    +0.020 C 
ENDBRANCH  20  14
ENDBRANCH  17   6
TORSDOF 5
ENDMDL
MODEL 10
REMARK VINA RESULT:      -5.6     16.821     20.112
REMARK  Name = 71693643
REMARK  9 active torsions:
REMARK  status: ('A' for Active; 'I' for Inactive)
REMARK    1  A    between atoms: O_2  and  C_10
REMARK    2  A    between atoms: N_5  and  C_13
REMARK    3  A    between atoms: N_6  and  C_17
REMARK    4  A    between atoms: C_7  and  C_10
REMARK    5  A    between atoms: C_8  and  C_9
REMARK    6  A    between atoms: C_14  and  C_20
REMARK    7  A    between atoms: C_14  and  C_21
REMARK    8  A    between atoms: C_14  and  C_22
REMARK    9  A    between atoms: C_14  and  C_23
REMARK                            x       y       z     vdW  Elec       q    Type
REMARK                         _______ _______ _______ _____ _____    ______ ____
ROOT
ATOM      9  C   UNL     1      10.933   5.640   3.023  0.00  0.00    -0.017 A 
ATOM     15  C   UNL     1      10.177   6.299   2.054  0.00  0.00    +0.008 A 
ATOM     16  C   UNL     1      11.534   4.417   2.726  0.00  0.00    +0.008 A 
ATOM     17  C   UNL     1      10.623   4.513   0.491  0.00  0.00    +0.033 A 
ATOM     18  C   UNL     1      10.021   5.735   0.787  0.00  0.00    +0.023 A 
ATOM     19  C   UNL     1      11.380   3.853   1.460  0.00  0.00    +0.023 A 
ENDROOT
BRANCH   9   8
ATOM      1  O   UNL     1      11.681   7.545   4.211  0.00  0.00    -0.361 OA
ATOM      3  O   UNL     1      11.184   8.960   7.444  0.00  0.00    -0.273 OA
ATOM      5  N   UNL     1       9.988   7.257   6.393  0.00  0.00    -0.295 N 
ATOM      7  C   UNL     1       9.785   6.431   5.177  0.00  0.00    +0.134 C 
ATOM      8  C   UNL     1      11.102   6.253   4.398  0.00  0.00    +0.171 C 
ATOM     11  C   UNL     1      12.111   8.082   5.439  0.00  0.00    +0.256 C 
ATOM     12  C   UNL     1      11.044   8.164   6.513  0.00  0.00    +0.242 C 
ATOM     13  C   UNL     1       8.918   7.296   7.385  0.00  0.00    +0.132 C 
BRANCH   7  10
ATOM     10  C   UNL     1       9.155   5.066   5.493  0.00  0.00    +0.181 C 
BRANCH  10   2
ATOM      2  O   UNL     1      10.136   4.261   6.113  0.00  0.00    -0.393 OA
ATOM     25  H   UNL     1      10.038   3.362   5.756  0.00  0.00    +0.209 HD
ENDBRANCH  10   2
ENDBRANCH   7  10
ENDBRANCH   9   8
BRANCH  17   6
ATOM      4  O   UNL     1      12.304   4.793  -1.958  0.00  0.00    -0.275 OA
ATOM      6  N   UNL     1      10.469   3.949  -0.776  0.00  0.00    -0.285 N 
ATOM     20  C   UNL     1      11.285   4.106  -1.909  0.00  0.00    +0.223 C 
ATOM     24  H   UNL     1       9.653   3.349  -0.873  0.00  0.00    +0.155 HD
BRANCH  20  14
ATOM     14  C   UNL     1      10.795   3.318  -3.148  0.00  0.00    +0.039 C 
ATOM     21  C   UNL     1       9.428   3.849  -3.608  0.00  0.00    +0.020 C 
ATOM     22  C   UNL     1      11.819   3.429  -4.288  0.00  0.00    +0.020 C 
ATOM     23  C   UNL     1      10.638   1.831  -2.779  0.00  0.00    +0.020 C 
ENDBRANCH  20  14
ENDBRANCH  17   6
TORSDOF 5
ENDMDL
