REMARK  Name = 75536606
REMARK  7 active torsions:
REMARK  status: ('A' for Active; 'I' for Inactive)
REMARK    1  A    between atoms: O_3  and  C_10
REMARK    2  A    between atoms: N_5  and  C_9
REMARK    3  A    between atoms: N_5  and  C_14
REMARK    4  A    between atoms: N_6  and  C_13
REMARK    5  A    between atoms: C_11  and  C_13
REMARK    6  A    between atoms: C_14  and  C_15
REMARK    7  A    between atoms: C_16  and  C_18
REMARK                            x       y       z     vdW  Elec       q    Type
REMARK                         _______ _______ _______ _____ _____    ______ ____
ROOT
ATOM      2  O   UNL     1       0.350  -0.967   0.210  0.00  0.00    -0.371 OA
ATOM      9  C   UNL     1      -1.685   0.138  -0.317  0.00  0.00    +0.111 C 
ATOM     10  C   UNL     1      -0.758   1.115   0.382  0.00  0.00    +0.164 C 
ATOM     11  C   UNL     1       0.593   0.449   0.158  0.00  0.00    +0.165 C 
ATOM     12  C   UNL     1      -1.063  -1.194   0.068  0.00  0.00    +0.181 C 
ENDROOT
BRANCH  10   3
ATOM      3  O   UNL     1      -0.806   2.412  -0.182  0.00  0.00    -0.388 OA
ATOM     24  H   UNL     1      -0.599   2.341  -1.129  0.00  0.00    +0.210 HD
ENDBRANCH  10   3
BRANCH   9   5
ATOM      5  N   UNL     1      -3.074   0.254   0.097  0.00  0.00    -0.304 NA
ATOM     23  H   UNL     1      -3.333   1.241   0.115  0.00  0.00    +0.123 HD
BRANCH   5  14
ATOM     14  C   UNL     1      -3.957  -0.450  -0.825  0.00  0.00    +0.136 C 
BRANCH  14  15
ATOM      7  N   UNL     1      -6.167  -1.454  -0.140  0.00  0.00    -0.347 N 
ATOM      8  N   UNL     1      -7.486   0.302   0.190  0.00  0.00    -0.244 NA
ATOM     15  C   UNL     1      -5.399  -0.354  -0.403  0.00  0.00    +0.049 A 
ATOM     17  C   UNL     1      -6.235   0.717  -0.193  0.00  0.00    +0.134 A 
ATOM     19  C   UNL     1      -7.412  -1.010   0.212  0.00  0.00    +0.196 A 
ATOM     26  H   UNL     1      -5.873  -2.420  -0.195  0.00  0.00    +0.167 HD
ENDBRANCH  14  15
ENDBRANCH   5  14
ENDBRANCH   9   5
BRANCH  11  13
ATOM     13  C   UNL     1       1.630   0.830   1.200  0.00  0.00    +0.138 C 
BRANCH  13   6
ATOM      4  O   UNL     1       3.792   1.821  -0.408  0.00  0.00    -0.270 OA
ATOM      6  N   UNL     1       2.883   0.176   0.952  0.00  0.00    -0.308 N 
ATOM     16  C   UNL     1       3.879   0.733   0.155  0.00  0.00    +0.251 C 
ATOM     25  H   UNL     1       3.018  -0.736   1.375  0.00  0.00    +0.149 HD
BRANCH  16  18
ATOM      1  S   UNL     1       6.381   0.532  -0.990  0.00  0.00    -0.092 S 
ATOM     18  C   UNL     1       5.108  -0.082  -0.024  0.00  0.00    +0.074 A 
ATOM     20  C   UNL     1       5.403  -1.324   0.492  0.00  0.00    +0.021 A 
ATOM     21  C   UNL     1       6.692  -1.778   0.089  0.00  0.00    +0.008 A 
ATOM     22  C   UNL     1       7.333  -0.865  -0.720  0.00  0.00    +0.046 A 
ENDBRANCH  16  18
ENDBRANCH  13   6
ENDBRANCH  11  13
TORSDOF 7
