REMARK  Name = 40777258
REMARK  7 active torsions:
REMARK  status: ('A' for Active; 'I' for Inactive)
REMARK    1  A    between atoms: S_2  and  N_7
REMARK    2  A    between atoms: S_2  and  C_22
REMARK    3  A    between atoms: N_7  and  C_17
REMARK    4  A    between atoms: C_11  and  C_18
REMARK    5  A    between atoms: C_12  and  C_17
REMARK    6  A    between atoms: C_20  and  C_23
REMARK    7  A    between atoms: C_21  and  C_24
REMARK                            x       y       z     vdW  Elec       q    Type
REMARK                         _______ _______ _______ _____ _____    ______ ____
ROOT
ATOM      6  N   UNL     1       1.961   2.609   1.655  0.00  0.00    -0.297 NA
ATOM     10  C   UNL     1       1.201   3.155  -0.776  0.00  0.00    +0.002 C 
ATOM     11  C   UNL     1      -0.003   2.662   0.073  0.00  0.00    +0.055 C 
ATOM     12  C   UNL     1       2.863   1.943   0.679  0.00  0.00    +0.072 C 
ATOM     13  C   UNL     1       2.311   2.083  -0.756  0.00  0.00    +0.024 C 
ATOM     14  C   UNL     1       1.765   4.404  -0.066  0.00  0.00    +0.019 C 
ATOM     15  C   UNL     1       0.561   2.168   1.436  0.00  0.00    +0.094 C 
ATOM     16  C   UNL     1       2.030   4.070   1.413  0.00  0.00    +0.085 C 
ENDROOT
BRANCH  11  18
ATOM      8  N   UNL     1      -0.681   1.256  -1.810  0.00  0.00    -0.237 NA
ATOM      9  N   UNL     1      -2.644  -0.140  -1.729  0.00  0.00    -0.232 NA
ATOM     18  C   UNL     1      -0.961   1.658  -0.553  0.00  0.00    +0.050 A 
ATOM     19  C   UNL     1      -2.048   1.212   0.171  0.00  0.00    +0.052 A 
ATOM     20  C   UNL     1      -2.863   0.305  -0.474  0.00  0.00    +0.076 A 
ATOM     21  C   UNL     1      -1.552   0.369  -2.330  0.00  0.00    +0.127 A 
ATOM     24  C   UNL     1      -1.277  -0.097  -3.720  0.00  0.00    +0.088 C 
BRANCH  20  23
ATOM      1 BR   UNL     1      -2.375  -2.384   1.188  0.00  0.00    -0.050 Br
ATOM     23  C   UNL     1      -4.034  -0.237   0.173  0.00  0.00    +0.014 A 
ATOM     26  C   UNL     1      -3.985  -1.405   0.935  0.00  0.00    +0.027 A 
ATOM     27  C   UNL     1      -5.241   0.444   0.018  0.00  0.00    +0.011 A 
ATOM     30  C   UNL     1      -5.142  -1.891   1.542  0.00  0.00    +0.016 A 
ATOM     31  C   UNL     1      -6.399  -0.042   0.626  0.00  0.00    +0.001 A 
ATOM     32  C   UNL     1      -6.350  -1.209   1.388  0.00  0.00    +0.001 A 
ENDBRANCH  20  23
ENDBRANCH  11  18
BRANCH  12  17
ATOM     17  C   UNL     1       3.141   0.483   1.044  0.00  0.00    +0.124 C 
BRANCH  17   7
ATOM      7  N   UNL     1       4.134  -0.069   0.108  0.00  0.00    -0.188 NA
ATOM     33  H   UNL     1       4.001   0.234  -0.865  0.00  0.00    +0.148 HD
BRANCH   7   2
ATOM      2  S   UNL     1       4.653  -1.684   0.265  0.00  0.00    +0.065 S 
ATOM      4  O   UNL     1       5.130  -1.904   1.617  0.00  0.00    -0.153 OA
ATOM      5  O   UNL     1       5.491  -2.025  -0.869  0.00  0.00    -0.153 OA
BRANCH   2  22
ATOM      3  S   UNL     1       2.484  -2.538  -1.513  0.00  0.00    -0.077 S 
ATOM     22  C   UNL     1       3.136  -2.570   0.070  0.00  0.00    +0.142 A 
ATOM     25  C   UNL     1       2.350  -3.296   0.939  0.00  0.00    +0.036 A 
ATOM     28  C   UNL     1       1.198  -3.833   0.295  0.00  0.00    +0.010 A 
ATOM     29  C   UNL     1       1.147  -3.497  -1.040  0.00  0.00    +0.047 A 
ENDBRANCH   2  22
ENDBRANCH   7   2
ENDBRANCH  17   7
ENDBRANCH  12  17
TORSDOF 6
