REMARK  Name = 24066823
REMARK  7 active torsions:
REMARK  status: ('A' for Active; 'I' for Inactive)
REMARK    1  A    between atoms: O_3  and  C_12
REMARK    2  A    between atoms: C_10  and  C_18
REMARK    3  A    between atoms: C_13  and  C_19
REMARK    4  A    between atoms: C_15  and  C_22
REMARK    5  A    between atoms: C_19  and  C_23
REMARK    6  A    between atoms: C_19  and  C_24
REMARK    7  A    between atoms: C_30  and  C_31
REMARK                            x       y       z     vdW  Elec       q    Type
REMARK                         _______ _______ _______ _____ _____    ______ ____
ROOT
ATOM      1  S   UNL     1       2.855  -0.071  -2.123  0.00  0.00    -0.057 S 
ATOM      5  O   UNL     1       5.428   0.178   1.748  0.00  0.00    -0.270 OA
ATOM      6  N   UNL     1       2.777  -0.078   0.461  0.00  0.00    -0.229 NA
ATOM      8  N   UNL     1       4.950   0.136  -0.560  0.00  0.00    -0.261 N 
ATOM     10  C   UNL     1      -1.041  -0.986  -1.173  0.00  0.00    -0.022 C 
ATOM     11  C   UNL     1      -1.061  -0.206   0.200  0.00  0.00    +0.033 C 
ATOM     12  C   UNL     1      -2.288  -0.612   1.065  0.00  0.00    +0.123 C 
ATOM     13  C   UNL     1      -3.622  -0.508   0.294  0.00  0.00    +0.029 C 
ATOM     14  C   UNL     1      -2.400  -0.813  -1.890  0.00  0.00    +0.008 C 
ATOM     15  C   UNL     1       0.319  -0.326   0.969  0.00  0.00    +0.042 C 
ATOM     16  C   UNL     1      -3.585  -1.252  -1.041  0.00  0.00    +0.007 C 
ATOM     17  C   UNL     1       0.058  -0.386  -2.105  0.00  0.00    +0.051 C 
ATOM     18  C   UNL     1      -0.763  -2.500  -0.979  0.00  0.00    +0.012 C 
ATOM     20  C   UNL     1       1.475  -0.190   0.007  0.00  0.00    +0.057 A 
ATOM     21  C   UNL     1       1.339  -0.229  -1.365  0.00  0.00    +0.015 A 
ATOM     22  C   UNL     1       0.467   0.689   2.112  0.00  0.00    +0.014 C 
ATOM     25  C   UNL     1       3.587   0.003  -0.572  0.00  0.00    +0.165 A 
ATOM     30  C   UNL     1       5.777   0.214   0.573  0.00  0.00    +0.250 C 
ATOM     37  H   UNL     1       5.366   0.136  -1.486  0.00  0.00    +0.157 HD
ENDROOT
BRANCH  30  31
ATOM      9  N   UNL     1       9.970   0.531  -0.237  0.00  0.00    -0.263 NA
ATOM     31  C   UNL     1       7.233   0.324   0.291  0.00  0.00    +0.040 A 
ATOM     32  C   UNL     1       8.160  -0.141   1.218  0.00  0.00    +0.033 A 
ATOM     33  C   UNL     1       7.673   0.891  -0.899  0.00  0.00    +0.033 A 
ATOM     34  C   UNL     1       9.505  -0.015   0.908  0.00  0.00    +0.111 A 
ATOM     35  C   UNL     1       9.039   0.971  -1.114  0.00  0.00    +0.111 A 
ENDBRANCH  30  31
BRANCH  12   3
ATOM      3  O   UNL     1      -2.382   0.259   2.191  0.00  0.00    -0.391 OA
ATOM     36  H   UNL     1      -2.503   1.166   1.862  0.00  0.00    +0.210 HD
ENDBRANCH  12   3
BRANCH  13  19
ATOM     19  C   UNL     1      -4.804  -1.014   1.130  0.00  0.00    +0.078 C 
ATOM     23  C   UNL     1      -4.627  -2.475   1.501  0.00  0.00    +0.017 C 
BRANCH  19  24
ATOM      2  S   UNL     1      -7.149   3.261  -0.767  0.00  0.00    -0.158 S 
ATOM      4  O   UNL     1      -6.476  -1.756  -0.375  0.00  0.00    -0.275 OA
ATOM      7  N   UNL     1      -6.715   0.401   0.456  0.00  0.00    -0.300 N 
ATOM     24  C   UNL     1      -6.072  -0.831   0.334  0.00  0.00    +0.219 C 
ATOM     26  C   UNL     1      -7.950   0.653  -0.288  0.00  0.00    +0.118 C 
ATOM     27  C   UNL     1      -6.196   1.557   1.197  0.00  0.00    +0.118 C 
ATOM     28  C   UNL     1      -7.724   1.657  -1.412  0.00  0.00    +0.088 C 
ATOM     29  C   UNL     1      -5.757   2.666   0.248  0.00  0.00    +0.088 C 
ENDBRANCH  19  24
ENDBRANCH  13  19
TORSDOF 4
