REMARK  Name = 45783527
REMARK  6 active torsions:
REMARK  status: ('A' for Active; 'I' for Inactive)
REMARK    1  A    between atoms: S_1  and  C_23
REMARK    2  A    between atoms: S_1  and  C_33
REMARK    3  A    between atoms: N_6  and  C_15
REMARK    4  A    between atoms: C_11  and  C_16
REMARK    5  A    between atoms: C_15  and  C_17
REMARK    6  A    between atoms: C_20  and  C_24
REMARK                            x       y       z     vdW  Elec       q    Type
REMARK                         _______ _______ _______ _____ _____    ______ ____
ROOT
ATOM      2  O   UNL     1      -2.458  -1.592  -1.413  0.00  0.00    -0.336 OA
ATOM      7  N   UNL     1      -1.311  -1.626   0.511  0.00  0.00    -0.190 NA
ATOM      8  N   UNL     1      -1.115  -1.394  -1.756  0.00  0.00    -0.056 NA
ATOM     16  C   UNL     1      -2.486  -1.719  -0.060  0.00  0.00    +0.245 A 
ATOM     20  C   UNL     1      -0.502  -1.427  -0.569  0.00  0.00    +0.204 A 
ENDROOT
BRANCH  20  24
ATOM      3  O   UNL     1       7.707  -0.348   0.614  0.00  0.00    -0.377 OA
ATOM      9  N   UNL     1       4.987  -0.801   0.071  0.00  0.00    -0.311 N 
ATOM     10  N   UNL     1       2.848  -1.153   1.021  0.00  0.00    -0.240 NA
ATOM     24  C   UNL     1       0.916  -1.263  -0.428  0.00  0.00    +0.041 A 
ATOM     25  C   UNL     1       5.642  -1.477   1.199  0.00  0.00    +0.134 C 
ATOM     26  C   UNL     1       5.636   0.435  -0.379  0.00  0.00    +0.134 C 
ATOM     27  C   UNL     1       3.606  -0.959  -0.082  0.00  0.00    +0.121 A 
ATOM     28  C   UNL     1       7.133  -1.619   0.919  0.00  0.00    +0.178 C 
ATOM     29  C   UNL     1       7.129   0.192  -0.574  0.00  0.00    +0.178 C 
ATOM     30  C   UNL     1       1.728  -1.061  -1.538  0.00  0.00    +0.016 A 
ATOM     31  C   UNL     1       3.100  -0.905  -1.371  0.00  0.00    +0.044 A 
ATOM     32  C   UNL     1       1.520  -1.301   0.819  0.00  0.00    +0.124 A 
ENDBRANCH  20  24
BRANCH  16  11
ATOM      6  N   UNL     1      -4.806  -0.874   0.243  0.00  0.00    -0.287 NA
ATOM     11  C   UNL     1      -3.844  -1.946   0.569  0.00  0.00    +0.146 C 
ATOM     12  C   UNL     1      -4.518  -3.240   0.078  0.00  0.00    +0.030 C 
ATOM     13  C   UNL     1      -5.877  -2.804  -0.452  0.00  0.00    +0.017 C 
ATOM     14  C   UNL     1      -6.133  -1.491   0.260  0.00  0.00    +0.085 C 
BRANCH   6  15
ATOM     15  C   UNL     1      -4.722   0.268   1.144  0.00  0.00    +0.120 C 
BRANCH  15  17
ATOM     17  C   UNL     1      -3.574   1.176   0.791  0.00  0.00    -0.033 A 
ATOM     18  C   UNL     1      -2.576   1.437   1.730  0.00  0.00    +0.007 A 
ATOM     19  C   UNL     1      -3.509   1.758  -0.475  0.00  0.00    +0.007 A 
ATOM     21  C   UNL     1      -1.513   2.278   1.403  0.00  0.00    +0.027 A 
ATOM     22  C   UNL     1      -2.446   2.599  -0.802  0.00  0.00    +0.027 A 
ATOM     23  C   UNL     1      -1.448   2.860   0.137  0.00  0.00    +0.088 A 
BRANCH  23   1
ATOM      1  S   UNL     1      -0.115   3.910  -0.273  0.00  0.00    -0.006 S 
ATOM      4  O   UNL     1      -0.531   4.803  -1.347  0.00  0.00    -0.170 OA
ATOM      5  O   UNL     1       0.415   4.465   0.964  0.00  0.00    -0.170 OA
ATOM     33  C   UNL     1       1.115   2.820  -0.954  0.00  0.00    +0.200 C 
ENDBRANCH  23   1
ENDBRANCH  15  17
ENDBRANCH   6  15
ENDBRANCH  16  11
TORSDOF 5
