MODEL 1
REMARK VINA RESULT:      -5.7      0.000      0.000
REMARK  Name = 75367112
REMARK  10 active torsions:
REMARK  status: ('A' for Active; 'I' for Inactive)
REMARK    1  A    between atoms: O_3  and  C_8
REMARK    2  A    between atoms: N_5  and  C_7
REMARK    3  A    between atoms: N_5  and  C_10
REMARK    4  A    between atoms: N_6  and  C_12
REMARK    5  A    between atoms: C_9  and  C_12
REMARK    6  A    between atoms: C_15  and  C_16
REMARK    7  A    between atoms: C_15  and  C_18
REMARK    8  A    between atoms: C_15  and  C_19
REMARK    9  A    between atoms: C_15  and  C_20
REMARK   10  A    between atoms: C_16  and  C_17
REMARK                            x       y       z     vdW  Elec       q    Type
REMARK                         _______ _______ _______ _____ _____    ______ ____
ROOT
ATOM      1  O   UNL     1      18.360   7.180  21.737  0.00  0.00    -0.371 OA
ATOM      7  C   UNL     1      19.629   5.963  20.140  0.00  0.00    +0.111 C 
ATOM      8  C   UNL     1      18.158   5.639  19.955  0.00  0.00    +0.164 C 
ATOM      9  C   UNL     1      17.507   6.836  20.633  0.00  0.00    +0.165 C 
ATOM     11  C   UNL     1      19.635   6.541  21.546  0.00  0.00    +0.181 C 
ENDROOT
BRANCH   8   3
ATOM      3  O   UNL     1      17.789   5.539  18.593  0.00  0.00    -0.388 OA
ATOM     22  H   UNL     1      17.881   6.417  18.186  0.00  0.00    +0.210 HD
ENDBRANCH   8   3
BRANCH   7   5
ATOM      5  N   UNL     1      20.503   4.809  20.000  0.00  0.00    -0.302 NA
ATOM     21  H   UNL     1      20.947   4.857  19.081  0.00  0.00    +0.123 HD
BRANCH   5  10
ATOM      2  O   UNL     1      23.310   3.707  21.008  0.00  0.00    -0.377 OA
ATOM     10  C   UNL     1      21.474   4.790  21.101  0.00  0.00    +0.106 C 
ATOM     13  C   UNL     1      22.876   5.006  20.533  0.00  0.00    +0.180 C 
ATOM     14  C   UNL     1      21.940   3.353  21.334  0.00  0.00    +0.180 C 
ENDBRANCH   5  10
ENDBRANCH   7   5
BRANCH   9  12
ATOM     12  C   UNL     1      16.104   6.549  21.139  0.00  0.00    +0.138 C 
BRANCH  12   6
ATOM      4  O   UNL     1      13.266   7.033  21.458  0.00  0.00    -0.276 OA
ATOM      6  N   UNL     1      15.121   6.716  20.094  0.00  0.00    -0.313 N 
ATOM     17  C   UNL     1      13.778   6.944  20.344  0.00  0.00    +0.214 C 
ATOM     23  H   UNL     1      15.446   6.670  19.133  0.00  0.00    +0.149 HD
BRANCH  17  16
ATOM     16  C   UNL     1      12.950   7.076  19.076  0.00  0.00    +0.102 C 
BRANCH  16  15
ATOM     15  C   UNL     1      12.255   8.447  18.896  0.00  0.00    -0.029 C 
ATOM     18  C   UNL     1      11.055   8.588  19.846  0.00  0.00    +0.011 C 
ATOM     19  C   UNL     1      11.783   8.652  17.447  0.00  0.00    +0.011 C 
ATOM     20  C   UNL     1      13.278   9.548  19.234  0.00  0.00    +0.011 C 
ENDBRANCH  16  15
ENDBRANCH  17  16
ENDBRANCH  12   6
ENDBRANCH   9  12
TORSDOF 7
ENDMDL
MODEL 2
REMARK VINA RESULT:      -5.4     26.863     28.807
REMARK  Name = 75367112
REMARK  10 active torsions:
REMARK  status: ('A' for Active; 'I' for Inactive)
REMARK    1  A    between atoms: O_3  and  C_8
REMARK    2  A    between atoms: N_5  and  C_7
REMARK    3  A    between atoms: N_5  and  C_10
REMARK    4  A    between atoms: N_6  and  C_12
REMARK    5  A    between atoms: C_9  and  C_12
REMARK    6  A    between atoms: C_15  and  C_16
REMARK    7  A    between atoms: C_15  and  C_18
REMARK    8  A    between atoms: C_15  and  C_19
REMARK    9  A    between atoms: C_15  and  C_20
REMARK   10  A    between atoms: C_16  and  C_17
REMARK                            x       y       z     vdW  Elec       q    Type
REMARK                         _______ _______ _______ _____ _____    ______ ____
ROOT
ATOM      1  O   UNL     1      -4.513 -10.218  15.532  0.00  0.00    -0.371 OA
ATOM      7  C   UNL     1      -5.454 -11.325  17.410  0.00  0.00    +0.111 C 
ATOM      8  C   UNL     1      -3.994 -11.719  17.284  0.00  0.00    +0.164 C 
ATOM      9  C   UNL     1      -3.455 -10.576  16.436  0.00  0.00    +0.165 C 
ATOM     11  C   UNL     1      -5.742 -10.786  16.019  0.00  0.00    +0.181 C 
ENDROOT
BRANCH   8   3
ATOM      3  O   UNL     1      -3.340 -11.800  18.535  0.00  0.00    -0.388 OA
ATOM     22  H   UNL     1      -3.971 -11.540  19.228  0.00  0.00    +0.210 HD
ENDBRANCH   8   3
BRANCH   7   5
ATOM      5  N   UNL     1      -6.326 -12.429  17.781  0.00  0.00    -0.302 NA
ATOM     21  H   UNL     1      -5.837 -13.301  17.577  0.00  0.00    +0.123 HD
BRANCH   5  10
ATOM      2  O   UNL     1      -8.203 -10.946  19.875  0.00  0.00    -0.377 OA
ATOM     10  C   UNL     1      -6.704 -12.303  19.194  0.00  0.00    +0.106 C 
ATOM     13  C   UNL     1      -8.229 -12.277  19.301  0.00  0.00    +0.180 C 
ATOM     14  C   UNL     1      -6.792 -10.821  19.560  0.00  0.00    +0.180 C 
ENDBRANCH   5  10
ENDBRANCH   7   5
BRANCH   9  12
ATOM     12  C   UNL     1      -2.211 -10.947  15.648  0.00  0.00    +0.138 C 
BRANCH  12   6
ATOM      4  O   UNL     1      -1.826 -12.294  13.112  0.00  0.00    -0.276 OA
ATOM      6  N   UNL     1      -2.224 -10.355  14.330  0.00  0.00    -0.313 N 
ATOM     17  C   UNL     1      -2.028 -11.082  13.168  0.00  0.00    +0.214 C 
ATOM     23  H   UNL     1      -2.393  -9.355  14.268  0.00  0.00    +0.149 HD
BRANCH  17  16
ATOM     16  C   UNL     1      -2.079 -10.226  11.914  0.00  0.00    +0.102 C 
BRANCH  16  15
ATOM     15  C   UNL     1      -3.400 -10.328  11.113  0.00  0.00    -0.029 C 
ATOM     18  C   UNL     1      -4.619 -10.117  12.025  0.00  0.00    +0.011 C 
ATOM     19  C   UNL     1      -3.524 -11.688  10.406  0.00  0.00    +0.011 C 
ATOM     20  C   UNL     1      -3.394  -9.222  10.041  0.00  0.00    +0.011 C 
ENDBRANCH  16  15
ENDBRANCH  17  16
ENDBRANCH  12   6
ENDBRANCH   9  12
TORSDOF 7
ENDMDL
MODEL 3
REMARK VINA RESULT:      -5.3     27.045     29.307
REMARK  Name = 75367112
REMARK  10 active torsions:
REMARK  status: ('A' for Active; 'I' for Inactive)
REMARK    1  A    between atoms: O_3  and  C_8
REMARK    2  A    between atoms: N_5  and  C_7
REMARK    3  A    between atoms: N_5  and  C_10
REMARK    4  A    between atoms: N_6  and  C_12
REMARK    5  A    between atoms: C_9  and  C_12
REMARK    6  A    between atoms: C_15  and  C_16
REMARK    7  A    between atoms: C_15  and  C_18
REMARK    8  A    between atoms: C_15  and  C_19
REMARK    9  A    between atoms: C_15  and  C_20
REMARK   10  A    between atoms: C_16  and  C_17
REMARK                            x       y       z     vdW  Elec       q    Type
REMARK                         _______ _______ _______ _____ _____    ______ ____
ROOT
ATOM      1  O   UNL     1      -5.048 -11.704  17.795  0.00  0.00    -0.371 OA
ATOM      7  C   UNL     1      -6.909 -10.342  17.229  0.00  0.00    +0.111 C 
ATOM      8  C   UNL     1      -5.680  -9.830  16.500  0.00  0.00    +0.164 C 
ATOM      9  C   UNL     1      -4.783 -11.059  16.539  0.00  0.00    +0.165 C 
ATOM     11  C   UNL     1      -6.279 -11.182  18.327  0.00  0.00    +0.181 C 
ENDROOT
BRANCH   8   3
ATOM      3  O   UNL     1      -5.961  -9.424  15.174  0.00  0.00    -0.388 OA
ATOM     22  H   UNL     1      -6.003 -10.218  14.614  0.00  0.00    +0.210 HD
ENDBRANCH   8   3
BRANCH   7   5
ATOM      5  N   UNL     1      -7.764  -9.285  17.745  0.00  0.00    -0.302 NA
ATOM     21  H   UNL     1      -7.239  -8.409  17.714  0.00  0.00    +0.123 HD
BRANCH   5  10
ATOM      2  O   UNL     1     -10.883  -8.672  17.815  0.00  0.00    -0.377 OA
ATOM     10  C   UNL     1      -9.007  -9.232  16.966  0.00  0.00    +0.106 C 
ATOM     13  C   UNL     1      -9.746  -7.936  17.295  0.00  0.00    +0.180 C 
ATOM     14  C   UNL     1     -10.125  -9.909  17.760  0.00  0.00    +0.180 C 
ENDBRANCH   5  10
ENDBRANCH   7   5
BRANCH   9  12
ATOM     12  C   UNL     1      -3.305 -10.727  16.435  0.00  0.00    +0.138 C 
BRANCH  12   6
ATOM      4  O   UNL     1      -2.136 -12.271  14.281  0.00  0.00    -0.276 OA
ATOM      6  N   UNL     1      -2.960 -10.262  15.111  0.00  0.00    -0.313 N 
ATOM     17  C   UNL     1      -2.400 -11.078  14.142  0.00  0.00    +0.214 C 
ATOM     23  H   UNL     1      -3.149  -9.289  14.892  0.00  0.00    +0.149 HD
BRANCH  17  16
ATOM     16  C   UNL     1      -2.122 -10.349  12.838  0.00  0.00    +0.102 C 
BRANCH  16  15
ATOM     15  C   UNL     1      -3.188 -10.564  11.736  0.00  0.00    -0.029 C 
ATOM     18  C   UNL     1      -4.595 -10.223  12.252  0.00  0.00    +0.011 C 
ATOM     19  C   UNL     1      -3.174 -12.010  11.215  0.00  0.00    +0.011 C 
ATOM     20  C   UNL     1      -2.857  -9.621  10.563  0.00  0.00    +0.011 C 
ENDBRANCH  16  15
ENDBRANCH  17  16
ENDBRANCH  12   6
ENDBRANCH   9  12
TORSDOF 7
ENDMDL
MODEL 4
REMARK VINA RESULT:      -5.3     28.648     32.247
REMARK  Name = 75367112
REMARK  10 active torsions:
REMARK  status: ('A' for Active; 'I' for Inactive)
REMARK    1  A    between atoms: O_3  and  C_8
REMARK    2  A    between atoms: N_5  and  C_7
REMARK    3  A    between atoms: N_5  and  C_10
REMARK    4  A    between atoms: N_6  and  C_12
REMARK    5  A    between atoms: C_9  and  C_12
REMARK    6  A    between atoms: C_15  and  C_16
REMARK    7  A    between atoms: C_15  and  C_18
REMARK    8  A    between atoms: C_15  and  C_19
REMARK    9  A    between atoms: C_15  and  C_20
REMARK   10  A    between atoms: C_16  and  C_17
REMARK                            x       y       z     vdW  Elec       q    Type
REMARK                         _______ _______ _______ _____ _____    ______ ____
ROOT
ATOM      1  O   UNL     1     -16.043   6.409  23.632  0.00  0.00    -0.371 OA
ATOM      7  C   UNL     1     -15.492   4.101  23.533  0.00  0.00    +0.111 C 
ATOM      8  C   UNL     1     -14.866   4.811  22.347  0.00  0.00    +0.164 C 
ATOM      9  C   UNL     1     -14.854   6.251  22.839  0.00  0.00    +0.165 C 
ATOM     11  C   UNL     1     -16.552   5.104  23.958  0.00  0.00    +0.181 C 
ENDROOT
BRANCH   8   3
ATOM      3  O   UNL     1     -13.563   4.343  22.056  0.00  0.00    -0.388 OA
ATOM     22  H   UNL     1     -13.287   3.744  22.771  0.00  0.00    +0.210 HD
ENDBRANCH   8   3
BRANCH   7   5
ATOM      5  N   UNL     1     -16.046   2.797  23.208  0.00  0.00    -0.302 NA
ATOM     21  H   UNL     1     -15.578   2.100  23.788  0.00  0.00    +0.123 HD
BRANCH   5  10
ATOM      2  O   UNL     1     -18.735   1.104  23.094  0.00  0.00    -0.377 OA
ATOM     10  C   UNL     1     -17.501   2.818  23.403  0.00  0.00    +0.106 C 
ATOM     13  C   UNL     1     -17.914   1.576  24.192  0.00  0.00    +0.180 C 
ATOM     14  C   UNL     1     -18.175   2.121  22.221  0.00  0.00    +0.180 C 
ENDBRANCH   5  10
ENDBRANCH   7   5
BRANCH   9  12
ATOM     12  C   UNL     1     -14.849   7.271  21.713  0.00  0.00    +0.138 C 
BRANCH  12   6
ATOM      4  O   UNL     1     -12.431   8.861  21.582  0.00  0.00    -0.276 OA
ATOM      6  N   UNL     1     -13.720   7.078  20.832  0.00  0.00    -0.313 N 
ATOM     17  C   UNL     1     -12.602   7.894  20.841  0.00  0.00    +0.214 C 
ATOM     23  H   UNL     1     -13.759   6.296  20.185  0.00  0.00    +0.149 HD
BRANCH  17  16
ATOM     16  C   UNL     1     -11.560   7.488  19.812  0.00  0.00    +0.102 C 
BRANCH  16  15
ATOM     15  C   UNL     1     -11.292   8.542  18.710  0.00  0.00    -0.029 C 
ATOM     18  C   UNL     1     -10.323   9.628  19.207  0.00  0.00    +0.011 C 
ATOM     19  C   UNL     1     -12.596   9.203  18.235  0.00  0.00    +0.011 C 
ATOM     20  C   UNL     1     -10.645   7.823  17.511  0.00  0.00    +0.011 C 
ENDBRANCH  16  15
ENDBRANCH  17  16
ENDBRANCH  12   6
ENDBRANCH   9  12
TORSDOF 7
ENDMDL
MODEL 5
REMARK VINA RESULT:      -5.3     29.879     31.577
REMARK  Name = 75367112
REMARK  10 active torsions:
REMARK  status: ('A' for Active; 'I' for Inactive)
REMARK    1  A    between atoms: O_3  and  C_8
REMARK    2  A    between atoms: N_5  and  C_7
REMARK    3  A    between atoms: N_5  and  C_10
REMARK    4  A    between atoms: N_6  and  C_12
REMARK    5  A    between atoms: C_9  and  C_12
REMARK    6  A    between atoms: C_15  and  C_16
REMARK    7  A    between atoms: C_15  and  C_18
REMARK    8  A    between atoms: C_15  and  C_19
REMARK    9  A    between atoms: C_15  and  C_20
REMARK   10  A    between atoms: C_16  and  C_17
REMARK                            x       y       z     vdW  Elec       q    Type
REMARK                         _______ _______ _______ _____ _____    ______ ____
ROOT
ATOM      1  O   UNL     1     -12.340  -7.488  16.688  0.00  0.00    -0.371 OA
ATOM      7  C   UNL     1      -9.970  -7.564  16.554  0.00  0.00    +0.111 C 
ATOM      8  C   UNL     1     -10.499  -6.663  15.453  0.00  0.00    +0.164 C 
ATOM      9  C   UNL     1     -11.878  -6.316  15.997  0.00  0.00    +0.165 C 
ATOM     11  C   UNL     1     -11.215  -8.354  16.922  0.00  0.00    +0.181 C 
ENDROOT
BRANCH   8   3
ATOM      3  O   UNL     1      -9.703  -5.510  15.260  0.00  0.00    -0.388 OA
ATOM     22  H   UNL     1      -9.598  -5.368  14.304  0.00  0.00    +0.210 HD
ENDBRANCH   8   3
BRANCH   7   5
ATOM      5  N   UNL     1      -8.865  -8.411  16.135  0.00  0.00    -0.302 NA
ATOM     21  H   UNL     1      -8.007  -7.860  16.181  0.00  0.00    +0.123 HD
BRANCH   5  10
ATOM      2  O   UNL     1      -7.160 -10.955  16.989  0.00  0.00    -0.377 OA
ATOM     10  C   UNL     1      -8.818  -9.612  16.979  0.00  0.00    +0.106 C 
ATOM     13  C   UNL     1      -7.447  -9.695  17.648  0.00  0.00    +0.180 C 
ATOM     14  C   UNL     1      -8.328 -10.794  16.142  0.00  0.00    +0.180 C 
ENDBRANCH   5  10
ENDBRANCH   7   5
BRANCH   9  12
ATOM     12  C   UNL     1     -12.872  -5.934  14.913  0.00  0.00    +0.138 C 
BRANCH  12   6
ATOM      4  O   UNL     1     -13.957  -3.703  13.418  0.00  0.00    -0.276 OA
ATOM      6  N   UNL     1     -12.232  -5.201  13.845  0.00  0.00    -0.313 N 
ATOM     17  C   UNL     1     -12.833  -4.143  13.184  0.00  0.00    +0.214 C 
ATOM     23  H   UNL     1     -11.292  -5.482  13.581  0.00  0.00    +0.149 HD
BRANCH  17  16
ATOM     16  C   UNL     1     -11.957  -3.547  12.095  0.00  0.00    +0.102 C 
BRANCH  16  15
ATOM     15  C   UNL     1     -12.281  -4.039  10.663  0.00  0.00    -0.029 C 
ATOM     18  C   UNL     1     -13.661  -3.540  10.204  0.00  0.00    +0.011 C 
ATOM     19  C   UNL     1     -12.239  -5.573  10.572  0.00  0.00    +0.011 C 
ATOM     20  C   UNL     1     -11.214  -3.466   9.710  0.00  0.00    +0.011 C 
ENDBRANCH  16  15
ENDBRANCH  17  16
ENDBRANCH  12   6
ENDBRANCH   9  12
TORSDOF 7
ENDMDL
MODEL 6
REMARK VINA RESULT:      -5.3      5.305      7.930
REMARK  Name = 75367112
REMARK  10 active torsions:
REMARK  status: ('A' for Active; 'I' for Inactive)
REMARK    1  A    between atoms: O_3  and  C_8
REMARK    2  A    between atoms: N_5  and  C_7
REMARK    3  A    between atoms: N_5  and  C_10
REMARK    4  A    between atoms: N_6  and  C_12
REMARK    5  A    between atoms: C_9  and  C_12
REMARK    6  A    between atoms: C_15  and  C_16
REMARK    7  A    between atoms: C_15  and  C_18
REMARK    8  A    between atoms: C_15  and  C_19
REMARK    9  A    between atoms: C_15  and  C_20
REMARK   10  A    between atoms: C_16  and  C_17
REMARK                            x       y       z     vdW  Elec       q    Type
REMARK                         _______ _______ _______ _____ _____    ______ ____
ROOT
ATOM      1  O   UNL     1      14.991   8.879  19.192  0.00  0.00    -0.371 OA
ATOM      7  C   UNL     1      13.378   7.171  18.842  0.00  0.00    +0.111 C 
ATOM      8  C   UNL     1      13.012   8.378  17.998  0.00  0.00    +0.164 C 
ATOM      9  C   UNL     1      14.350   9.101  17.924  0.00  0.00    +0.165 C 
ATOM     11  C   UNL     1      14.327   7.790  19.856  0.00  0.00    +0.181 C 
ENDROOT
BRANCH   8   3
ATOM      3  O   UNL     1      12.535   8.022  16.715  0.00  0.00    -0.388 OA
ATOM     22  H   UNL     1      13.266   7.617  16.218  0.00  0.00    +0.210 HD
ENDBRANCH   8   3
BRANCH   7   5
ATOM      5  N   UNL     1      12.233   6.523  19.461  0.00  0.00    -0.302 NA
ATOM     21  H   UNL     1      12.368   5.513  19.396  0.00  0.00    +0.123 HD
BRANCH   5  10
ATOM      2  O   UNL     1      10.229   6.984  21.885  0.00  0.00    -0.377 OA
ATOM     10  C   UNL     1      12.092   6.991  20.846  0.00  0.00    +0.106 C 
ATOM     13  C   UNL     1      11.247   5.985  21.627  0.00  0.00    +0.180 C 
ATOM     14  C   UNL     1      10.862   7.893  20.947  0.00  0.00    +0.180 C 
ENDBRANCH   5  10
ENDBRANCH   7   5
BRANCH   9  12
ATOM     12  C   UNL     1      14.213  10.592  17.673  0.00  0.00    +0.138 C 
BRANCH  12   6
ATOM      4  O   UNL     1      13.300  10.418  14.929  0.00  0.00    -0.276 OA
ATOM      6  N   UNL     1      14.928  10.995  16.484  0.00  0.00    -0.313 N 
ATOM     17  C   UNL     1      14.409  10.871  15.206  0.00  0.00    +0.214 C 
ATOM     23  H   UNL     1      15.855  11.393  16.607  0.00  0.00    +0.149 HD
BRANCH  17  16
ATOM     16  C   UNL     1      15.361  11.357  14.126  0.00  0.00    +0.102 C 
BRANCH  16  15
ATOM     15  C   UNL     1      14.983  12.718  13.493  0.00  0.00    -0.029 C 
ATOM     18  C   UNL     1      14.237  13.609  14.500  0.00  0.00    +0.011 C 
ATOM     19  C   UNL     1      14.115  12.532  12.238  0.00  0.00    +0.011 C 
ATOM     20  C   UNL     1      16.286  13.431  13.082  0.00  0.00    +0.011 C 
ENDBRANCH  16  15
ENDBRANCH  17  16
ENDBRANCH  12   6
ENDBRANCH   9  12
TORSDOF 7
ENDMDL
MODEL 7
REMARK VINA RESULT:      -5.2     14.205     17.457
REMARK  Name = 75367112
REMARK  10 active torsions:
REMARK  status: ('A' for Active; 'I' for Inactive)
REMARK    1  A    between atoms: O_3  and  C_8
REMARK    2  A    between atoms: N_5  and  C_7
REMARK    3  A    between atoms: N_5  and  C_10
REMARK    4  A    between atoms: N_6  and  C_12
REMARK    5  A    between atoms: C_9  and  C_12
REMARK    6  A    between atoms: C_15  and  C_16
REMARK    7  A    between atoms: C_15  and  C_18
REMARK    8  A    between atoms: C_15  and  C_19
REMARK    9  A    between atoms: C_15  and  C_20
REMARK   10  A    between atoms: C_16  and  C_17
REMARK                            x       y       z     vdW  Elec       q    Type
REMARK                         _______ _______ _______ _____ _____    ______ ____
ROOT
ATOM      1  O   UNL     1      11.397   6.934   4.631  0.00  0.00    -0.371 OA
ATOM      7  C   UNL     1      11.392   6.521   6.970  0.00  0.00    +0.111 C 
ATOM      8  C   UNL     1      12.826   6.684   6.499  0.00  0.00    +0.164 C 
ATOM      9  C   UNL     1      12.621   7.438   5.192  0.00  0.00    +0.165 C 
ATOM     11  C   UNL     1      10.676   6.233   5.661  0.00  0.00    +0.181 C 
ENDROOT
BRANCH   8   3
ATOM      3  O   UNL     1      13.620   7.418   7.411  0.00  0.00    -0.388 OA
ATOM     22  H   UNL     1      13.829   6.842   8.166  0.00  0.00    +0.210 HD
ENDBRANCH   8   3
BRANCH   7   5
ATOM      5  N   UNL     1      11.218   5.464   7.954  0.00  0.00    -0.302 NA
ATOM     21  H   UNL     1      11.594   5.795   8.844  0.00  0.00    +0.123 HD
BRANCH   5  10
ATOM      2  O   UNL     1       8.710   5.082   9.871  0.00  0.00    -0.377 OA
ATOM     10  C   UNL     1       9.799   5.097   8.035  0.00  0.00    +0.106 C 
ATOM     13  C   UNL     1       9.072   6.112   8.916  0.00  0.00    +0.180 C 
ATOM     14  C   UNL     1       9.595   4.140   9.210  0.00  0.00    +0.180 C 
ENDBRANCH   5  10
ENDBRANCH   7   5
BRANCH   9  12
ATOM     12  C   UNL     1      13.756   7.244   4.203  0.00  0.00    +0.138 C 
BRANCH  12   6
ATOM      4  O   UNL     1      15.289   6.682   1.810  0.00  0.00    -0.276 OA
ATOM      6  N   UNL     1      13.318   6.521   3.031  0.00  0.00    -0.313 N 
ATOM     17  C   UNL     1      14.126   6.301   1.928  0.00  0.00    +0.214 C 
ATOM     23  H   UNL     1      12.370   6.155   3.034  0.00  0.00    +0.149 HD
BRANCH  17  16
ATOM     16  C   UNL     1      13.427   5.524   0.824  0.00  0.00    +0.102 C 
BRANCH  16  15
ATOM     15  C   UNL     1      13.508   3.985   0.966  0.00  0.00    -0.029 C 
ATOM     18  C   UNL     1      14.851   3.554   1.578  0.00  0.00    +0.011 C 
ATOM     19  C   UNL     1      13.320   3.285  -0.390  0.00  0.00    +0.011 C 
ATOM     20  C   UNL     1      12.375   3.533   1.907  0.00  0.00    +0.011 C 
ENDBRANCH  16  15
ENDBRANCH  17  16
ENDBRANCH  12   6
ENDBRANCH   9  12
TORSDOF 7
ENDMDL
MODEL 8
REMARK VINA RESULT:      -5.0     27.499     29.666
REMARK  Name = 75367112
REMARK  10 active torsions:
REMARK  status: ('A' for Active; 'I' for Inactive)
REMARK    1  A    between atoms: O_3  and  C_8
REMARK    2  A    between atoms: N_5  and  C_7
REMARK    3  A    between atoms: N_5  and  C_10
REMARK    4  A    between atoms: N_6  and  C_12
REMARK    5  A    between atoms: C_9  and  C_12
REMARK    6  A    between atoms: C_15  and  C_16
REMARK    7  A    between atoms: C_15  and  C_18
REMARK    8  A    between atoms: C_15  and  C_19
REMARK    9  A    between atoms: C_15  and  C_20
REMARK   10  A    between atoms: C_16  and  C_17
REMARK                            x       y       z     vdW  Elec       q    Type
REMARK                         _______ _______ _______ _____ _____    ______ ____
ROOT
ATOM      1  O   UNL     1      -6.089  -9.597  16.562  0.00  0.00    -0.371 OA
ATOM      7  C   UNL     1      -6.436 -10.119  18.853  0.00  0.00    +0.111 C 
ATOM      8  C   UNL     1      -5.422 -11.087  18.273  0.00  0.00    +0.164 C 
ATOM      9  C   UNL     1      -4.944 -10.314  17.052  0.00  0.00    +0.165 C 
ATOM     11  C   UNL     1      -7.093  -9.579  17.594  0.00  0.00    +0.181 C 
ENDROOT
BRANCH   8   3
ATOM      3  O   UNL     1      -4.362 -11.369  19.166  0.00  0.00    -0.388 OA
ATOM     22  H   UNL     1      -4.445 -12.294  19.456  0.00  0.00    +0.210 HD
ENDBRANCH   8   3
BRANCH   7   5
ATOM      5  N   UNL     1      -7.384 -10.742  19.763  0.00  0.00    -0.302 NA
ATOM     21  H   UNL     1      -7.590 -10.077  20.510  0.00  0.00    +0.123 HD
BRANCH   5  10
ATOM      2  O   UNL     1     -10.177 -12.254  19.912  0.00  0.00    -0.377 OA
ATOM     10  C   UNL     1      -8.581 -11.153  19.019  0.00  0.00    +0.106 C 
ATOM     13  C   UNL     1      -9.819 -10.849  19.863  0.00  0.00    +0.180 C 
ATOM     14  C   UNL     1      -8.893 -12.615  19.339  0.00  0.00    +0.180 C 
ENDBRANCH   5  10
ENDBRANCH   7   5
BRANCH   9  12
ATOM     12  C   UNL     1      -4.391 -11.207  15.955  0.00  0.00    +0.138 C 
BRANCH  12   6
ATOM      4  O   UNL     1      -4.877 -12.282  13.309  0.00  0.00    -0.276 OA
ATOM      6  N   UNL     1      -4.307 -10.505  14.695  0.00  0.00    -0.313 N 
ATOM     17  C   UNL     1      -4.557 -11.106  13.472  0.00  0.00    +0.214 C 
ATOM     23  H   UNL     1      -4.058  -9.520  14.723  0.00  0.00    +0.149 HD
BRANCH  17  16
ATOM     16  C   UNL     1      -4.392 -10.156  12.298  0.00  0.00    +0.102 C 
BRANCH  16  15
ATOM     15  C   UNL     1      -3.231 -10.510  11.337  0.00  0.00    -0.029 C 
ATOM     18  C   UNL     1      -3.574 -11.741  10.483  0.00  0.00    +0.011 C 
ATOM     19  C   UNL     1      -1.926 -10.773  12.106  0.00  0.00    +0.011 C 
ATOM     20  C   UNL     1      -3.008  -9.310  10.396  0.00  0.00    +0.011 C 
ENDBRANCH  16  15
ENDBRANCH  17  16
ENDBRANCH  12   6
ENDBRANCH   9  12
TORSDOF 7
ENDMDL
MODEL 9
REMARK VINA RESULT:      -4.9     27.237     29.472
REMARK  Name = 75367112
REMARK  10 active torsions:
REMARK  status: ('A' for Active; 'I' for Inactive)
REMARK    1  A    between atoms: O_3  and  C_8
REMARK    2  A    between atoms: N_5  and  C_7
REMARK    3  A    between atoms: N_5  and  C_10
REMARK    4  A    between atoms: N_6  and  C_12
REMARK    5  A    between atoms: C_9  and  C_12
REMARK    6  A    between atoms: C_15  and  C_16
REMARK    7  A    between atoms: C_15  and  C_18
REMARK    8  A    between atoms: C_15  and  C_19
REMARK    9  A    between atoms: C_15  and  C_20
REMARK   10  A    between atoms: C_16  and  C_17
REMARK                            x       y       z     vdW  Elec       q    Type
REMARK                         _______ _______ _______ _____ _____    ______ ____
ROOT
ATOM      1  O   UNL     1      -4.142 -11.833  18.516  0.00  0.00    -0.371 OA
ATOM      7  C   UNL     1      -6.421 -11.185  18.678  0.00  0.00    +0.111 C 
ATOM      8  C   UNL     1      -5.795 -10.498  17.478  0.00  0.00    +0.164 C 
ATOM      9  C   UNL     1      -4.590 -11.393  17.223  0.00  0.00    +0.165 C 
ATOM     11  C   UNL     1      -5.189 -11.586  19.471  0.00  0.00    +0.181 C 
ENDROOT
BRANCH   8   3
ATOM      3  O   UNL     1      -6.662 -10.451  16.362  0.00  0.00    -0.388 OA
ATOM     22  H   UNL     1      -6.154 -10.695  15.569  0.00  0.00    +0.210 HD
ENDBRANCH   8   3
BRANCH   7   5
ATOM      5  N   UNL     1      -7.326 -10.332  19.432  0.00  0.00    -0.302 NA
ATOM     21  H   UNL     1      -7.348  -9.416  18.981  0.00  0.00    +0.123 HD
BRANCH   5  10
ATOM      2  O   UNL     1      -9.713 -11.624  17.775  0.00  0.00    -0.377 OA
ATOM     10  C   UNL     1      -8.650 -10.963  19.503  0.00  0.00    +0.106 C 
ATOM     13  C   UNL     1      -8.664 -12.195  18.598  0.00  0.00    +0.180 C 
ATOM     14  C   UNL     1      -9.559 -10.344  18.441  0.00  0.00    +0.180 C 
ENDBRANCH   5  10
ENDBRANCH   7   5
BRANCH   9  12
ATOM     12  C   UNL     1      -3.458 -10.685  16.501  0.00  0.00    +0.138 C 
BRANCH  12   6
ATOM      4  O   UNL     1      -3.472 -12.333  14.118  0.00  0.00    -0.276 OA
ATOM      6  N   UNL     1      -3.847 -10.292  15.166  0.00  0.00    -0.313 N 
ATOM     17  C   UNL     1      -3.820 -11.154  14.082  0.00  0.00    +0.214 C 
ATOM     23  H   UNL     1      -4.161  -9.335  15.032  0.00  0.00    +0.149 HD
BRANCH  17  16
ATOM     16  C   UNL     1      -4.267 -10.497  12.787  0.00  0.00    +0.102 C 
BRANCH  16  15
ATOM     15  C   UNL     1      -3.229 -10.555  11.640  0.00  0.00    -0.029 C 
ATOM     18  C   UNL     1      -1.798 -10.405  12.179  0.00  0.00    +0.011 C 
ATOM     19  C   UNL     1      -3.492  -9.464  10.588  0.00  0.00    +0.011 C 
ATOM     20  C   UNL     1      -3.352 -11.930  10.956  0.00  0.00    +0.011 C 
ENDBRANCH  16  15
ENDBRANCH  17  16
ENDBRANCH  12   6
ENDBRANCH   9  12
TORSDOF 7
ENDMDL
MODEL 10
REMARK VINA RESULT:      -4.9     15.420     18.716
REMARK  Name = 75367112
REMARK  10 active torsions:
REMARK  status: ('A' for Active; 'I' for Inactive)
REMARK    1  A    between atoms: O_3  and  C_8
REMARK    2  A    between atoms: N_5  and  C_7
REMARK    3  A    between atoms: N_5  and  C_10
REMARK    4  A    between atoms: N_6  and  C_12
REMARK    5  A    between atoms: C_9  and  C_12
REMARK    6  A    between atoms: C_15  and  C_16
REMARK    7  A    between atoms: C_15  and  C_18
REMARK    8  A    between atoms: C_15  and  C_19
REMARK    9  A    between atoms: C_15  and  C_20
REMARK   10  A    between atoms: C_16  and  C_17
REMARK                            x       y       z     vdW  Elec       q    Type
REMARK                         _______ _______ _______ _____ _____    ______ ____
ROOT
ATOM      1  O   UNL     1       9.770   6.266   3.215  0.00  0.00    -0.371 OA
ATOM      7  C   UNL     1      10.636   7.339   5.148  0.00  0.00    +0.111 C 
ATOM      8  C   UNL     1      11.633   6.298   4.671  0.00  0.00    +0.164 C 
ATOM      9  C   UNL     1      11.200   6.121   3.223  0.00  0.00    +0.165 C 
ATOM     11  C   UNL     1       9.366   6.882   4.451  0.00  0.00    +0.181 C 
ENDROOT
BRANCH   8   3
ATOM      3  O   UNL     1      12.973   6.739   4.771  0.00  0.00    -0.388 OA
ATOM     22  H   UNL     1      13.399   6.259   5.501  0.00  0.00    +0.210 HD
ENDBRANCH   8   3
BRANCH   7   5
ATOM      5  N   UNL     1      10.498   7.395   6.595  0.00  0.00    -0.302 NA
ATOM     21  H   UNL     1      10.353   8.369   6.862  0.00  0.00    +0.123 HD
BRANCH   5  10
ATOM      2  O   UNL     1       9.262   5.701   8.985  0.00  0.00    -0.377 OA
ATOM     10  C   UNL     1       9.399   6.518   7.018  0.00  0.00    +0.106 C 
ATOM     13  C   UNL     1       8.900   6.973   8.389  0.00  0.00    +0.180 C 
ATOM     14  C   UNL     1       9.976   5.323   7.779  0.00  0.00    +0.180 C 
ENDBRANCH   5  10
ENDBRANCH   7   5
BRANCH   9  12
ATOM     12  C   UNL     1      11.582   4.770   2.644  0.00  0.00    +0.138 C 
BRANCH  12   6
ATOM      4  O   UNL     1      13.015   2.561   1.437  0.00  0.00    -0.276 OA
ATOM      6  N   UNL     1      12.974   4.734   2.259  0.00  0.00    -0.313 N 
ATOM     17  C   UNL     1      13.576   3.626   1.687  0.00  0.00    +0.214 C 
ATOM     23  H   UNL     1      13.525   5.573   2.416  0.00  0.00    +0.149 HD
BRANCH  17  16
ATOM     16  C   UNL     1      15.050   3.839   1.384  0.00  0.00    +0.102 C 
BRANCH  16  15
ATOM     15  C   UNL     1      15.340   4.519   0.024  0.00  0.00    -0.029 C 
ATOM     18  C   UNL     1      14.179   4.305  -0.961  0.00  0.00    +0.011 C 
ATOM     19  C   UNL     1      16.641   3.991  -0.603  0.00  0.00    +0.011 C 
ATOM     20  C   UNL     1      15.498   6.031   0.271  0.00  0.00    +0.011 C 
ENDBRANCH  16  15
ENDBRANCH  17  16
ENDBRANCH  12   6
ENDBRANCH   9  12
TORSDOF 7
ENDMDL
