MODEL 1
REMARK VINA RESULT:      -6.2      0.000      0.000
REMARK  Name = 51136739
REMARK  8 active torsions:
REMARK  status: ('A' for Active; 'I' for Inactive)
REMARK    1  A    between atoms: O_1  and  C_17
REMARK    2  A    between atoms: N_6  and  C_24
REMARK    3  A    between atoms: C_7  and  C_11
REMARK    4  A    between atoms: C_8  and  C_13
REMARK    5  A    between atoms: C_11  and  C_14
REMARK    6  A    between atoms: C_13  and  C_17
REMARK    7  A    between atoms: C_23  and  C_26
REMARK    8  A    between atoms: C_24  and  C_27
REMARK                            x       y       z     vdW  Elec       q    Type
REMARK                         _______ _______ _______ _____ _____    ______ ____
ROOT
ATOM      2  O   UNL     1      -7.862 -11.580  18.766  0.00  0.00    -0.253 OA
ATOM      4  N   UNL     1      -6.325 -10.405  17.488  0.00  0.00    -0.285 N 
ATOM      6  N   UNL     1      -8.576 -10.634  16.802  0.00  0.00    -0.300 N 
ATOM      7  C   UNL     1      -4.808 -10.310  15.529  0.00  0.00    +0.016 C 
ATOM      8  C   UNL     1      -3.621 -10.626  16.477  0.00  0.00    +0.006 C 
ATOM      9  C   UNL     1      -4.081 -11.381  17.737  0.00  0.00    +0.023 C 
ATOM     10  C   UNL     1      -5.926  -9.608  16.319  0.00  0.00    +0.113 C 
ATOM     12  C   UNL     1      -5.235 -10.660  18.432  0.00  0.00    +0.109 C 
ATOM     15  C   UNL     1      -7.605 -10.915  17.756  0.00  0.00    +0.302 C 
ATOM     28  H   UNL     1      -8.350 -10.154  15.943  0.00  0.00    +0.150 HD
ENDROOT
BRANCH   6  24
ATOM     24  C   UNL     1      -9.939 -11.097  16.932  0.00  0.00    +0.102 C 
ATOM     27  C   UNL     1     -10.808 -10.587  15.802  0.00  0.00    +0.024 C 
ENDBRANCH   6  24
BRANCH   7  11
ATOM     11  C   UNL     1      -5.362 -11.535  14.792  0.00  0.00    +0.061 C 
BRANCH  11  14
ATOM      5  N   UNL     1      -7.587 -11.388  13.901  0.00  0.00    -0.287 NA
ATOM     14  C   UNL     1      -6.340 -11.097  13.729  0.00  0.00    +0.044 C 
ATOM     16  C   UNL     1      -5.830 -10.351  12.550  0.00  0.00    -0.001 A 
ATOM     18  C   UNL     1      -6.771  -9.635  11.800  0.00  0.00    -0.037 A 
ATOM     19  C   UNL     1      -8.206  -9.654  12.236  0.00  0.00    +0.059 C 
ATOM     20  C   UNL     1      -8.529 -11.015  12.840  0.00  0.00    +0.146 C 
ATOM     21  C   UNL     1      -4.479 -10.336  12.194  0.00  0.00    +0.013 A 
ATOM     22  C   UNL     1      -6.347  -8.880  10.703  0.00  0.00    +0.004 A 
ATOM     23  C   UNL     1      -4.069  -9.592  11.086  0.00  0.00    -0.050 A 
ATOM     25  C   UNL     1      -5.000  -8.864  10.344  0.00  0.00    +0.003 A 
ATOM     26  C   UNL     1      -2.630  -9.571  10.697  0.00  0.00    +0.044 C 
ENDBRANCH  11  14
ENDBRANCH   7  11
BRANCH   8  13
ATOM     13  C   UNL     1      -2.484 -11.377  15.784  0.00  0.00    +0.124 C 
BRANCH  13  17
ATOM      3  O   UNL     1      -1.487  -9.880  14.138  0.00  0.00    -0.251 OA
ATOM     17  C   UNL     1      -1.455 -10.432  15.227  0.00  0.00    +0.305 C 
BRANCH  17   1
ATOM      1  O   UNL     1      -0.451 -10.267  16.127  0.00  0.00    -0.481 OA
ATOM     29  H   UNL     1       0.380  -9.973  15.697  0.00  0.00    +0.295 HD
ENDBRANCH  17   1
ENDBRANCH  13  17
ENDBRANCH   8  13
TORSDOF 6
ENDMDL
MODEL 2
REMARK VINA RESULT:      -6.1     26.979     29.821
REMARK  Name = 51136739
REMARK  8 active torsions:
REMARK  status: ('A' for Active; 'I' for Inactive)
REMARK    1  A    between atoms: O_1  and  C_17
REMARK    2  A    between atoms: N_6  and  C_24
REMARK    3  A    between atoms: C_7  and  C_11
REMARK    4  A    between atoms: C_8  and  C_13
REMARK    5  A    between atoms: C_11  and  C_14
REMARK    6  A    between atoms: C_13  and  C_17
REMARK    7  A    between atoms: C_23  and  C_26
REMARK    8  A    between atoms: C_24  and  C_27
REMARK                            x       y       z     vdW  Elec       q    Type
REMARK                         _______ _______ _______ _____ _____    ______ ____
ROOT
ATOM      2  O   UNL     1      18.330  11.779  23.503  0.00  0.00    -0.253 OA
ATOM      4  N   UNL     1      17.606  10.615  21.633  0.00  0.00    -0.285 N 
ATOM      6  N   UNL     1      16.188  12.130  22.765  0.00  0.00    -0.300 N 
ATOM      7  C   UNL     1      16.305   8.744  20.657  0.00  0.00    +0.016 C 
ATOM      8  C   UNL     1      17.627   7.945  20.512  0.00  0.00    +0.006 C 
ATOM      9  C   UNL     1      18.688   8.408  21.527  0.00  0.00    +0.023 C 
ATOM     10  C   UNL     1      16.606  10.252  20.618  0.00  0.00    +0.113 C 
ATOM     12  C   UNL     1      18.887   9.923  21.477  0.00  0.00    +0.109 C 
ATOM     15  C   UNL     1      17.437  11.527  22.687  0.00  0.00    +0.302 C 
ATOM     28  H   UNL     1      15.435  11.870  22.143  0.00  0.00    +0.150 HD
ENDROOT
BRANCH   6  24
ATOM     24  C   UNL     1      15.858  13.084  23.799  0.00  0.00    +0.102 C 
ATOM     27  C   UNL     1      15.382  12.393  25.061  0.00  0.00    +0.024 C 
ENDBRANCH   6  24
BRANCH   7  11
ATOM     11  C   UNL     1      15.496   8.392  21.911  0.00  0.00    +0.061 C 
BRANCH  11  14
ATOM      5  N   UNL     1      13.917   6.936  20.836  0.00  0.00    -0.287 NA
ATOM     14  C   UNL     1      14.086   8.017  21.524  0.00  0.00    +0.044 C 
ATOM     16  C   UNL     1      12.968   8.895  21.955  0.00  0.00    -0.001 A 
ATOM     18  C   UNL     1      11.682   8.340  21.926  0.00  0.00    -0.037 A 
ATOM     19  C   UNL     1      11.521   6.916  21.485  0.00  0.00    +0.059 C 
ATOM     20  C   UNL     1      12.554   6.603  20.409  0.00  0.00    +0.146 C 
ATOM     21  C   UNL     1      13.163  10.209  22.385  0.00  0.00    +0.013 A 
ATOM     22  C   UNL     1      10.593   9.103  22.358  0.00  0.00    +0.004 A 
ATOM     23  C   UNL     1      12.066  10.967  22.799  0.00  0.00    -0.050 A 
ATOM     25  C   UNL     1      10.785  10.415  22.788  0.00  0.00    +0.003 A 
ATOM     26  C   UNL     1      12.265  12.372  23.260  0.00  0.00    +0.044 C 
ENDBRANCH  11  14
ENDBRANCH   7  11
BRANCH   8  13
ATOM     13  C   UNL     1      17.426   6.433  20.595  0.00  0.00    +0.124 C 
BRANCH  13  17
ATOM      3  O   UNL     1      16.216   5.926  18.540  0.00  0.00    -0.251 OA
ATOM     17  C   UNL     1      17.216   5.826  19.234  0.00  0.00    +0.305 C 
BRANCH  17   1
ATOM      1  O   UNL     1      18.323   5.130  18.869  0.00  0.00    -0.481 OA
ATOM     29  H   UNL     1      18.743   4.683  19.634  0.00  0.00    +0.295 HD
ENDBRANCH  17   1
ENDBRANCH  13  17
ENDBRANCH   8  13
TORSDOF 6
ENDMDL
MODEL 3
REMARK VINA RESULT:      -6.1      1.943      3.461
REMARK  Name = 51136739
REMARK  8 active torsions:
REMARK  status: ('A' for Active; 'I' for Inactive)
REMARK    1  A    between atoms: O_1  and  C_17
REMARK    2  A    between atoms: N_6  and  C_24
REMARK    3  A    between atoms: C_7  and  C_11
REMARK    4  A    between atoms: C_8  and  C_13
REMARK    5  A    between atoms: C_11  and  C_14
REMARK    6  A    between atoms: C_13  and  C_17
REMARK    7  A    between atoms: C_23  and  C_26
REMARK    8  A    between atoms: C_24  and  C_27
REMARK                            x       y       z     vdW  Elec       q    Type
REMARK                         _______ _______ _______ _____ _____    ______ ____
ROOT
ATOM      2  O   UNL     1      -9.779 -10.711  16.218  0.00  0.00    -0.253 OA
ATOM      4  N   UNL     1      -7.632 -10.036  16.774  0.00  0.00    -0.285 N 
ATOM      6  N   UNL     1      -8.638  -9.382  14.737  0.00  0.00    -0.300 N 
ATOM      7  C   UNL     1      -5.180 -10.289  16.508  0.00  0.00    +0.016 C 
ATOM      8  C   UNL     1      -5.155 -11.098  17.832  0.00  0.00    +0.006 C 
ATOM      9  C   UNL     1      -6.513 -11.763  18.120  0.00  0.00    +0.023 C 
ATOM     10  C   UNL     1      -6.374  -9.318  16.519  0.00  0.00    +0.113 C 
ATOM     12  C   UNL     1      -7.657 -10.753  18.051  0.00  0.00    +0.109 C 
ATOM     15  C   UNL     1      -8.754 -10.083  15.931  0.00  0.00    +0.302 C 
ATOM     28  H   UNL     1      -7.776  -8.929  14.471  0.00  0.00    +0.150 HD
ENDROOT
BRANCH   6  24
ATOM     24  C   UNL     1      -9.705  -9.343  13.763  0.00  0.00    +0.102 C 
ATOM     27  C   UNL     1      -9.619 -10.509  12.799  0.00  0.00    +0.024 C 
ENDBRANCH   6  24
BRANCH   7  11
ATOM     11  C   UNL     1      -5.208 -11.158  15.245  0.00  0.00    +0.061 C 
BRANCH  11  14
ATOM      5  N   UNL     1      -2.858 -10.910  14.818  0.00  0.00    -0.287 NA
ATOM     14  C   UNL     1      -4.054 -10.791  14.344  0.00  0.00    +0.044 C 
ATOM     16  C   UNL     1      -4.344 -10.321  12.965  0.00  0.00    -0.001 A 
ATOM     18  C   UNL     1      -3.286 -10.362  12.048  0.00  0.00    -0.037 A 
ATOM     19  C   UNL     1      -1.956 -10.883  12.505  0.00  0.00    +0.059 C 
ATOM     20  C   UNL     1      -1.740 -10.497  13.963  0.00  0.00    +0.146 C 
ATOM     21  C   UNL     1      -5.606  -9.869  12.571  0.00  0.00    +0.013 A 
ATOM     22  C   UNL     1      -3.506  -9.972  10.724  0.00  0.00    +0.004 A 
ATOM     23  C   UNL     1      -5.810  -9.466  11.251  0.00  0.00    -0.050 A 
ATOM     25  C   UNL     1      -4.764  -9.520  10.329  0.00  0.00    +0.003 A 
ATOM     26  C   UNL     1      -7.153  -8.981  10.822  0.00  0.00    +0.044 C 
ENDBRANCH  11  14
ENDBRANCH   7  11
BRANCH   8  13
ATOM     13  C   UNL     1      -4.029 -12.129  17.883  0.00  0.00    +0.124 C 
BRANCH  13  17
ATOM      3  O   UNL     1      -3.674 -12.299  20.289  0.00  0.00    -0.251 OA
ATOM     17  C   UNL     1      -3.255 -12.042  19.171  0.00  0.00    +0.305 C 
BRANCH  17   1
ATOM      1  O   UNL     1      -1.987 -11.629  18.915  0.00  0.00    -0.481 OA
ATOM     29  H   UNL     1      -1.972 -10.811  18.375  0.00  0.00    +0.295 HD
ENDBRANCH  17   1
ENDBRANCH  13  17
ENDBRANCH   8  13
TORSDOF 6
ENDMDL
MODEL 4
REMARK VINA RESULT:      -5.8      1.558      2.052
REMARK  Name = 51136739
REMARK  8 active torsions:
REMARK  status: ('A' for Active; 'I' for Inactive)
REMARK    1  A    between atoms: O_1  and  C_17
REMARK    2  A    between atoms: N_6  and  C_24
REMARK    3  A    between atoms: C_7  and  C_11
REMARK    4  A    between atoms: C_8  and  C_13
REMARK    5  A    between atoms: C_11  and  C_14
REMARK    6  A    between atoms: C_13  and  C_17
REMARK    7  A    between atoms: C_23  and  C_26
REMARK    8  A    between atoms: C_24  and  C_27
REMARK                            x       y       z     vdW  Elec       q    Type
REMARK                         _______ _______ _______ _____ _____    ______ ____
ROOT
ATOM      2  O   UNL     1      -9.279 -11.062  18.608  0.00  0.00    -0.253 OA
ATOM      4  N   UNL     1      -7.360 -10.112  17.720  0.00  0.00    -0.285 N 
ATOM      6  N   UNL     1      -9.486  -9.705  16.771  0.00  0.00    -0.300 N 
ATOM      7  C   UNL     1      -5.596 -10.099  15.978  0.00  0.00    +0.016 C 
ATOM      8  C   UNL     1      -4.651 -10.817  16.978  0.00  0.00    +0.006 C 
ATOM      9  C   UNL     1      -5.437 -11.614  18.035  0.00  0.00    +0.023 C 
ATOM     10  C   UNL     1      -6.636  -9.273  16.753  0.00  0.00    +0.113 C 
ATOM     12  C   UNL     1      -6.495 -10.747  18.717  0.00  0.00    +0.109 C 
ATOM     15  C   UNL     1      -8.744 -10.340  17.759  0.00  0.00    +0.302 C 
ATOM     28  H   UNL     1      -9.042  -9.175  16.034  0.00  0.00    +0.150 HD
ENDROOT
BRANCH   6  24
ATOM     24  C   UNL     1     -10.921  -9.849  16.674  0.00  0.00    +0.102 C 
ATOM     27  C   UNL     1     -11.641  -8.761  17.445  0.00  0.00    +0.024 C 
ENDBRANCH   6  24
BRANCH   7  11
ATOM     11  C   UNL     1      -6.290 -11.042  14.988  0.00  0.00    +0.061 C 
BRANCH  11  14
ATOM      5  N   UNL     1      -7.039  -9.604  13.216  0.00  0.00    -0.287 NA
ATOM     14  C   UNL     1      -6.176 -10.491  13.587  0.00  0.00    +0.044 C 
ATOM     16  C   UNL     1      -5.082 -10.983  12.711  0.00  0.00    -0.001 A 
ATOM     18  C   UNL     1      -4.765 -10.199  11.595  0.00  0.00    -0.037 A 
ATOM     19  C   UNL     1      -5.527  -8.928  11.368  0.00  0.00    +0.059 C 
ATOM     20  C   UNL     1      -6.965  -9.113  11.836  0.00  0.00    +0.146 C 
ATOM     21  C   UNL     1      -4.377 -12.161  12.973  0.00  0.00    +0.013 A 
ATOM     22  C   UNL     1      -3.718 -10.588  10.754  0.00  0.00    +0.004 A 
ATOM     23  C   UNL     1      -3.344 -12.547  12.118  0.00  0.00    -0.050 A 
ATOM     25  C   UNL     1      -3.013 -11.762  11.013  0.00  0.00    +0.003 A 
ATOM     26  C   UNL     1      -2.586 -13.804  12.389  0.00  0.00    +0.044 C 
ENDBRANCH  11  14
ENDBRANCH   7  11
BRANCH   8  13
ATOM     13  C   UNL     1      -3.616 -11.707  16.292  0.00  0.00    +0.124 C 
BRANCH  13  17
ATOM      3  O   UNL     1      -2.198 -10.295  14.899  0.00  0.00    -0.251 OA
ATOM     17  C   UNL     1      -2.378 -10.935  15.923  0.00  0.00    +0.305 C 
BRANCH  17   1
ATOM      1  O   UNL     1      -1.457 -11.048  16.915  0.00  0.00    -0.481 OA
ATOM     29  H   UNL     1      -1.280 -11.985  17.144  0.00  0.00    +0.295 HD
ENDBRANCH  17   1
ENDBRANCH  13  17
ENDBRANCH   8  13
TORSDOF 6
ENDMDL
MODEL 5
REMARK VINA RESULT:      -5.8      1.765      5.274
REMARK  Name = 51136739
REMARK  8 active torsions:
REMARK  status: ('A' for Active; 'I' for Inactive)
REMARK    1  A    between atoms: O_1  and  C_17
REMARK    2  A    between atoms: N_6  and  C_24
REMARK    3  A    between atoms: C_7  and  C_11
REMARK    4  A    between atoms: C_8  and  C_13
REMARK    5  A    between atoms: C_11  and  C_14
REMARK    6  A    between atoms: C_13  and  C_17
REMARK    7  A    between atoms: C_23  and  C_26
REMARK    8  A    between atoms: C_24  and  C_27
REMARK                            x       y       z     vdW  Elec       q    Type
REMARK                         _______ _______ _______ _____ _____    ______ ____
ROOT
ATOM      2  O   UNL     1      -2.935 -10.352  13.177  0.00  0.00    -0.253 OA
ATOM      4  N   UNL     1      -4.386 -11.351  14.685  0.00  0.00    -0.285 N 
ATOM      6  N   UNL     1      -5.139 -10.575  12.582  0.00  0.00    -0.300 N 
ATOM      7  C   UNL     1      -6.165 -11.132  16.397  0.00  0.00    +0.016 C 
ATOM      8  C   UNL     1      -5.081 -11.295  17.495  0.00  0.00    +0.006 C 
ATOM      9  C   UNL     1      -3.691 -10.863  16.993  0.00  0.00    +0.023 C 
ATOM     10  C   UNL     1      -5.707 -11.838  15.110  0.00  0.00    +0.113 C 
ATOM     12  C   UNL     1      -3.330 -11.555  15.679  0.00  0.00    +0.109 C 
ATOM     15  C   UNL     1      -4.075 -10.736  13.461  0.00  0.00    +0.302 C 
ATOM     28  H   UNL     1      -6.083 -10.822  12.843  0.00  0.00    +0.150 HD
ENDROOT
BRANCH   6  24
ATOM     24  C   UNL     1      -4.979  -9.952  11.288  0.00  0.00    +0.102 C 
ATOM     27  C   UNL     1      -5.644  -8.592  11.240  0.00  0.00    +0.024 C 
ENDBRANCH   6  24
BRANCH   7  11
ATOM     11  C   UNL     1      -6.543  -9.676  16.103  0.00  0.00    +0.061 C 
BRANCH  11  14
ATOM      5  N   UNL     1      -8.477  -9.335  17.486  0.00  0.00    -0.287 NA
ATOM     14  C   UNL     1      -8.029  -9.484  16.283  0.00  0.00    +0.044 C 
ATOM     16  C   UNL     1      -8.900  -9.468  15.080  0.00  0.00    -0.001 A 
ATOM     18  C   UNL     1     -10.177  -8.914  15.232  0.00  0.00    -0.037 A 
ATOM     19  C   UNL     1     -10.572  -8.369  16.572  0.00  0.00    +0.059 C 
ATOM     20  C   UNL     1      -9.927  -9.209  17.666  0.00  0.00    +0.146 C 
ATOM     21  C   UNL     1      -8.485  -9.963  13.841  0.00  0.00    +0.013 A 
ATOM     22  C   UNL     1     -11.030  -8.834  14.127  0.00  0.00    +0.004 A 
ATOM     23  C   UNL     1      -9.349  -9.892  12.748  0.00  0.00    -0.050 A 
ATOM     25  C   UNL     1     -10.617  -9.326  12.889  0.00  0.00    +0.003 A 
ATOM     26  C   UNL     1      -8.915 -10.418  11.422  0.00  0.00    +0.044 C 
ENDBRANCH  11  14
ENDBRANCH   7  11
BRANCH   8  13
ATOM     13  C   UNL     1      -5.431 -10.575  18.796  0.00  0.00    +0.124 C 
BRANCH  13  17
ATOM      3  O   UNL     1      -6.785 -12.439  19.595  0.00  0.00    -0.251 OA
ATOM     17  C   UNL     1      -6.581 -11.238  19.505  0.00  0.00    +0.305 C 
BRANCH  17   1
ATOM      1  O   UNL     1      -7.388 -10.292  20.051  0.00  0.00    -0.481 OA
ATOM     29  H   UNL     1      -7.191  -9.398  19.701  0.00  0.00    +0.295 HD
ENDBRANCH  17   1
ENDBRANCH  13  17
ENDBRANCH   8  13
TORSDOF 6
ENDMDL
MODEL 6
REMARK VINA RESULT:      -5.7      2.133      4.481
REMARK  Name = 51136739
REMARK  8 active torsions:
REMARK  status: ('A' for Active; 'I' for Inactive)
REMARK    1  A    between atoms: O_1  and  C_17
REMARK    2  A    between atoms: N_6  and  C_24
REMARK    3  A    between atoms: C_7  and  C_11
REMARK    4  A    between atoms: C_8  and  C_13
REMARK    5  A    between atoms: C_11  and  C_14
REMARK    6  A    between atoms: C_13  and  C_17
REMARK    7  A    between atoms: C_23  and  C_26
REMARK    8  A    between atoms: C_24  and  C_27
REMARK                            x       y       z     vdW  Elec       q    Type
REMARK                         _______ _______ _______ _____ _____    ______ ____
ROOT
ATOM      2  O   UNL     1     -10.145 -11.251  13.894  0.00  0.00    -0.253 OA
ATOM      4  N   UNL     1      -8.653 -10.470  15.487  0.00  0.00    -0.285 N 
ATOM      6  N   UNL     1      -8.406  -9.928  13.199  0.00  0.00    -0.300 N 
ATOM      7  C   UNL     1      -6.445 -10.632  16.602  0.00  0.00    +0.016 C 
ATOM      8  C   UNL     1      -7.128 -11.394  17.769  0.00  0.00    +0.006 C 
ATOM      9  C   UNL     1      -8.416 -12.104  17.310  0.00  0.00    +0.023 C 
ATOM     10  C   UNL     1      -7.469  -9.712  15.917  0.00  0.00    +0.113 C 
ATOM     12  C   UNL     1      -9.355 -11.144  16.582  0.00  0.00    +0.109 C 
ATOM     15  C   UNL     1      -9.138 -10.592  14.176  0.00  0.00    +0.302 C 
ATOM     28  H   UNL     1      -7.543  -9.451  13.419  0.00  0.00    +0.150 HD
ENDROOT
BRANCH   6  24
ATOM     24  C   UNL     1      -8.774  -9.966  11.802  0.00  0.00    +0.102 C 
ATOM     27  C   UNL     1      -8.293 -11.239  11.136  0.00  0.00    +0.024 C 
ENDBRANCH   6  24
BRANCH   7  11
ATOM     11  C   UNL     1      -5.770 -11.544  15.571  0.00  0.00    +0.061 C 
BRANCH  11  14
ATOM      5  N   UNL     1      -3.568 -11.157  16.446  0.00  0.00    -0.287 NA
ATOM     14  C   UNL     1      -4.325 -11.144  15.399  0.00  0.00    +0.044 C 
ATOM     16  C   UNL     1      -3.843 -10.766  14.046  0.00  0.00    -0.001 A 
ATOM     18  C   UNL     1      -2.457 -10.780  13.842  0.00  0.00    -0.037 A 
ATOM     19  C   UNL     1      -1.566 -11.183  14.979  0.00  0.00    +0.059 C 
ATOM     20  C   UNL     1      -2.179 -10.711  16.291  0.00  0.00    +0.146 C 
ATOM     21  C   UNL     1      -4.709 -10.422  13.005  0.00  0.00    +0.013 A 
ATOM     22  C   UNL     1      -1.943 -10.473  12.580  0.00  0.00    +0.004 A 
ATOM     23  C   UNL     1      -4.183 -10.102  11.752  0.00  0.00    -0.050 A 
ATOM     25  C   UNL     1      -2.805 -10.130  11.539  0.00  0.00    +0.003 A 
ATOM     26  C   UNL     1      -5.100  -9.733  10.635  0.00  0.00    +0.044 C 
ENDBRANCH  11  14
ENDBRANCH   7  11
BRANCH   8  13
ATOM     13  C   UNL     1      -6.193 -12.376  18.473  0.00  0.00    +0.124 C 
BRANCH  13  17
ATOM      3  O   UNL     1      -5.944 -11.134  20.556  0.00  0.00    -0.251 OA
ATOM     17  C   UNL     1      -5.451 -11.720  19.605  0.00  0.00    +0.305 C 
BRANCH  17   1
ATOM      1  O   UNL     1      -4.113 -11.871  19.422  0.00  0.00    -0.481 OA
ATOM     29  H   UNL     1      -3.817 -12.783  19.630  0.00  0.00    +0.295 HD
ENDBRANCH  17   1
ENDBRANCH  13  17
ENDBRANCH   8  13
TORSDOF 6
ENDMDL
MODEL 7
REMARK VINA RESULT:      -5.6     23.184     26.342
REMARK  Name = 51136739
REMARK  8 active torsions:
REMARK  status: ('A' for Active; 'I' for Inactive)
REMARK    1  A    between atoms: O_1  and  C_17
REMARK    2  A    between atoms: N_6  and  C_24
REMARK    3  A    between atoms: C_7  and  C_11
REMARK    4  A    between atoms: C_8  and  C_13
REMARK    5  A    between atoms: C_11  and  C_14
REMARK    6  A    between atoms: C_13  and  C_17
REMARK    7  A    between atoms: C_23  and  C_26
REMARK    8  A    between atoms: C_24  and  C_27
REMARK                            x       y       z     vdW  Elec       q    Type
REMARK                         _______ _______ _______ _____ _____    ______ ____
ROOT
ATOM      2  O   UNL     1      10.056  11.303   5.903  0.00  0.00    -0.253 OA
ATOM      4  N   UNL     1      10.929   9.188   6.276  0.00  0.00    -0.285 N 
ATOM      6  N   UNL     1      11.207  10.285   4.200  0.00  0.00    -0.300 N 
ATOM      7  C   UNL     1      10.778   6.733   5.966  0.00  0.00    +0.016 C 
ATOM      8  C   UNL     1      10.183   6.624   7.394  0.00  0.00    +0.006 C 
ATOM      9  C   UNL     1       9.493   7.931   7.827  0.00  0.00    +0.023 C 
ATOM     10  C   UNL     1      11.669   7.983   5.872  0.00  0.00    +0.113 C 
ATOM     12  C   UNL     1      10.414   9.136   7.646  0.00  0.00    +0.109 C 
ATOM     15  C   UNL     1      10.690  10.326   5.490  0.00  0.00    +0.302 C 
ATOM     28  H   UNL     1      11.661   9.459   3.838  0.00  0.00    +0.150 HD
ENDROOT
BRANCH   6  24
ATOM     24  C   UNL     1      11.036  11.377   3.269  0.00  0.00    +0.102 C 
ATOM     27  C   UNL     1      12.359  11.809   2.671  0.00  0.00    +0.024 C 
ENDBRANCH   6  24
BRANCH   7  11
ATOM     11  C   UNL     1       9.726   6.740   4.850  0.00  0.00    +0.061 C 
BRANCH  11  14
ATOM      5  N   UNL     1      10.760   4.779   3.926  0.00  0.00    -0.287 NA
ATOM     14  C   UNL     1      10.215   5.925   3.678  0.00  0.00    +0.044 C 
ATOM     16  C   UNL     1      10.043   6.468   2.306  0.00  0.00    -0.001 A 
ATOM     18  C   UNL     1      10.141   5.555   1.248  0.00  0.00    -0.037 A 
ATOM     19  C   UNL     1      10.394   4.111   1.564  0.00  0.00    +0.059 C 
ATOM     20  C   UNL     1      11.289   4.014   2.792  0.00  0.00    +0.146 C 
ATOM     21  C   UNL     1       9.782   7.817   2.056  0.00  0.00    +0.013 A 
ATOM     22  C   UNL     1       9.949   5.997  -0.064  0.00  0.00    +0.004 A 
ATOM     23  C   UNL     1       9.607   8.250   0.741  0.00  0.00    -0.050 A 
ATOM     25  C   UNL     1       9.687   7.343  -0.316  0.00  0.00    +0.003 A 
ATOM     26  C   UNL     1       9.328   9.689   0.464  0.00  0.00    +0.044 C 
ENDBRANCH  11  14
ENDBRANCH   7  11
BRANCH   8  13
ATOM     13  C   UNL     1       9.237   5.435   7.561  0.00  0.00    +0.124 C 
BRANCH  13  17
ATOM      3  O   UNL     1       9.085   4.629   9.857  0.00  0.00    -0.251 OA
ATOM     17  C   UNL     1       9.607   4.595   8.753  0.00  0.00    +0.305 C 
BRANCH  17   1
ATOM      1  O   UNL     1      10.631   3.765   8.427  0.00  0.00    -0.481 OA
ATOM     29  H   UNL     1      10.592   2.924   8.929  0.00  0.00    +0.295 HD
ENDBRANCH  17   1
ENDBRANCH  13  17
ENDBRANCH   8  13
TORSDOF 6
ENDMDL
MODEL 8
REMARK VINA RESULT:      -5.6     21.190     23.919
REMARK  Name = 51136739
REMARK  8 active torsions:
REMARK  status: ('A' for Active; 'I' for Inactive)
REMARK    1  A    between atoms: O_1  and  C_17
REMARK    2  A    between atoms: N_6  and  C_24
REMARK    3  A    between atoms: C_7  and  C_11
REMARK    4  A    between atoms: C_8  and  C_13
REMARK    5  A    between atoms: C_11  and  C_14
REMARK    6  A    between atoms: C_13  and  C_17
REMARK    7  A    between atoms: C_23  and  C_26
REMARK    8  A    between atoms: C_24  and  C_27
REMARK                            x       y       z     vdW  Elec       q    Type
REMARK                         _______ _______ _______ _____ _____    ______ ____
ROOT
ATOM      2  O   UNL     1      -1.029  11.955   7.594  0.00  0.00    -0.253 OA
ATOM      4  N   UNL     1      -1.399  10.069   6.296  0.00  0.00    -0.285 N 
ATOM      6  N   UNL     1       0.302  11.619   5.757  0.00  0.00    -0.300 N 
ATOM      7  C   UNL     1      -2.343   9.042   4.247  0.00  0.00    +0.016 C 
ATOM      8  C   UNL     1      -3.564   8.576   5.084  0.00  0.00    +0.006 C 
ATOM      9  C   UNL     1      -3.785   9.471   6.318  0.00  0.00    +0.023 C 
ATOM     10  C   UNL     1      -1.113   9.180   5.161  0.00  0.00    +0.113 C 
ATOM     12  C   UNL     1      -2.506   9.615   7.142  0.00  0.00    +0.109 C 
ATOM     15  C   UNL     1      -0.728  11.260   6.618  0.00  0.00    +0.302 C 
ATOM     28  H   UNL     1       0.501  11.091   4.919  0.00  0.00    +0.150 HD
ENDROOT
BRANCH   6  24
ATOM     24  C   UNL     1       1.081  12.822   5.950  0.00  0.00    +0.102 C 
ATOM     27  C   UNL     1       2.497  12.503   6.381  0.00  0.00    +0.024 C 
ENDBRANCH   6  24
BRANCH   7  11
ATOM     11  C   UNL     1      -2.579  10.340   3.467  0.00  0.00    +0.061 C 
BRANCH  11  14
ATOM      5  N   UNL     1      -0.948  10.003   1.737  0.00  0.00    -0.287 NA
ATOM     14  C   UNL     1      -2.201  10.146   2.019  0.00  0.00    +0.044 C 
ATOM     16  C   UNL     1      -3.278  10.119   0.995  0.00  0.00    -0.001 A 
ATOM     18  C   UNL     1      -2.953   9.562  -0.248  0.00  0.00    -0.037 A 
ATOM     19  C   UNL     1      -1.569   9.024  -0.458  0.00  0.00    +0.059 C 
ATOM     20  C   UNL     1      -0.576   9.874   0.324  0.00  0.00    +0.146 C 
ATOM     21  C   UNL     1      -4.564  10.606   1.240  0.00  0.00    +0.013 A 
ATOM     22  C   UNL     1      -3.934   9.471  -1.240  0.00  0.00    +0.004 A 
ATOM     23  C   UNL     1      -5.531  10.525   0.237  0.00  0.00    -0.050 A 
ATOM     25  C   UNL     1      -5.219   9.957  -0.998  0.00  0.00    +0.003 A 
ATOM     26  C   UNL     1      -6.907  11.044   0.489  0.00  0.00    +0.044 C 
ENDBRANCH  11  14
ENDBRANCH   7  11
BRANCH   8  13
ATOM     13  C   UNL     1      -4.847   8.465   4.263  0.00  0.00    +0.124 C 
BRANCH  13  17
ATOM      3  O   UNL     1      -6.820   7.061   4.544  0.00  0.00    -0.251 OA
ATOM     17  C   UNL     1      -5.609   7.210   4.591  0.00  0.00    +0.305 C 
BRANCH  17   1
ATOM      1  O   UNL     1      -4.741   6.231   4.957  0.00  0.00    -0.481 OA
ATOM     29  H   UNL     1      -4.080   6.048   4.255  0.00  0.00    +0.295 HD
ENDBRANCH  17   1
ENDBRANCH  13  17
ENDBRANCH   8  13
TORSDOF 6
ENDMDL
MODEL 9
REMARK VINA RESULT:      -5.6      2.071      5.765
REMARK  Name = 51136739
REMARK  8 active torsions:
REMARK  status: ('A' for Active; 'I' for Inactive)
REMARK    1  A    between atoms: O_1  and  C_17
REMARK    2  A    between atoms: N_6  and  C_24
REMARK    3  A    between atoms: C_7  and  C_11
REMARK    4  A    between atoms: C_8  and  C_13
REMARK    5  A    between atoms: C_11  and  C_14
REMARK    6  A    between atoms: C_13  and  C_17
REMARK    7  A    between atoms: C_23  and  C_26
REMARK    8  A    between atoms: C_24  and  C_27
REMARK                            x       y       z     vdW  Elec       q    Type
REMARK                         _______ _______ _______ _____ _____    ______ ____
ROOT
ATOM      2  O   UNL     1      -1.447  -9.865  12.196  0.00  0.00    -0.253 OA
ATOM      4  N   UNL     1      -2.763 -11.212  13.548  0.00  0.00    -0.285 N 
ATOM      6  N   UNL     1      -3.586 -10.333  11.514  0.00  0.00    -0.300 N 
ATOM      7  C   UNL     1      -4.582 -11.430  15.218  0.00  0.00    +0.016 C 
ATOM      8  C   UNL     1      -3.503 -11.552  16.326  0.00  0.00    +0.006 C 
ATOM      9  C   UNL     1      -2.182 -10.878  15.914  0.00  0.00    +0.023 C 
ATOM     10  C   UNL     1      -4.006 -11.924  13.880  0.00  0.00    +0.113 C 
ATOM     12  C   UNL     1      -1.705 -11.369  14.548  0.00  0.00    +0.109 C 
ATOM     15  C   UNL     1      -2.524 -10.434  12.404  0.00  0.00    +0.302 C 
ATOM     28  H   UNL     1      -4.489 -10.737  11.718  0.00  0.00    +0.150 HD
ENDROOT
BRANCH   6  24
ATOM     24  C   UNL     1      -3.497  -9.560  10.295  0.00  0.00    +0.102 C 
ATOM     27  C   UNL     1      -4.751  -8.744  10.063  0.00  0.00    +0.024 C 
ENDBRANCH   6  24
BRANCH   7  11
ATOM     11  C   UNL     1      -5.161 -10.018  15.063  0.00  0.00    +0.061 C 
BRANCH  11  14
ATOM      5  N   UNL     1      -6.818  -9.794  13.339  0.00  0.00    -0.287 NA
ATOM     14  C   UNL     1      -6.587 -10.098  14.574  0.00  0.00    +0.044 C 
ATOM     16  C   UNL     1      -7.647 -10.527  15.522  0.00  0.00    -0.001 A 
ATOM     18  C   UNL     1      -8.856 -10.960  14.964  0.00  0.00    -0.037 A 
ATOM     19  C   UNL     1      -8.996 -10.978  13.471  0.00  0.00    +0.059 C 
ATOM     20  C   UNL     1      -8.210  -9.814  12.879  0.00  0.00    +0.146 C 
ATOM     21  C   UNL     1      -7.467 -10.521  16.908  0.00  0.00    +0.013 A 
ATOM     22  C   UNL     1      -9.878 -11.414  15.802  0.00  0.00    +0.004 A 
ATOM     23  C   UNL     1      -8.500 -10.962  17.736  0.00  0.00    -0.050 A 
ATOM     25  C   UNL     1      -9.701 -11.410  17.186  0.00  0.00    +0.003 A 
ATOM     26  C   UNL     1      -8.318 -10.959  19.216  0.00  0.00    +0.044 C 
ENDBRANCH  11  14
ENDBRANCH   7  11
BRANCH   8  13
ATOM     13  C   UNL     1      -3.975 -11.030  17.683  0.00  0.00    +0.124 C 
BRANCH  13  17
ATOM      3  O   UNL     1      -5.183 -12.921  18.636  0.00  0.00    -0.251 OA
ATOM     17  C   UNL     1      -4.233 -12.153  18.650  0.00  0.00    +0.305 C 
BRANCH  17   1
ATOM      1  O   UNL     1      -3.235 -12.202  19.570  0.00  0.00    -0.481 OA
ATOM     29  H   UNL     1      -3.570 -12.449  20.458  0.00  0.00    +0.295 HD
ENDBRANCH  17   1
ENDBRANCH  13  17
ENDBRANCH   8  13
TORSDOF 6
ENDMDL
MODEL 10
REMARK VINA RESULT:      -5.6     23.205     25.955
REMARK  Name = 51136739
REMARK  8 active torsions:
REMARK  status: ('A' for Active; 'I' for Inactive)
REMARK    1  A    between atoms: O_1  and  C_17
REMARK    2  A    between atoms: N_6  and  C_24
REMARK    3  A    between atoms: C_7  and  C_11
REMARK    4  A    between atoms: C_8  and  C_13
REMARK    5  A    between atoms: C_11  and  C_14
REMARK    6  A    between atoms: C_13  and  C_17
REMARK    7  A    between atoms: C_23  and  C_26
REMARK    8  A    between atoms: C_24  and  C_27
REMARK                            x       y       z     vdW  Elec       q    Type
REMARK                         _______ _______ _______ _____ _____    ______ ____
ROOT
ATOM      2  O   UNL     1       8.659  11.759   7.142  0.00  0.00    -0.253 OA
ATOM      4  N   UNL     1       9.775   9.775   6.705  0.00  0.00    -0.285 N 
ATOM      6  N   UNL     1       9.074  11.203   4.957  0.00  0.00    -0.300 N 
ATOM      7  C   UNL     1       9.708   7.402   5.990  0.00  0.00    +0.016 C 
ATOM      8  C   UNL     1       9.772   6.986   7.483  0.00  0.00    +0.006 C 
ATOM      9  C   UNL     1       9.222   8.088   8.407  0.00  0.00    +0.023 C 
ATOM     10  C   UNL     1      10.375   8.776   5.807  0.00  0.00    +0.113 C 
ATOM     12  C   UNL     1       9.884   9.436   8.125  0.00  0.00    +0.109 C 
ATOM     15  C   UNL     1       9.140  10.967   6.324  0.00  0.00    +0.302 C 
ATOM     28  H   UNL     1       9.402  10.523   4.286  0.00  0.00    +0.150 HD
ENDROOT
BRANCH   6  24
ATOM     24  C   UNL     1       8.444  12.383   4.409  0.00  0.00    +0.102 C 
ATOM     27  C   UNL     1       8.893  12.643   2.986  0.00  0.00    +0.024 C 
ENDBRANCH   6  24
BRANCH   7  11
ATOM     11  C   UNL     1       8.290   7.413   5.405  0.00  0.00    +0.061 C 
BRANCH  11  14
ATOM      5  N   UNL     1       7.577   8.825   3.598  0.00  0.00    -0.287 NA
ATOM     14  C   UNL     1       8.335   7.842   3.958  0.00  0.00    +0.044 C 
ATOM     16  C   UNL     1       9.245   7.127   3.027  0.00  0.00    -0.001 A 
ATOM     18  C   UNL     1       9.553   7.775   1.824  0.00  0.00    -0.037 A 
ATOM     19  C   UNL     1       8.966   9.131   1.564  0.00  0.00    +0.059 C 
ATOM     20  C   UNL     1       7.575   9.203   2.181  0.00  0.00    +0.146 C 
ATOM     21  C   UNL     1       9.792   5.876   3.319  0.00  0.00    +0.013 A 
ATOM     22  C   UNL     1      10.435   7.172   0.923  0.00  0.00    +0.004 A 
ATOM     23  C   UNL     1      10.660   5.276   2.405  0.00  0.00    -0.050 A 
ATOM     25  C   UNL     1      10.983   5.923   1.212  0.00  0.00    +0.003 A 
ATOM     26  C   UNL     1      11.249   3.939   2.708  0.00  0.00    +0.044 C 
ENDBRANCH  11  14
ENDBRANCH   7  11
BRANCH   8  13
ATOM     13  C   UNL     1       9.081   5.653   7.764  0.00  0.00    +0.124 C 
BRANCH  13  17
ATOM      3  O   UNL     1      10.272   5.080   9.813  0.00  0.00    -0.251 OA
ATOM     17  C   UNL     1       9.897   4.789   8.688  0.00  0.00    +0.305 C 
BRANCH  17   1
ATOM      1  O   UNL     1      10.168   3.603   8.084  0.00  0.00    -0.481 OA
ATOM     29  H   UNL     1      11.104   3.545   7.798  0.00  0.00    +0.295 HD
ENDBRANCH  17   1
ENDBRANCH  13  17
ENDBRANCH   8  13
TORSDOF 6
ENDMDL
