REMARK  Name = 51138073
REMARK  13 active torsions:
REMARK  status: ('A' for Active; 'I' for Inactive)
REMARK    1  A    between atoms: N_3  and  C_22
REMARK    2  A    between atoms: N_4  and  C_23
REMARK    3  A    between atoms: N_5  and  C_24
REMARK    4  A    between atoms: N_5  and  C_27
REMARK    5  A    between atoms: N_5  and  C_28
REMARK    6  A    between atoms: C_6  and  C_10
REMARK    7  A    between atoms: C_8  and  C_17
REMARK    8  A    between atoms: C_10  and  C_13
REMARK    9  A    between atoms: C_13  and  C_20
REMARK   10  A    between atoms: C_13  and  C_21
REMARK   11  A    between atoms: C_22  and  C_25
REMARK   12  A    between atoms: C_23  and  C_24
REMARK   13  A    between atoms: C_26  and  C_29
REMARK                            x       y       z     vdW  Elec       q    Type
REMARK                         _______ _______ _______ _____ _____    ______ ____
ROOT
ATOM      2  N   UNL     1      -1.023   0.601   0.541  0.00  0.00    -0.299 NA
ATOM      3  N   UNL     1       3.814  -0.801   0.922  0.00  0.00    -0.335 N 
ATOM      6  C   UNL     1      -0.257   1.606  -0.208  0.00  0.00    +0.085 C 
ATOM      7  C   UNL     1       1.268   1.508  -0.092  0.00  0.00    -0.021 A 
ATOM      8  C   UNL     1      -0.820  -0.772   0.099  0.00  0.00    +0.145 C 
ATOM      9  C   UNL     1       1.984   0.369   0.377  0.00  0.00    +0.008 A 
ATOM     11  C   UNL     1       0.215  -1.492   0.961  0.00  0.00    +0.065 C 
ATOM     12  C   UNL     1       1.595  -0.936   0.839  0.00  0.00    -0.020 A 
ATOM     14  C   UNL     1       3.382   0.404   0.421  0.00  0.00    +0.050 A 
ATOM     15  C   UNL     1       2.749  -1.616   1.171  0.00  0.00    +0.091 A 
ATOM     16  C   UNL     1       2.054   2.595  -0.554  0.00  0.00    +0.006 A 
ATOM     18  C   UNL     1       4.138   1.502   0.005  0.00  0.00    +0.026 A 
ATOM     19  C   UNL     1       3.447   2.597  -0.497  0.00  0.00    +0.002 A 
ATOM     30  H   UNL     1      -0.862   0.693   1.543  0.00  0.00    +0.123 HD
ENDROOT
BRANCH   8  17
ATOM      1  O   UNL     1      -2.459  -2.013   1.311  0.00  0.00    -0.274 OA
ATOM      4  N   UNL     1      -2.935  -1.343  -0.867  0.00  0.00    -0.313 N 
ATOM     17  C   UNL     1      -2.150  -1.440   0.270  0.00  0.00    +0.230 C 
ATOM     31  H   UNL     1      -2.587  -0.830  -1.672  0.00  0.00    +0.149 HD
BRANCH   4  23
ATOM     23  C   UNL     1      -4.254  -1.924  -0.969  0.00  0.00    +0.119 C 
BRANCH  23  24
ATOM     24  C   UNL     1      -5.324  -0.943  -0.514  0.00  0.00    +0.102 C 
BRANCH  24   5
ATOM      5  N   UNL     1      -6.648  -1.538  -0.651  0.00  0.00    -0.307 NA
ATOM     27  C   UNL     1      -6.922  -2.451   0.460  0.00  0.00    +0.104 C 
ATOM     28  C   UNL     1      -7.676  -0.498  -0.719  0.00  0.00    +0.104 C 
ENDBRANCH  24   5
ENDBRANCH  23  24
ENDBRANCH   4  23
ENDBRANCH   8  17
BRANCH   6  10
ATOM     10  C   UNL     1      -0.801   2.958   0.287  0.00  0.00    +0.026 C 
BRANCH  10  13
ATOM     13  C   UNL     1      -2.166   3.309  -0.312  0.00  0.00    -0.015 C 
ATOM     20  C   UNL     1      -2.598   4.688   0.191  0.00  0.00    +0.007 C 
ATOM     21  C   UNL     1      -3.241   2.275   0.026  0.00  0.00    +0.007 C 
ENDBRANCH  10  13
ENDBRANCH   6  10
BRANCH   3  22
ATOM     22  C   UNL     1       5.194  -1.177   1.141  0.00  0.00    +0.210 C 
BRANCH  22  25
ATOM     25  C   UNL     1       5.877  -1.521  -0.113  0.00  0.00    -0.081 C 
ATOM     26  C   UNL     1       6.437  -1.802  -1.138  0.00  0.00    -0.104 C 
ATOM     29  C   UNL     1       7.118  -2.144  -2.386  0.00  0.00    +0.106 C 
ENDBRANCH  22  25
ENDBRANCH   3  22
TORSDOF 8
