MODEL 1
REMARK VINA RESULT:      -7.0      0.000      0.000
REMARK  Name = 56774933
REMARK  11 active torsions:
REMARK  status: ('A' for Active; 'I' for Inactive)
REMARK    1  A    between atoms: O_2  and  C_10
REMARK    2  A    between atoms: O_3  and  C_16
REMARK    3  A    between atoms: O_3  and  C_22
REMARK    4  A    between atoms: N_6  and  C_12
REMARK    5  A    between atoms: N_7  and  C_21
REMARK    6  A    between atoms: N_8  and  C_25
REMARK    7  A    between atoms: C_9  and  C_10
REMARK    8  A    between atoms: C_10  and  C_14
REMARK    9  A    between atoms: C_12  and  C_16
REMARK   10  A    between atoms: C_22  and  C_23
REMARK   11  A    between atoms: C_25  and  C_26
REMARK                            x       y       z     vdW  Elec       q    Type
REMARK                         _______ _______ _______ _____ _____    ______ ____
ROOT
ATOM     10  C   UNL     1      14.574   6.746  19.772  0.00  0.00    +0.167 C 
ENDROOT
BRANCH  10   9
ATOM      1  O   UNL     1      13.352   7.724  17.289  0.00  0.00    -0.369 OA
ATOM      4  O   UNL     1      10.563   8.389  19.485  0.00  0.00    -0.273 OA
ATOM      6  N   UNL     1      12.844   8.497  19.935  0.00  0.00    -0.289 N 
ATOM      9  C   UNL     1      14.205   8.202  19.470  0.00  0.00    +0.135 C 
ATOM     11  C   UNL     1      14.323   8.501  17.981  0.00  0.00    +0.185 C 
ATOM     13  C   UNL     1      11.735   8.326  19.109  0.00  0.00    +0.242 C 
ATOM     15  C   UNL     1      12.045   8.129  17.630  0.00  0.00    +0.255 C 
BRANCH   6  12
ATOM     12  C   UNL     1      12.667   8.803  21.350  0.00  0.00    +0.136 C 
BRANCH  12  16
ATOM     16  C   UNL     1      12.756  10.295  21.613  0.00  0.00    +0.178 C 
BRANCH  16   3
ATOM      3  O   UNL     1      11.455  10.865  21.545  0.00  0.00    -0.378 OA
BRANCH   3  22
ATOM     22  C   UNL     1      11.237  11.793  22.599  0.00  0.00    +0.156 C 
ATOM     23  C   UNL     1      10.943  11.032  23.874  0.00  0.00    +0.034 C 
ENDBRANCH   3  22
ENDBRANCH  16   3
ENDBRANCH  12  16
ENDBRANCH   6  12
ENDBRANCH  10   9
BRANCH  10  14
ATOM     14  C   UNL     1      16.063   6.564  19.920  0.00  0.00    -0.017 A 
ATOM     17  C   UNL     1      16.725   7.106  21.022  0.00  0.00    +0.008 A 
ATOM     18  C   UNL     1      16.778   5.856  18.956  0.00  0.00    +0.008 A 
ATOM     19  C   UNL     1      18.103   6.937  21.160  0.00  0.00    +0.024 A 
ATOM     20  C   UNL     1      18.156   5.686  19.093  0.00  0.00    +0.024 A 
ATOM     21  C   UNL     1      18.818   6.227  20.195  0.00  0.00    +0.035 A 
BRANCH  21   7
ATOM      5  O   UNL     1      20.435   3.740  20.648  0.00  0.00    -0.253 OA
ATOM      7  N   UNL     1      20.197   6.058  20.333  0.00  0.00    -0.269 N 
ATOM      8  N   UNL     1      22.289   5.120  20.629  0.00  0.00    -0.299 N 
ATOM     24  C   UNL     1      20.917   4.866  20.546  0.00  0.00    +0.304 C 
ATOM     28  H   UNL     1      20.752   6.908  20.270  0.00  0.00    +0.156 HD
ATOM     29  H   UNL     1      22.615   6.076  20.524  0.00  0.00    +0.150 HD
BRANCH   8  25
ATOM     25  C   UNL     1      23.272   4.083  20.843  0.00  0.00    +0.102 C 
ATOM     26  C   UNL     1      24.466   4.252  19.926  0.00  0.00    +0.024 C 
ENDBRANCH   8  25
ENDBRANCH  21   7
ENDBRANCH  10  14
BRANCH  10   2
ATOM      2  O   UNL     1      13.923   6.334  20.969  0.00  0.00    -0.385 OA
ATOM     27  H   UNL     1      14.432   6.647  21.735  0.00  0.00    +0.210 HD
ENDBRANCH  10   2
TORSDOF 9
ENDMDL
MODEL 2
REMARK VINA RESULT:      -6.5      1.756      2.630
REMARK  Name = 56774933
REMARK  11 active torsions:
REMARK  status: ('A' for Active; 'I' for Inactive)
REMARK    1  A    between atoms: O_2  and  C_10
REMARK    2  A    between atoms: O_3  and  C_16
REMARK    3  A    between atoms: O_3  and  C_22
REMARK    4  A    between atoms: N_6  and  C_12
REMARK    5  A    between atoms: N_7  and  C_21
REMARK    6  A    between atoms: N_8  and  C_25
REMARK    7  A    between atoms: C_9  and  C_10
REMARK    8  A    between atoms: C_10  and  C_14
REMARK    9  A    between atoms: C_12  and  C_16
REMARK   10  A    between atoms: C_22  and  C_23
REMARK   11  A    between atoms: C_25  and  C_26
REMARK                            x       y       z     vdW  Elec       q    Type
REMARK                         _______ _______ _______ _____ _____    ______ ____
ROOT
ATOM     10  C   UNL     1      14.489   6.656  20.324  0.00  0.00    +0.167 C 
ENDROOT
BRANCH  10   9
ATOM      1  O   UNL     1      11.737   7.121  19.417  0.00  0.00    -0.369 OA
ATOM      4  O   UNL     1      12.060  10.064  21.484  0.00  0.00    -0.273 OA
ATOM      6  N   UNL     1      13.679   8.983  20.209  0.00  0.00    -0.289 N 
ATOM      9  C   UNL     1      14.030   7.799  19.414  0.00  0.00    +0.135 C 
ATOM     11  C   UNL     1      12.843   7.376  18.557  0.00  0.00    +0.185 C 
ATOM     13  C   UNL     1      12.383   9.192  20.677  0.00  0.00    +0.242 C 
ATOM     15  C   UNL     1      11.310   8.305  20.054  0.00  0.00    +0.255 C 
BRANCH   6  12
ATOM     12  C   UNL     1      14.768   9.845  20.650  0.00  0.00    +0.136 C 
BRANCH  12  16
ATOM     16  C   UNL     1      15.392  10.593  19.487  0.00  0.00    +0.178 C 
BRANCH  16   3
ATOM      3  O   UNL     1      16.628  11.163  19.900  0.00  0.00    -0.378 OA
BRANCH   3  22
ATOM     22  C   UNL     1      17.359  10.275  20.734  0.00  0.00    +0.156 C 
ATOM     23  C   UNL     1      18.106  11.081  21.776  0.00  0.00    +0.034 C 
ENDBRANCH   3  22
ENDBRANCH  16   3
ENDBRANCH  12  16
ENDBRANCH   6  12
ENDBRANCH  10   9
BRANCH  10  14
ATOM     14  C   UNL     1      15.985   6.476  20.287  0.00  0.00    -0.017 A 
ATOM     17  C   UNL     1      16.754   6.796  21.405  0.00  0.00    +0.008 A 
ATOM     18  C   UNL     1      16.601   5.990  19.133  0.00  0.00    +0.008 A 
ATOM     19  C   UNL     1      18.138   6.630  21.371  0.00  0.00    +0.024 A 
ATOM     20  C   UNL     1      17.985   5.823  19.099  0.00  0.00    +0.024 A 
ATOM     21  C   UNL     1      18.754   6.143  20.218  0.00  0.00    +0.035 A 
BRANCH  21   7
ATOM      5  O   UNL     1      20.431   3.713  20.754  0.00  0.00    -0.253 OA
ATOM      7  N   UNL     1      20.139   5.975  20.184  0.00  0.00    -0.269 N 
ATOM      8  N   UNL     1      22.258   5.056  20.304  0.00  0.00    -0.299 N 
ATOM     24  C   UNL     1      20.888   4.811  20.444  0.00  0.00    +0.304 C 
ATOM     28  H   UNL     1      20.676   6.804  19.938  0.00  0.00    +0.156 HD
ATOM     29  H   UNL     1      22.561   5.988  20.034  0.00  0.00    +0.150 HD
BRANCH   8  25
ATOM     25  C   UNL     1      23.266   4.043  20.510  0.00  0.00    +0.102 C 
ATOM     26  C   UNL     1      24.596   4.454  19.912  0.00  0.00    +0.024 C 
ENDBRANCH   8  25
ENDBRANCH  21   7
ENDBRANCH  10  14
BRANCH  10   2
ATOM      2  O   UNL     1      14.076   6.922  21.660  0.00  0.00    -0.385 OA
ATOM     27  H   UNL     1      14.813   7.321  22.151  0.00  0.00    +0.210 HD
ENDBRANCH  10   2
TORSDOF 9
ENDMDL
MODEL 3
REMARK VINA RESULT:      -6.0     27.332     30.111
REMARK  Name = 56774933
REMARK  11 active torsions:
REMARK  status: ('A' for Active; 'I' for Inactive)
REMARK    1  A    between atoms: O_2  and  C_10
REMARK    2  A    between atoms: O_3  and  C_16
REMARK    3  A    between atoms: O_3  and  C_22
REMARK    4  A    between atoms: N_6  and  C_12
REMARK    5  A    between atoms: N_7  and  C_21
REMARK    6  A    between atoms: N_8  and  C_25
REMARK    7  A    between atoms: C_9  and  C_10
REMARK    8  A    between atoms: C_10  and  C_14
REMARK    9  A    between atoms: C_12  and  C_16
REMARK   10  A    between atoms: C_22  and  C_23
REMARK   11  A    between atoms: C_25  and  C_26
REMARK                            x       y       z     vdW  Elec       q    Type
REMARK                         _______ _______ _______ _____ _____    ______ ____
ROOT
ATOM     10  C   UNL     1      -3.625 -10.641  15.977  0.00  0.00    +0.167 C 
ENDROOT
BRANCH  10   9
ATOM      1  O   UNL     1      -1.831 -10.912  13.672  0.00  0.00    -0.369 OA
ATOM      4  O   UNL     1      -2.296 -14.433  14.328  0.00  0.00    -0.273 OA
ATOM      6  N   UNL     1      -3.801 -12.678  14.598  0.00  0.00    -0.289 N 
ATOM      9  C   UNL     1      -4.005 -11.225  14.613  0.00  0.00    +0.135 C 
ATOM     11  C   UNL     1      -3.202 -10.573  13.495  0.00  0.00    +0.185 C 
ATOM     13  C   UNL     1      -2.590 -13.243  14.202  0.00  0.00    +0.242 C 
ATOM     15  C   UNL     1      -1.626 -12.296  13.496  0.00  0.00    +0.255 C 
BRANCH   6  12
ATOM     12  C   UNL     1      -4.844 -13.511  15.183  0.00  0.00    +0.136 C 
BRANCH  12  16
ATOM     16  C   UNL     1      -6.204 -13.205  14.583  0.00  0.00    +0.178 C 
BRANCH  16   3
ATOM      3  O   UNL     1      -7.182 -13.182  15.615  0.00  0.00    -0.378 OA
BRANCH   3  22
ATOM     22  C   UNL     1      -6.736 -13.877  16.772  0.00  0.00    +0.156 C 
ATOM     23  C   UNL     1      -7.866 -13.937  17.777  0.00  0.00    +0.034 C 
ENDBRANCH   3  22
ENDBRANCH  16   3
ENDBRANCH  12  16
ENDBRANCH   6  12
ENDBRANCH  10   9
BRANCH  10  14
ATOM     14  C   UNL     1      -4.816 -10.542  16.896  0.00  0.00    -0.017 A 
ATOM     17  C   UNL     1      -4.746 -11.065  18.187  0.00  0.00    +0.008 A 
ATOM     18  C   UNL     1      -5.988  -9.928  16.455  0.00  0.00    +0.008 A 
ATOM     19  C   UNL     1      -5.848 -10.973  19.038  0.00  0.00    +0.024 A 
ATOM     20  C   UNL     1      -7.090  -9.835  17.305  0.00  0.00    +0.024 A 
ATOM     21  C   UNL     1      -7.020 -10.358  18.597  0.00  0.00    +0.035 A 
BRANCH  21   7
ATOM      5  O   UNL     1      -9.858 -11.249  18.204  0.00  0.00    -0.253 OA
ATOM      7  N   UNL     1      -8.122 -10.265  19.448  0.00  0.00    -0.269 N 
ATOM      8  N   UNL     1     -10.256 -10.422  20.325  0.00  0.00    -0.299 N 
ATOM     24  C   UNL     1      -9.443 -10.699  19.221  0.00  0.00    +0.304 C 
ATOM     28  H   UNL     1      -7.946  -9.828  20.349  0.00  0.00    +0.156 HD
ATOM     29  H   UNL     1      -9.840  -9.975  21.137  0.00  0.00    +0.150 HD
BRANCH   8  25
ATOM     25  C   UNL     1     -11.660 -10.757  20.376  0.00  0.00    +0.102 C 
ATOM     26  C   UNL     1     -12.499  -9.744  19.624  0.00  0.00    +0.024 C 
ENDBRANCH   8  25
ENDBRANCH  21   7
ENDBRANCH  10  14
BRANCH  10   2
ATOM      2  O   UNL     1      -2.629 -11.461  16.579  0.00  0.00    -0.385 OA
ATOM     27  H   UNL     1      -2.566 -12.300  16.094  0.00  0.00    +0.210 HD
ENDBRANCH  10   2
TORSDOF 9
ENDMDL
MODEL 4
REMARK VINA RESULT:      -5.9     26.911     29.612
REMARK  Name = 56774933
REMARK  11 active torsions:
REMARK  status: ('A' for Active; 'I' for Inactive)
REMARK    1  A    between atoms: O_2  and  C_10
REMARK    2  A    between atoms: O_3  and  C_16
REMARK    3  A    between atoms: O_3  and  C_22
REMARK    4  A    between atoms: N_6  and  C_12
REMARK    5  A    between atoms: N_7  and  C_21
REMARK    6  A    between atoms: N_8  and  C_25
REMARK    7  A    between atoms: C_9  and  C_10
REMARK    8  A    between atoms: C_10  and  C_14
REMARK    9  A    between atoms: C_12  and  C_16
REMARK   10  A    between atoms: C_22  and  C_23
REMARK   11  A    between atoms: C_25  and  C_26
REMARK                            x       y       z     vdW  Elec       q    Type
REMARK                         _______ _______ _______ _____ _____    ______ ____
ROOT
ATOM     10  C   UNL     1     -12.160   8.108  17.923  0.00  0.00    +0.167 C 
ENDROOT
BRANCH  10   9
ATOM      1  O   UNL     1     -10.340   9.275  15.939  0.00  0.00    -0.369 OA
ATOM      4  O   UNL     1     -12.702  12.003  16.080  0.00  0.00    -0.273 OA
ATOM      6  N   UNL     1     -12.017  10.566  17.777  0.00  0.00    -0.289 N 
ATOM      9  C   UNL     1     -11.283   9.346  18.134  0.00  0.00    +0.135 C 
ATOM     11  C   UNL     1      -9.999   9.254  17.320  0.00  0.00    +0.185 C 
ATOM     13  C   UNL     1     -11.981  11.091  16.487  0.00  0.00    +0.242 C 
ATOM     15  C   UNL     1     -10.902  10.517  15.576  0.00  0.00    +0.255 C 
BRANCH   6  12
ATOM     12  C   UNL     1     -12.934  11.115  18.769  0.00  0.00    +0.136 C 
BRANCH  12  16
ATOM     16  C   UNL     1     -12.193  11.625  19.991  0.00  0.00    +0.178 C 
BRANCH  16   3
ATOM      3  O   UNL     1     -13.130  11.962  21.006  0.00  0.00    -0.378 OA
BRANCH   3  22
ATOM     22  C   UNL     1     -13.776  10.808  21.524  0.00  0.00    +0.156 C 
ATOM     23  C   UNL     1     -12.810  10.063  22.421  0.00  0.00    +0.034 C 
ENDBRANCH   3  22
ENDBRANCH  16   3
ENDBRANCH  12  16
ENDBRANCH   6  12
ENDBRANCH  10   9
BRANCH  10  14
ATOM     14  C   UNL     1     -12.698   7.574  19.226  0.00  0.00    -0.017 A 
ATOM     17  C   UNL     1     -11.833   6.991  20.152  0.00  0.00    +0.008 A 
ATOM     18  C   UNL     1     -14.062   7.661  19.505  0.00  0.00    +0.008 A 
ATOM     19  C   UNL     1     -12.332   6.497  21.357  0.00  0.00    +0.024 A 
ATOM     20  C   UNL     1     -14.561   7.167  20.709  0.00  0.00    +0.024 A 
ATOM     21  C   UNL     1     -13.696   6.585  21.636  0.00  0.00    +0.035 A 
BRANCH  21   7
ATOM      5  O   UNL     1     -15.217   4.066  22.222  0.00  0.00    -0.253 OA
ATOM      7  N   UNL     1     -14.195   6.090  22.842  0.00  0.00    -0.269 N 
ATOM      8  N   UNL     1     -15.231   4.762  24.426  0.00  0.00    -0.299 N 
ATOM     24  C   UNL     1     -14.907   4.897  23.072  0.00  0.00    +0.304 C 
ATOM     28  H   UNL     1     -14.019   6.669  23.661  0.00  0.00    +0.156 HD
ATOM     29  H   UNL     1     -14.931   5.485  25.073  0.00  0.00    +0.150 HD
BRANCH   8  25
ATOM     25  C   UNL     1     -15.961   3.633  24.955  0.00  0.00    +0.102 C 
ATOM     26  C   UNL     1     -16.454   3.901  26.361  0.00  0.00    +0.024 C 
ENDBRANCH   8  25
ENDBRANCH  21   7
ENDBRANCH  10  14
BRANCH  10   2
ATOM      2  O   UNL     1     -13.244   8.440  17.062  0.00  0.00    -0.385 OA
ATOM     27  H   UNL     1     -12.920   8.510  16.149  0.00  0.00    +0.210 HD
ENDBRANCH  10   2
TORSDOF 9
ENDMDL
MODEL 5
REMARK VINA RESULT:      -5.7     27.095     29.693
REMARK  Name = 56774933
REMARK  11 active torsions:
REMARK  status: ('A' for Active; 'I' for Inactive)
REMARK    1  A    between atoms: O_2  and  C_10
REMARK    2  A    between atoms: O_3  and  C_16
REMARK    3  A    between atoms: O_3  and  C_22
REMARK    4  A    between atoms: N_6  and  C_12
REMARK    5  A    between atoms: N_7  and  C_21
REMARK    6  A    between atoms: N_8  and  C_25
REMARK    7  A    between atoms: C_9  and  C_10
REMARK    8  A    between atoms: C_10  and  C_14
REMARK    9  A    between atoms: C_12  and  C_16
REMARK   10  A    between atoms: C_22  and  C_23
REMARK   11  A    between atoms: C_25  and  C_26
REMARK                            x       y       z     vdW  Elec       q    Type
REMARK                         _______ _______ _______ _____ _____    ______ ____
ROOT
ATOM     10  C   UNL     1      -7.388 -11.358  19.082  0.00  0.00    +0.167 C 
ENDROOT
BRANCH  10   9
ATOM      1  O   UNL     1      -9.365 -13.234  20.170  0.00  0.00    -0.369 OA
ATOM      4  O   UNL     1     -11.382 -10.245  20.378  0.00  0.00    -0.273 OA
ATOM      6  N   UNL     1      -9.780 -10.827  18.793  0.00  0.00    -0.289 N 
ATOM      9  C   UNL     1      -8.707 -11.754  18.412  0.00  0.00    +0.135 C 
ATOM     11  C   UNL     1      -9.099 -13.181  18.773  0.00  0.00    +0.185 C 
ATOM     13  C   UNL     1     -10.585 -11.059  19.906  0.00  0.00    +0.242 C 
ATOM     15  C   UNL     1     -10.499 -12.461  20.498  0.00  0.00    +0.255 C 
BRANCH   6  12
ATOM     12  C   UNL     1      -9.861  -9.560  18.077  0.00  0.00    +0.136 C 
BRANCH  12  16
ATOM     16  C   UNL     1     -10.316  -9.758  16.644  0.00  0.00    +0.178 C 
BRANCH  16   3
ATOM      3  O   UNL     1      -9.560  -8.913  15.786  0.00  0.00    -0.378 OA
BRANCH   3  22
ATOM     22  C   UNL     1      -9.368  -9.503  14.508  0.00  0.00    +0.156 C 
ATOM     23  C   UNL     1      -9.180 -10.996  14.677  0.00  0.00    +0.034 C 
ENDBRANCH   3  22
ENDBRANCH  16   3
ENDBRANCH  12  16
ENDBRANCH   6  12
ENDBRANCH  10   9
BRANCH  10  14
ATOM     14  C   UNL     1      -6.306 -11.081  18.070  0.00  0.00    -0.017 A 
ATOM     17  C   UNL     1      -5.103 -11.785  18.125  0.00  0.00    +0.008 A 
ATOM     18  C   UNL     1      -6.506 -10.119  17.080  0.00  0.00    +0.008 A 
ATOM     19  C   UNL     1      -4.101 -11.529  17.189  0.00  0.00    +0.024 A 
ATOM     20  C   UNL     1      -5.505  -9.863  16.144  0.00  0.00    +0.024 A 
ATOM     21  C   UNL     1      -4.303 -10.568  16.198  0.00  0.00    +0.035 A 
BRANCH  21   7
ATOM      5  O   UNL     1      -4.047 -11.440  13.338  0.00  0.00    -0.253 OA
ATOM      7  N   UNL     1      -3.300 -10.311  15.261  0.00  0.00    -0.269 N 
ATOM      8  N   UNL     1      -2.053 -10.272  13.314  0.00  0.00    -0.299 N 
ATOM     24  C   UNL     1      -3.221 -10.744  13.923  0.00  0.00    +0.304 C 
ATOM     28  H   UNL     1      -2.528  -9.737  15.590  0.00  0.00    +0.156 HD
ATOM     29  H   UNL     1      -1.421  -9.691  13.858  0.00  0.00    +0.150 HD
BRANCH   8  25
ATOM     25  C   UNL     1      -1.707 -10.559  11.942  0.00  0.00    +0.102 C 
ATOM     26  C   UNL     1      -2.325  -9.553  10.992  0.00  0.00    +0.024 C 
ENDBRANCH   8  25
ENDBRANCH  21   7
ENDBRANCH  10  14
BRANCH  10   2
ATOM      2  O   UNL     1      -7.596 -10.199  19.883  0.00  0.00    -0.385 OA
ATOM     27  H   UNL     1      -7.251  -9.420  19.418  0.00  0.00    +0.210 HD
ENDBRANCH  10   2
TORSDOF 9
ENDMDL
MODEL 6
REMARK VINA RESULT:      -5.7      2.613      8.783
REMARK  Name = 56774933
REMARK  11 active torsions:
REMARK  status: ('A' for Active; 'I' for Inactive)
REMARK    1  A    between atoms: O_2  and  C_10
REMARK    2  A    between atoms: O_3  and  C_16
REMARK    3  A    between atoms: O_3  and  C_22
REMARK    4  A    between atoms: N_6  and  C_12
REMARK    5  A    between atoms: N_7  and  C_21
REMARK    6  A    between atoms: N_8  and  C_25
REMARK    7  A    between atoms: C_9  and  C_10
REMARK    8  A    between atoms: C_10  and  C_14
REMARK    9  A    between atoms: C_12  and  C_16
REMARK   10  A    between atoms: C_22  and  C_23
REMARK   11  A    between atoms: C_25  and  C_26
REMARK                            x       y       z     vdW  Elec       q    Type
REMARK                         _______ _______ _______ _____ _____    ______ ____
ROOT
ATOM     10  C   UNL     1      20.441   5.230  20.854  0.00  0.00    +0.167 C 
ENDROOT
BRANCH  10   9
ATOM      1  O   UNL     1      22.754   4.408  22.462  0.00  0.00    -0.369 OA
ATOM      4  O   UNL     1      24.500   6.640  20.225  0.00  0.00    -0.273 OA
ATOM      6  N   UNL     1      22.334   6.799  21.059  0.00  0.00    -0.289 N 
ATOM      9  C   UNL     1      21.246   6.137  21.790  0.00  0.00    +0.135 C 
ATOM     11  C   UNL     1      21.811   5.349  22.965  0.00  0.00    +0.185 C 
ATOM     13  C   UNL     1      23.601   6.228  20.959  0.00  0.00    +0.242 C 
ATOM     15  C   UNL     1      23.871   5.062  21.903  0.00  0.00    +0.255 C 
BRANCH   6  12
ATOM     12  C   UNL     1      21.999   7.988  20.285  0.00  0.00    +0.136 C 
BRANCH  12  16
ATOM     16  C   UNL     1      21.894   9.216  21.169  0.00  0.00    +0.178 C 
BRANCH  16   3
ATOM      3  O   UNL     1      21.001  10.150  20.577  0.00  0.00    -0.378 OA
BRANCH   3  22
ATOM     22  C   UNL     1      19.943  10.493  21.461  0.00  0.00    +0.156 C 
ATOM     23  C   UNL     1      18.775  11.018  20.652  0.00  0.00    +0.034 C 
ENDBRANCH   3  22
ENDBRANCH  16   3
ENDBRANCH  12  16
ENDBRANCH   6  12
ENDBRANCH  10   9
BRANCH  10  14
ATOM     14  C   UNL     1      19.128   5.856  20.460  0.00  0.00    -0.017 A 
ATOM     17  C   UNL     1      18.416   5.355  19.370  0.00  0.00    +0.008 A 
ATOM     18  C   UNL     1      18.625   6.937  21.183  0.00  0.00    +0.008 A 
ATOM     19  C   UNL     1      17.200   5.933  19.005  0.00  0.00    +0.024 A 
ATOM     20  C   UNL     1      17.410   7.516  20.819  0.00  0.00    +0.024 A 
ATOM     21  C   UNL     1      16.697   7.014  19.730  0.00  0.00    +0.035 A 
BRANCH  21   7
ATOM      5  O   UNL     1      13.946   6.634  20.867  0.00  0.00    -0.253 OA
ATOM      7  N   UNL     1      15.481   7.593  19.365  0.00  0.00    -0.269 N 
ATOM      8  N   UNL     1      13.240   8.156  19.277  0.00  0.00    -0.299 N 
ATOM     24  C   UNL     1      14.206   7.384  19.929  0.00  0.00    +0.304 C 
ATOM     28  H   UNL     1      15.522   8.252  18.591  0.00  0.00    +0.156 HD
ATOM     29  H   UNL     1      13.532   8.762  18.516  0.00  0.00    +0.150 HD
BRANCH   8  25
ATOM     25  C   UNL     1      11.842   8.146  19.643  0.00  0.00    +0.102 C 
ATOM     26  C   UNL     1      11.513   9.266  20.608  0.00  0.00    +0.024 C 
ENDBRANCH   8  25
ENDBRANCH  21   7
ENDBRANCH  10  14
BRANCH  10   2
ATOM      2  O   UNL     1      21.208   4.960  19.685  0.00  0.00    -0.385 OA
ATOM     27  H   UNL     1      20.849   4.176  19.239  0.00  0.00    +0.210 HD
ENDBRANCH  10   2
TORSDOF 9
ENDMDL
MODEL 7
REMARK VINA RESULT:      -5.6     17.211     20.621
REMARK  Name = 56774933
REMARK  11 active torsions:
REMARK  status: ('A' for Active; 'I' for Inactive)
REMARK    1  A    between atoms: O_2  and  C_10
REMARK    2  A    between atoms: O_3  and  C_16
REMARK    3  A    between atoms: O_3  and  C_22
REMARK    4  A    between atoms: N_6  and  C_12
REMARK    5  A    between atoms: N_7  and  C_21
REMARK    6  A    between atoms: N_8  and  C_25
REMARK    7  A    between atoms: C_9  and  C_10
REMARK    8  A    between atoms: C_10  and  C_14
REMARK    9  A    between atoms: C_12  and  C_16
REMARK   10  A    between atoms: C_22  and  C_23
REMARK   11  A    between atoms: C_25  and  C_26
REMARK                            x       y       z     vdW  Elec       q    Type
REMARK                         _______ _______ _______ _____ _____    ______ ____
ROOT
ATOM     10  C   UNL     1      10.199   5.038  -0.543  0.00  0.00    +0.167 C 
ENDROOT
BRANCH  10   9
ATOM      1  O   UNL     1      10.189   3.976  -3.278  0.00  0.00    -0.369 OA
ATOM      4  O   UNL     1      12.371   6.793  -3.869  0.00  0.00    -0.273 OA
ATOM      6  N   UNL     1      12.167   5.469  -1.966  0.00  0.00    -0.289 N 
ATOM      9  C   UNL     1      11.402   4.428  -1.268  0.00  0.00    +0.135 C 
ATOM     11  C   UNL     1      10.961   3.355  -2.256  0.00  0.00    +0.185 C 
ATOM     13  C   UNL     1      11.888   5.821  -3.285  0.00  0.00    +0.242 C 
ATOM     15  C   UNL     1      10.981   4.859  -4.043  0.00  0.00    +0.255 C 
BRANCH   6  12
ATOM     12  C   UNL     1      13.110   6.254  -1.179  0.00  0.00    +0.136 C 
BRANCH  12  16
ATOM     16  C   UNL     1      14.183   5.378  -0.560  0.00  0.00    +0.178 C 
BRANCH  16   3
ATOM      3  O   UNL     1      14.615   5.954   0.666  0.00  0.00    -0.378 OA
BRANCH   3  22
ATOM     22  C   UNL     1      14.297   5.123   1.774  0.00  0.00    +0.156 C 
ATOM     23  C   UNL     1      14.424   3.674   1.355  0.00  0.00    +0.034 C 
ENDBRANCH   3  22
ENDBRANCH  16   3
ENDBRANCH  12  16
ENDBRANCH   6  12
ENDBRANCH  10   9
BRANCH  10  14
ATOM     14  C   UNL     1      10.415   5.098   0.948  0.00  0.00    -0.017 A 
ATOM     17  C   UNL     1      10.762   3.944   1.650  0.00  0.00    +0.008 A 
ATOM     18  C   UNL     1      10.265   6.307   1.626  0.00  0.00    +0.008 A 
ATOM     19  C   UNL     1      10.962   3.999   3.029  0.00  0.00    +0.024 A 
ATOM     20  C   UNL     1      10.465   6.364   3.005  0.00  0.00    +0.024 A 
ATOM     21  C   UNL     1      10.813   5.210   3.707  0.00  0.00    +0.035 A 
BRANCH  21   7
ATOM      5  O   UNL     1       8.854   5.647   5.938  0.00  0.00    -0.253 OA
ATOM      7  N   UNL     1      11.013   5.265   5.087  0.00  0.00    -0.269 N 
ATOM      8  N   UNL     1      10.663   5.461   7.364  0.00  0.00    -0.299 N 
ATOM     24  C   UNL     1      10.059   5.474   6.103  0.00  0.00    +0.304 C 
ATOM     28  H   UNL     1      11.974   5.137   5.398  0.00  0.00    +0.156 HD
ATOM     29  H   UNL     1      11.665   5.301   7.424  0.00  0.00    +0.150 HD
BRANCH   8  25
ATOM     25  C   UNL     1       9.928   5.649   8.593  0.00  0.00    +0.102 C 
ATOM     26  C   UNL     1       9.481   4.327   9.180  0.00  0.00    +0.024 C 
ENDBRANCH   8  25
ENDBRANCH  21   7
ENDBRANCH  10  14
BRANCH  10   2
ATOM      2  O   UNL     1       9.964   6.351  -1.041  0.00  0.00    -0.385 OA
ATOM     27  H   UNL     1       9.137   6.358  -1.551  0.00  0.00    +0.210 HD
ENDBRANCH  10   2
TORSDOF 9
ENDMDL
MODEL 8
REMARK VINA RESULT:      -5.6     27.206     29.863
REMARK  Name = 56774933
REMARK  11 active torsions:
REMARK  status: ('A' for Active; 'I' for Inactive)
REMARK    1  A    between atoms: O_2  and  C_10
REMARK    2  A    between atoms: O_3  and  C_16
REMARK    3  A    between atoms: O_3  and  C_22
REMARK    4  A    between atoms: N_6  and  C_12
REMARK    5  A    between atoms: N_7  and  C_21
REMARK    6  A    between atoms: N_8  and  C_25
REMARK    7  A    between atoms: C_9  and  C_10
REMARK    8  A    between atoms: C_10  and  C_14
REMARK    9  A    between atoms: C_12  and  C_16
REMARK   10  A    between atoms: C_22  and  C_23
REMARK   11  A    between atoms: C_25  and  C_26
REMARK                            x       y       z     vdW  Elec       q    Type
REMARK                         _______ _______ _______ _____ _____    ______ ____
ROOT
ATOM     10  C   UNL     1      -3.594 -10.750  15.847  0.00  0.00    +0.167 C 
ENDROOT
BRANCH  10   9
ATOM      1  O   UNL     1      -4.977 -10.242  13.309  0.00  0.00    -0.369 OA
ATOM      4  O   UNL     1      -1.690 -10.855  11.944  0.00  0.00    -0.273 OA
ATOM      6  N   UNL     1      -2.708 -11.813  13.805  0.00  0.00    -0.289 N 
ATOM      9  C   UNL     1      -3.838 -11.781  14.741  0.00  0.00    +0.135 C 
ATOM     11  C   UNL     1      -5.130 -11.483  13.990  0.00  0.00    +0.185 C 
ATOM     13  C   UNL     1      -2.674 -11.002  12.672  0.00  0.00    +0.242 C 
ATOM     15  C   UNL     1      -3.994 -10.336  12.302  0.00  0.00    +0.255 C 
BRANCH   6  12
ATOM     12  C   UNL     1      -1.536 -12.588  14.191  0.00  0.00    +0.136 C 
BRANCH  12  16
ATOM     16  C   UNL     1      -1.518 -13.947  13.517  0.00  0.00    +0.178 C 
BRANCH  16   3
ATOM      3  O   UNL     1      -2.033 -14.925  14.411  0.00  0.00    -0.378 OA
BRANCH   3  22
ATOM     22  C   UNL     1      -1.364 -16.170  14.263  0.00  0.00    +0.156 C 
ATOM     23  C   UNL     1      -1.611 -17.011  15.498  0.00  0.00    +0.034 C 
ENDBRANCH   3  22
ENDBRANCH  16   3
ENDBRANCH  12  16
ENDBRANCH   6  12
ENDBRANCH  10   9
BRANCH  10  14
ATOM     14  C   UNL     1      -4.776 -10.630  16.774  0.00  0.00    -0.017 A 
ATOM     17  C   UNL     1      -4.881 -11.469  17.883  0.00  0.00    +0.008 A 
ATOM     18  C   UNL     1      -5.767  -9.682  16.521  0.00  0.00    +0.008 A 
ATOM     19  C   UNL     1      -5.975 -11.358  18.741  0.00  0.00    +0.024 A 
ATOM     20  C   UNL     1      -6.861  -9.570  17.379  0.00  0.00    +0.024 A 
ATOM     21  C   UNL     1      -6.965 -10.408  18.489  0.00  0.00    +0.035 A 
BRANCH  21   7
ATOM      5  O   UNL     1      -9.769 -11.440  18.206  0.00  0.00    -0.253 OA
ATOM      7  N   UNL     1      -8.060 -10.297  19.347  0.00  0.00    -0.269 N 
ATOM      8  N   UNL     1     -10.175 -10.474  20.266  0.00  0.00    -0.299 N 
ATOM     24  C   UNL     1      -9.365 -10.799  19.173  0.00  0.00    +0.304 C 
ATOM     28  H   UNL     1      -7.891  -9.787  20.211  0.00  0.00    +0.156 HD
ATOM     29  H   UNL     1      -9.767  -9.951  21.036  0.00  0.00    +0.150 HD
BRANCH   8  25
ATOM     25  C   UNL     1     -11.563 -10.860  20.362  0.00  0.00    +0.102 C 
ATOM     26  C   UNL     1     -12.478  -9.781  19.822  0.00  0.00    +0.024 C 
ENDBRANCH   8  25
ENDBRANCH  21   7
ENDBRANCH  10  14
BRANCH  10   2
ATOM      2  O   UNL     1      -2.441 -11.126  16.594  0.00  0.00    -0.385 OA
ATOM     27  H   UNL     1      -2.663 -11.142  17.540  0.00  0.00    +0.210 HD
ENDBRANCH  10   2
TORSDOF 9
ENDMDL
MODEL 9
REMARK VINA RESULT:      -5.5     27.243     30.161
REMARK  Name = 56774933
REMARK  11 active torsions:
REMARK  status: ('A' for Active; 'I' for Inactive)
REMARK    1  A    between atoms: O_2  and  C_10
REMARK    2  A    between atoms: O_3  and  C_16
REMARK    3  A    between atoms: O_3  and  C_22
REMARK    4  A    between atoms: N_6  and  C_12
REMARK    5  A    between atoms: N_7  and  C_21
REMARK    6  A    between atoms: N_8  and  C_25
REMARK    7  A    between atoms: C_9  and  C_10
REMARK    8  A    between atoms: C_10  and  C_14
REMARK    9  A    between atoms: C_12  and  C_16
REMARK   10  A    between atoms: C_22  and  C_23
REMARK   11  A    between atoms: C_25  and  C_26
REMARK                            x       y       z     vdW  Elec       q    Type
REMARK                         _______ _______ _______ _____ _____    ______ ____
ROOT
ATOM     10  C   UNL     1     -11.402   7.975  19.267  0.00  0.00    +0.167 C 
ENDROOT
BRANCH  10   9
ATOM      1  O   UNL     1      -9.870   9.581  17.348  0.00  0.00    -0.369 OA
ATOM      4  O   UNL     1     -12.211   8.145  15.003  0.00  0.00    -0.273 OA
ATOM      6  N   UNL     1     -12.545   8.753  17.224  0.00  0.00    -0.289 N 
ATOM      9  C   UNL     1     -11.933   9.181  18.488  0.00  0.00    +0.135 C 
ATOM     11  C   UNL     1     -10.823  10.188  18.213  0.00  0.00    +0.185 C 
ATOM     13  C   UNL     1     -11.805   8.657  16.048  0.00  0.00    +0.242 C 
ATOM     15  C   UNL     1     -10.433   9.319  16.081  0.00  0.00    +0.255 C 
BRANCH   6  12
ATOM     12  C   UNL     1     -13.914   8.253  17.275  0.00  0.00    +0.136 C 
BRANCH  12  16
ATOM     16  C   UNL     1     -14.883   9.329  17.726  0.00  0.00    +0.178 C 
BRANCH  16   3
ATOM      3  O   UNL     1     -15.685   8.829  18.789  0.00  0.00    -0.378 OA
BRANCH   3  22
ATOM     22  C   UNL     1     -15.782   7.412  18.747  0.00  0.00    +0.156 C 
ATOM     23  C   UNL     1     -16.676   6.945  19.876  0.00  0.00    +0.034 C 
ENDBRANCH   3  22
ENDBRANCH  16   3
ENDBRANCH  12  16
ENDBRANCH   6  12
ENDBRANCH  10   9
BRANCH  10  14
ATOM     14  C   UNL     1     -12.331   7.576  20.385  0.00  0.00    -0.017 A 
ATOM     17  C   UNL     1     -13.128   8.537  21.006  0.00  0.00    +0.008 A 
ATOM     18  C   UNL     1     -12.393   6.246  20.799  0.00  0.00    +0.008 A 
ATOM     19  C   UNL     1     -13.987   8.169  22.041  0.00  0.00    +0.024 A 
ATOM     20  C   UNL     1     -13.252   5.876  21.834  0.00  0.00    +0.024 A 
ATOM     21  C   UNL     1     -14.050   6.838  22.454  0.00  0.00    +0.035 A 
BRANCH  21   7
ATOM      5  O   UNL     1     -15.387   4.213  23.026  0.00  0.00    -0.253 OA
ATOM      7  N   UNL     1     -14.910   6.468  23.489  0.00  0.00    -0.269 N 
ATOM      8  N   UNL     1     -16.314   5.255  24.869  0.00  0.00    -0.299 N 
ATOM     24  C   UNL     1     -15.518   5.218  23.720  0.00  0.00    +0.304 C 
ATOM     28  H   UNL     1     -15.124   7.199  24.165  0.00  0.00    +0.156 HD
ATOM     29  H   UNL     1     -16.365   6.120  25.399  0.00  0.00    +0.150 HD
BRANCH   8  25
ATOM     25  C   UNL     1     -17.059   4.115  25.350  0.00  0.00    +0.102 C 
ATOM     26  C   UNL     1     -16.309   3.385  26.445  0.00  0.00    +0.024 C 
ENDBRANCH   8  25
ENDBRANCH  21   7
ENDBRANCH  10  14
BRANCH  10   2
ATOM      2  O   UNL     1     -11.232   6.876  18.376  0.00  0.00    -0.385 OA
ATOM     27  H   UNL     1     -11.693   6.100  18.733  0.00  0.00    +0.210 HD
ENDBRANCH  10   2
TORSDOF 9
ENDMDL
MODEL 10
REMARK VINA RESULT:      -5.5      2.969      9.654
REMARK  Name = 56774933
REMARK  11 active torsions:
REMARK  status: ('A' for Active; 'I' for Inactive)
REMARK    1  A    between atoms: O_2  and  C_10
REMARK    2  A    between atoms: O_3  and  C_16
REMARK    3  A    between atoms: O_3  and  C_22
REMARK    4  A    between atoms: N_6  and  C_12
REMARK    5  A    between atoms: N_7  and  C_21
REMARK    6  A    between atoms: N_8  and  C_25
REMARK    7  A    between atoms: C_9  and  C_10
REMARK    8  A    between atoms: C_10  and  C_14
REMARK    9  A    between atoms: C_12  and  C_16
REMARK   10  A    between atoms: C_22  and  C_23
REMARK   11  A    between atoms: C_25  and  C_26
REMARK                            x       y       z     vdW  Elec       q    Type
REMARK                         _______ _______ _______ _____ _____    ______ ____
ROOT
ATOM     10  C   UNL     1      19.946   7.033  21.998  0.00  0.00    +0.167 C 
ENDROOT
BRANCH  10   9
ATOM      1  O   UNL     1      22.368   8.547  21.327  0.00  0.00    -0.369 OA
ATOM      4  O   UNL     1      23.914   6.116  23.505  0.00  0.00    -0.273 OA
ATOM      6  N   UNL     1      22.110   5.852  22.059  0.00  0.00    -0.289 N 
ATOM      9  C   UNL     1      21.130   6.507  21.183  0.00  0.00    +0.135 C 
ATOM     11  C   UNL     1      21.799   7.629  20.400  0.00  0.00    +0.185 C 
ATOM     13  C   UNL     1      23.165   6.559  22.634  0.00  0.00    +0.242 C 
ATOM     15  C   UNL     1      23.418   7.945  22.052  0.00  0.00    +0.255 C 
BRANCH   6  12
ATOM     12  C   UNL     1      21.844   4.476  22.457  0.00  0.00    +0.136 C 
BRANCH  12  16
ATOM     16  C   UNL     1      21.535   3.598  21.259  0.00  0.00    +0.178 C 
BRANCH  16   3
ATOM      3  O   UNL     1      22.716   2.915  20.856  0.00  0.00    -0.378 OA
BRANCH   3  22
ATOM     22  C   UNL     1      23.467   2.468  21.976  0.00  0.00    +0.156 C 
ATOM     23  C   UNL     1      24.335   1.302  21.553  0.00  0.00    +0.034 C 
ENDBRANCH   3  22
ENDBRANCH  16   3
ENDBRANCH  12  16
ENDBRANCH   6  12
ENDBRANCH  10   9
BRANCH  10  14
ATOM     14  C   UNL     1      18.676   7.066  21.186  0.00  0.00    -0.017 A 
ATOM     17  C   UNL     1      17.688   8.007  21.475  0.00  0.00    +0.008 A 
ATOM     18  C   UNL     1      18.489   6.155  20.147  0.00  0.00    +0.008 A 
ATOM     19  C   UNL     1      16.513   8.038  20.723  0.00  0.00    +0.024 A 
ATOM     20  C   UNL     1      17.315   6.185  19.395  0.00  0.00    +0.024 A 
ATOM     21  C   UNL     1      16.327   7.127  19.683  0.00  0.00    +0.035 A 
BRANCH  21   7
ATOM      5  O   UNL     1      14.749   9.456  18.639  0.00  0.00    -0.253 OA
ATOM      7  N   UNL     1      15.152   7.158  18.931  0.00  0.00    -0.269 N 
ATOM      8  N   UNL     1      13.308   7.888  17.741  0.00  0.00    -0.299 N 
ATOM     24  C   UNL     1      14.442   8.280  18.460  0.00  0.00    +0.304 C 
ATOM     28  H   UNL     1      14.758   6.250  18.692  0.00  0.00    +0.156 HD
ATOM     29  H   UNL     1      13.124   6.895  17.625  0.00  0.00    +0.150 HD
BRANCH   8  25
ATOM     25  C   UNL     1      12.391   8.827  17.139  0.00  0.00    +0.102 C 
ATOM     26  C   UNL     1      12.892   9.306  15.792  0.00  0.00    +0.024 C 
ENDBRANCH   8  25
ENDBRANCH  21   7
ENDBRANCH  10  14
BRANCH  10   2
ATOM      2  O   UNL     1      19.756   6.206  23.142  0.00  0.00    -0.385 OA
ATOM     27  H   UNL     1      20.188   6.615  23.909  0.00  0.00    +0.210 HD
ENDBRANCH  10   2
TORSDOF 9
ENDMDL
