MODEL 1
REMARK VINA RESULT:      -8.4      0.000      0.000
REMARK  Name = 51137546
REMARK  8 active torsions:
REMARK  status: ('A' for Active; 'I' for Inactive)
REMARK    1  A    between atoms: N_2  and  C_11
REMARK    2  A    between atoms: N_3  and  C_20
REMARK    3  A    between atoms: N_6  and  C_26
REMARK    4  A    between atoms: N_6  and  C_29
REMARK    5  A    between atoms: N_6  and  C_30
REMARK    6  A    between atoms: C_7  and  C_12
REMARK    7  A    between atoms: C_11  and  C_13
REMARK    8  A    between atoms: C_18  and  C_23
REMARK                            x       y       z     vdW  Elec       q    Type
REMARK                         _______ _______ _______ _____ _____    ______ ____
ROOT
ATOM      2  N   UNL     1      10.911   9.531  22.053  0.00  0.00    -0.297 NA
ATOM      7  C   UNL     1      11.631   8.523  20.061  0.00  0.00    +0.092 C 
ATOM      8  C   UNL     1      11.923   9.696  21.007  0.00  0.00    +0.097 C 
ATOM      9  C   UNL     1      10.931   7.475  20.944  0.00  0.00    +0.029 C 
ATOM     10  C   UNL     1      10.891   8.095  22.335  0.00  0.00    +0.085 C 
ENDROOT
BRANCH   7  12
ATOM      1  O   UNL     1      13.958   7.764  20.106  0.00  0.00    -0.420 OA
ATOM      4  N   UNL     1      13.051   7.802  18.062  0.00  0.00    -0.112 NA
ATOM      5  N   UNL     1      14.355   7.358  17.942  0.00  0.00    -0.107 NA
ATOM     12  C   UNL     1      12.864   8.026  19.341  0.00  0.00    +0.222 A 
ATOM     18  C   UNL     1      14.845   7.352  19.159  0.00  0.00    +0.248 A 
BRANCH  18  23
ATOM     23  C   UNL     1      16.146   6.984  19.637  0.00  0.00    +0.039 A 
ATOM     24  C   UNL     1      16.860   5.967  19.003  0.00  0.00    +0.015 A 
ATOM     25  C   UNL     1      16.698   7.644  20.735  0.00  0.00    +0.015 A 
ATOM     26  C   UNL     1      18.679   6.270  20.565  0.00  0.00    +0.029 A 
ATOM     27  C   UNL     1      18.126   5.610  19.467  0.00  0.00    +0.024 A 
ATOM     28  C   UNL     1      17.964   7.287  21.199  0.00  0.00    +0.024 A 
BRANCH  26   6
ATOM      6  N   UNL     1      19.957   5.907  21.035  0.00  0.00    -0.336 N 
ATOM     29  C   UNL     1      20.573   6.635  22.126  0.00  0.00    +0.129 C 
ATOM     30  C   UNL     1      20.670   4.794  20.438  0.00  0.00    +0.129 C 
ENDBRANCH  26   6
ENDBRANCH  18  23
ENDBRANCH   7  12
BRANCH   2  11
ATOM     11  C   UNL     1      11.202  10.324  23.237  0.00  0.00    +0.121 C 
BRANCH  11  13
ATOM      3  N   UNL     1      10.772  13.743  21.946  0.00  0.00    -0.349 N 
ATOM     13  C   UNL     1      11.013  11.796  22.986  0.00  0.00    -0.008 A 
ATOM     14  C   UNL     1      10.868  12.812  23.972  0.00  0.00    +0.004 A 
ATOM     15  C   UNL     1      10.950  12.400  21.751  0.00  0.00    +0.091 A 
ATOM     16  C   UNL     1      10.717  14.024  23.293  0.00  0.00    +0.049 A 
ATOM     17  C   UNL     1      10.849  12.817  25.381  0.00  0.00    +0.010 A 
ATOM     19  C   UNL     1      10.550  15.245  23.956  0.00  0.00    +0.026 A 
ATOM     20  C   UNL     1      10.658  14.714  20.880  0.00  0.00    +0.149 C 
ATOM     21  C   UNL     1      10.681  14.032  26.057  0.00  0.00    +0.001 A 
ATOM     22  C   UNL     1      10.534  15.225  25.353  0.00  0.00    +0.002 A 
ENDBRANCH  11  13
ENDBRANCH   2  11
TORSDOF 5
ENDMDL
MODEL 2
REMARK VINA RESULT:      -8.0      1.668      2.390
REMARK  Name = 51137546
REMARK  8 active torsions:
REMARK  status: ('A' for Active; 'I' for Inactive)
REMARK    1  A    between atoms: N_2  and  C_11
REMARK    2  A    between atoms: N_3  and  C_20
REMARK    3  A    between atoms: N_6  and  C_26
REMARK    4  A    between atoms: N_6  and  C_29
REMARK    5  A    between atoms: N_6  and  C_30
REMARK    6  A    between atoms: C_7  and  C_12
REMARK    7  A    between atoms: C_11  and  C_13
REMARK    8  A    between atoms: C_18  and  C_23
REMARK                            x       y       z     vdW  Elec       q    Type
REMARK                         _______ _______ _______ _____ _____    ______ ____
ROOT
ATOM      2  N   UNL     1      10.634   9.443  21.987  0.00  0.00    -0.297 NA
ATOM      7  C   UNL     1      11.393   8.274  20.101  0.00  0.00    +0.092 C 
ATOM      8  C   UNL     1      11.540   9.607  20.848  0.00  0.00    +0.097 C 
ATOM      9  C   UNL     1      10.932   7.273  21.174  0.00  0.00    +0.029 C 
ATOM     10  C   UNL     1      10.871   8.080  22.465  0.00  0.00    +0.085 C 
ENDROOT
BRANCH   7  12
ATOM      1  O   UNL     1      13.755   7.628  20.107  0.00  0.00    -0.420 OA
ATOM      4  N   UNL     1      12.841   7.725  18.068  0.00  0.00    -0.112 NA
ATOM      5  N   UNL     1      14.165   7.351  17.926  0.00  0.00    -0.107 NA
ATOM     12  C   UNL     1      12.647   7.875  19.357  0.00  0.00    +0.222 A 
ATOM     18  C   UNL     1      14.658   7.308  19.141  0.00  0.00    +0.248 A 
BRANCH  18  23
ATOM     23  C   UNL     1      15.977   6.981  19.600  0.00  0.00    +0.039 A 
ATOM     24  C   UNL     1      16.513   7.639  20.707  0.00  0.00    +0.015 A 
ATOM     25  C   UNL     1      16.724   6.006  18.939  0.00  0.00    +0.015 A 
ATOM     26  C   UNL     1      18.543   6.346  20.493  0.00  0.00    +0.029 A 
ATOM     27  C   UNL     1      17.795   7.322  21.154  0.00  0.00    +0.024 A 
ATOM     28  C   UNL     1      18.007   5.689  19.385  0.00  0.00    +0.024 A 
BRANCH  26   6
ATOM      6  N   UNL     1      19.840   6.028  20.943  0.00  0.00    -0.336 N 
ATOM     29  C   UNL     1      20.479   6.827  21.969  0.00  0.00    +0.129 C 
ATOM     30  C   UNL     1      20.550   4.889  20.392  0.00  0.00    +0.129 C 
ENDBRANCH  26   6
ENDBRANCH  18  23
ENDBRANCH   7  12
BRANCH   2  11
ATOM     11  C   UNL     1      10.857  10.440  23.023  0.00  0.00    +0.121 C 
BRANCH  11  13
ATOM      3  N   UNL     1      12.192  13.549  21.576  0.00  0.00    -0.349 N 
ATOM     13  C   UNL     1      11.658  11.608  22.512  0.00  0.00    -0.008 A 
ATOM     14  C   UNL     1      13.070  11.766  22.590  0.00  0.00    +0.004 A 
ATOM     15  C   UNL     1      11.146  12.721  21.884  0.00  0.00    +0.091 A 
ATOM     16  C   UNL     1      13.379  12.992  21.996  0.00  0.00    +0.049 A 
ATOM     17  C   UNL     1      14.118  10.981  23.110  0.00  0.00    +0.010 A 
ATOM     19  C   UNL     1      14.689  13.474  21.895  0.00  0.00    +0.026 A 
ATOM     20  C   UNL     1      12.052  14.824  20.907  0.00  0.00    +0.149 C 
ATOM     21  C   UNL     1      15.434  11.451  23.017  0.00  0.00    +0.001 A 
ATOM     22  C   UNL     1      15.712  12.678  22.418  0.00  0.00    +0.002 A 
ENDBRANCH  11  13
ENDBRANCH   2  11
TORSDOF 5
ENDMDL
MODEL 3
REMARK VINA RESULT:      -8.0      1.594      2.251
REMARK  Name = 51137546
REMARK  8 active torsions:
REMARK  status: ('A' for Active; 'I' for Inactive)
REMARK    1  A    between atoms: N_2  and  C_11
REMARK    2  A    between atoms: N_3  and  C_20
REMARK    3  A    between atoms: N_6  and  C_26
REMARK    4  A    between atoms: N_6  and  C_29
REMARK    5  A    between atoms: N_6  and  C_30
REMARK    6  A    between atoms: C_7  and  C_12
REMARK    7  A    between atoms: C_11  and  C_13
REMARK    8  A    between atoms: C_18  and  C_23
REMARK                            x       y       z     vdW  Elec       q    Type
REMARK                         _______ _______ _______ _____ _____    ______ ____
ROOT
ATOM      2  N   UNL     1      10.684   9.429  22.071  0.00  0.00    -0.297 NA
ATOM      7  C   UNL     1      11.413   8.315  20.139  0.00  0.00    +0.092 C 
ATOM      8  C   UNL     1      11.603   9.609  20.944  0.00  0.00    +0.097 C 
ATOM      9  C   UNL     1      10.910   7.287  21.167  0.00  0.00    +0.029 C 
ATOM     10  C   UNL     1      10.870   8.040  22.491  0.00  0.00    +0.085 C 
ENDROOT
BRANCH   7  12
ATOM      1  O   UNL     1      13.766   7.639  20.127  0.00  0.00    -0.420 OA
ATOM      4  N   UNL     1      12.840   7.758  18.094  0.00  0.00    -0.112 NA
ATOM      5  N   UNL     1      14.158   7.368  17.941  0.00  0.00    -0.107 NA
ATOM     12  C   UNL     1      12.657   7.904  19.385  0.00  0.00    +0.222 A 
ATOM     18  C   UNL     1      14.658   7.311  19.153  0.00  0.00    +0.248 A 
BRANCH  18  23
ATOM     23  C   UNL     1      15.976   6.965  19.601  0.00  0.00    +0.039 A 
ATOM     24  C   UNL     1      16.729   6.026  18.893  0.00  0.00    +0.015 A 
ATOM     25  C   UNL     1      16.505   7.565  20.743  0.00  0.00    +0.015 A 
ATOM     26  C   UNL     1      18.540   6.290  20.471  0.00  0.00    +0.029 A 
ATOM     27  C   UNL     1      18.011   5.690  19.328  0.00  0.00    +0.024 A 
ATOM     28  C   UNL     1      17.787   7.228  21.178  0.00  0.00    +0.024 A 
BRANCH  26   6
ATOM      6  N   UNL     1      19.835   5.948  20.912  0.00  0.00    -0.336 N 
ATOM     29  C   UNL     1      20.513   4.789  20.367  0.00  0.00    +0.129 C 
ATOM     30  C   UNL     1      20.508   6.756  21.910  0.00  0.00    +0.129 C 
ENDBRANCH  26   6
ENDBRANCH  18  23
ENDBRANCH   7  12
BRANCH   2  11
ATOM     11  C   UNL     1      10.937  10.373  23.149  0.00  0.00    +0.121 C 
BRANCH  11  13
ATOM      3  N   UNL     1      14.005  12.306  22.526  0.00  0.00    -0.349 N 
ATOM     13  C   UNL     1      12.013  11.361  22.788  0.00  0.00    -0.008 A 
ATOM     14  C   UNL     1      11.825  12.636  22.186  0.00  0.00    +0.004 A 
ATOM     15  C   UNL     1      13.364  11.186  22.985  0.00  0.00    +0.091 A 
ATOM     16  C   UNL     1      13.091  13.208  22.032  0.00  0.00    +0.049 A 
ATOM     17  C   UNL     1      10.697  13.361  21.754  0.00  0.00    +0.010 A 
ATOM     19  C   UNL     1      13.284  14.474  21.467  0.00  0.00    +0.026 A 
ATOM     20  C   UNL     1      15.439  12.496  22.562  0.00  0.00    +0.149 C 
ATOM     21  C   UNL     1      10.875  14.629  21.186  0.00  0.00    +0.001 A 
ATOM     22  C   UNL     1      12.150  15.174  21.046  0.00  0.00    +0.002 A 
ENDBRANCH  11  13
ENDBRANCH   2  11
TORSDOF 5
ENDMDL
MODEL 4
REMARK VINA RESULT:      -7.9     27.120     30.344
REMARK  Name = 51137546
REMARK  8 active torsions:
REMARK  status: ('A' for Active; 'I' for Inactive)
REMARK    1  A    between atoms: N_2  and  C_11
REMARK    2  A    between atoms: N_3  and  C_20
REMARK    3  A    between atoms: N_6  and  C_26
REMARK    4  A    between atoms: N_6  and  C_29
REMARK    5  A    between atoms: N_6  and  C_30
REMARK    6  A    between atoms: C_7  and  C_12
REMARK    7  A    between atoms: C_11  and  C_13
REMARK    8  A    between atoms: C_18  and  C_23
REMARK                            x       y       z     vdW  Elec       q    Type
REMARK                         _______ _______ _______ _____ _____    ______ ____
ROOT
ATOM      2  N   UNL     1     -15.879   5.163  23.139  0.00  0.00    -0.297 NA
ATOM      7  C   UNL     1     -16.806   3.262  24.153  0.00  0.00    +0.092 C 
ATOM      8  C   UNL     1     -15.474   3.866  23.687  0.00  0.00    +0.097 C 
ATOM      9  C   UNL     1     -17.718   4.476  24.406  0.00  0.00    +0.029 C 
ATOM     10  C   UNL     1     -16.851   5.690  24.098  0.00  0.00    +0.085 C 
ENDROOT
BRANCH   7  12
ATOM      1  O   UNL     1     -16.216   2.882  26.499  0.00  0.00    -0.420 OA
ATOM      4  N   UNL     1     -16.870   1.039  25.413  0.00  0.00    -0.112 NA
ATOM      5  N   UNL     1     -16.570   0.683  26.715  0.00  0.00    -0.107 NA
ATOM     12  C   UNL     1     -16.649   2.330  25.333  0.00  0.00    +0.222 A 
ATOM     18  C   UNL     1     -16.193   1.790  27.311  0.00  0.00    +0.248 A 
BRANCH  18  23
ATOM     23  C   UNL     1     -15.769   2.022  28.661  0.00  0.00    +0.039 A 
ATOM     24  C   UNL     1     -15.746   0.967  29.576  0.00  0.00    +0.015 A 
ATOM     25  C   UNL     1     -15.379   3.300  29.061  0.00  0.00    +0.015 A 
ATOM     26  C   UNL     1     -14.943   2.471  31.288  0.00  0.00    +0.029 A 
ATOM     27  C   UNL     1     -15.332   1.192  30.889  0.00  0.00    +0.024 A 
ATOM     28  C   UNL     1     -14.966   3.525  30.374  0.00  0.00    +0.024 A 
BRANCH  26   6
ATOM      6  N   UNL     1     -14.527   2.699  32.616  0.00  0.00    -0.336 N 
ATOM     29  C   UNL     1     -14.594   1.636  33.599  0.00  0.00    +0.129 C 
ATOM     30  C   UNL     1     -14.020   3.997  33.015  0.00  0.00    +0.129 C 
ENDBRANCH  26   6
ENDBRANCH  18  23
ENDBRANCH   7  12
BRANCH   2  11
ATOM     11  C   UNL     1     -14.750   6.060  22.945  0.00  0.00    +0.121 C 
BRANCH  11  13
ATOM      3  N   UNL     1     -15.390   7.416  19.585  0.00  0.00    -0.349 N 
ATOM     13  C   UNL     1     -14.726   6.638  21.555  0.00  0.00    -0.008 A 
ATOM     14  C   UNL     1     -13.572   7.016  20.814  0.00  0.00    +0.004 A 
ATOM     15  C   UNL     1     -15.828   6.896  20.773  0.00  0.00    +0.091 A 
ATOM     16  C   UNL     1     -14.016   7.501  19.582  0.00  0.00    +0.049 A 
ATOM     17  C   UNL     1     -12.187   6.992  21.075  0.00  0.00    +0.010 A 
ATOM     19  C   UNL     1     -13.141   7.965  18.593  0.00  0.00    +0.026 A 
ATOM     20  C   UNL     1     -16.259   7.814  18.499  0.00  0.00    +0.149 C 
ATOM     21  C   UNL     1     -11.300   7.454  20.095  0.00  0.00    +0.001 A 
ATOM     22  C   UNL     1     -11.772   7.932  18.874  0.00  0.00    +0.002 A 
ENDBRANCH  11  13
ENDBRANCH   2  11
TORSDOF 5
ENDMDL
MODEL 5
REMARK VINA RESULT:      -7.8     26.296     29.399
REMARK  Name = 51137546
REMARK  8 active torsions:
REMARK  status: ('A' for Active; 'I' for Inactive)
REMARK    1  A    between atoms: N_2  and  C_11
REMARK    2  A    between atoms: N_3  and  C_20
REMARK    3  A    between atoms: N_6  and  C_26
REMARK    4  A    between atoms: N_6  and  C_29
REMARK    5  A    between atoms: N_6  and  C_30
REMARK    6  A    between atoms: C_7  and  C_12
REMARK    7  A    between atoms: C_11  and  C_13
REMARK    8  A    between atoms: C_18  and  C_23
REMARK                            x       y       z     vdW  Elec       q    Type
REMARK                         _______ _______ _______ _____ _____    ______ ____
ROOT
ATOM      2  N   UNL     1     -12.239   9.528  32.181  0.00  0.00    -0.297 NA
ATOM      7  C   UNL     1     -13.527   8.174  33.598  0.00  0.00    +0.092 C 
ATOM      8  C   UNL     1     -13.042   8.304  32.147  0.00  0.00    +0.097 C 
ATOM      9  C   UNL     1     -12.483   8.940  34.428  0.00  0.00    +0.029 C 
ATOM     10  C   UNL     1     -11.459   9.434  33.415  0.00  0.00    +0.085 C 
ENDROOT
BRANCH   7  12
ATOM      1  O   UNL     1     -13.827   5.812  33.026  0.00  0.00    -0.420 OA
ATOM      4  N   UNL     1     -13.870   6.231  35.223  0.00  0.00    -0.112 NA
ATOM      5  N   UNL     1     -14.049   4.872  35.044  0.00  0.00    -0.107 NA
ATOM     12  C   UNL     1     -13.745   6.738  34.019  0.00  0.00    +0.222 A 
ATOM     18  C   UNL     1     -14.016   4.673  33.748  0.00  0.00    +0.248 A 
BRANCH  18  23
ATOM     23  C   UNL     1     -14.148   3.464  32.987  0.00  0.00    +0.039 A 
ATOM     24  C   UNL     1     -14.699   2.326  33.578  0.00  0.00    +0.015 A 
ATOM     25  C   UNL     1     -13.726   3.426  31.659  0.00  0.00    +0.015 A 
ATOM     26  C   UNL     1     -14.405   1.112  31.509  0.00  0.00    +0.029 A 
ATOM     27  C   UNL     1     -14.828   1.150  32.838  0.00  0.00    +0.024 A 
ATOM     28  C   UNL     1     -13.855   2.250  30.919  0.00  0.00    +0.024 A 
BRANCH  26   6
ATOM      6  N   UNL     1     -14.534  -0.078  30.763  0.00  0.00    -0.336 N 
ATOM     29  C   UNL     1     -15.606  -1.010  31.046  0.00  0.00    +0.129 C 
ATOM     30  C   UNL     1     -13.599  -0.380  29.696  0.00  0.00    +0.129 C 
ENDBRANCH  26   6
ENDBRANCH  18  23
ENDBRANCH   7  12
BRANCH   2  11
ATOM     11  C   UNL     1     -11.397   9.673  31.003  0.00  0.00    +0.121 C 
BRANCH  11  13
ATOM      3  N   UNL     1     -13.114  12.366  29.174  0.00  0.00    -0.349 N 
ATOM     13  C   UNL     1     -11.969  10.665  30.024  0.00  0.00    -0.008 A 
ATOM     14  C   UNL     1     -11.723  10.711  28.624  0.00  0.00    +0.004 A 
ATOM     15  C   UNL     1     -12.827  11.695  30.333  0.00  0.00    +0.091 A 
ATOM     16  C   UNL     1     -12.453  11.788  28.114  0.00  0.00    +0.049 A 
ATOM     17  C   UNL     1     -10.947   9.938  27.737  0.00  0.00    +0.010 A 
ATOM     19  C   UNL     1     -12.446  12.130  26.757  0.00  0.00    +0.026 A 
ATOM     20  C   UNL     1     -13.987  13.517  29.093  0.00  0.00    +0.149 C 
ATOM     21  C   UNL     1     -10.929  10.270  26.377  0.00  0.00    +0.001 A 
ATOM     22  C   UNL     1     -11.668  11.349  25.898  0.00  0.00    +0.002 A 
ENDBRANCH  11  13
ENDBRANCH   2  11
TORSDOF 5
ENDMDL
MODEL 6
REMARK VINA RESULT:      -7.8      1.654      2.716
REMARK  Name = 51137546
REMARK  8 active torsions:
REMARK  status: ('A' for Active; 'I' for Inactive)
REMARK    1  A    between atoms: N_2  and  C_11
REMARK    2  A    between atoms: N_3  and  C_20
REMARK    3  A    between atoms: N_6  and  C_26
REMARK    4  A    between atoms: N_6  and  C_29
REMARK    5  A    between atoms: N_6  and  C_30
REMARK    6  A    between atoms: C_7  and  C_12
REMARK    7  A    between atoms: C_11  and  C_13
REMARK    8  A    between atoms: C_18  and  C_23
REMARK                            x       y       z     vdW  Elec       q    Type
REMARK                         _______ _______ _______ _____ _____    ______ ____
ROOT
ATOM      2  N   UNL     1      12.790   8.786  20.667  0.00  0.00    -0.297 NA
ATOM      7  C   UNL     1      14.360   7.824  19.213  0.00  0.00    +0.092 C 
ATOM      8  C   UNL     1      14.239   8.668  20.490  0.00  0.00    +0.097 C 
ATOM      9  C   UNL     1      13.041   7.034  19.141  0.00  0.00    +0.029 C 
ATOM     10  C   UNL     1      12.265   7.449  20.385  0.00  0.00    +0.085 C 
ENDROOT
BRANCH   7  12
ATOM      1  O   UNL     1      16.565   7.254  20.113  0.00  0.00    -0.420 OA
ATOM      4  N   UNL     1      15.930   5.987  18.382  0.00  0.00    -0.112 NA
ATOM      5  N   UNL     1      17.182   5.561  18.788  0.00  0.00    -0.107 NA
ATOM     12  C   UNL     1      15.611   6.976  19.184  0.00  0.00    +0.222 A 
ATOM     18  C   UNL     1      17.511   6.328  19.800  0.00  0.00    +0.248 A 
BRANCH  18  23
ATOM     23  C   UNL     1      18.694   6.342  20.612  0.00  0.00    +0.039 A 
ATOM     24  C   UNL     1      18.766   7.181  21.725  0.00  0.00    +0.015 A 
ATOM     25  C   UNL     1      19.772   5.518  20.289  0.00  0.00    +0.015 A 
ATOM     26  C   UNL     1      20.994   6.370  22.191  0.00  0.00    +0.029 A 
ATOM     27  C   UNL     1      19.915   7.194  22.514  0.00  0.00    +0.024 A 
ATOM     28  C   UNL     1      20.921   5.532  21.078  0.00  0.00    +0.024 A 
BRANCH  26   6
ATOM      6  N   UNL     1      22.156   6.386  22.988  0.00  0.00    -0.336 N 
ATOM     29  C   UNL     1      22.310   5.448  24.083  0.00  0.00    +0.129 C 
ATOM     30  C   UNL     1      23.219   7.335  22.719  0.00  0.00    +0.129 C 
ENDBRANCH  26   6
ENDBRANCH  18  23
ENDBRANCH   7  12
BRANCH   2  11
ATOM     11  C   UNL     1      12.429   9.254  21.996  0.00  0.00    +0.121 C 
BRANCH  11  13
ATOM      3  N   UNL     1      11.632  12.779  21.304  0.00  0.00    -0.349 N 
ATOM     13  C   UNL     1      12.027  10.705  21.989  0.00  0.00    -0.008 A 
ATOM     14  C   UNL     1      11.523  11.449  23.092  0.00  0.00    +0.004 A 
ATOM     15  C   UNL     1      12.083  11.549  20.905  0.00  0.00    +0.091 A 
ATOM     16  C   UNL     1      11.283  12.748  22.636  0.00  0.00    +0.049 A 
ATOM     17  C   UNL     1      11.247  11.143  24.440  0.00  0.00    +0.010 A 
ATOM     19  C   UNL     1      10.780  13.758  23.462  0.00  0.00    +0.026 A 
ATOM     20  C   UNL     1      11.542  13.935  20.439  0.00  0.00    +0.149 C 
ATOM     21  C   UNL     1      10.742  12.144  25.278  0.00  0.00    +0.001 A 
ATOM     22  C   UNL     1      10.513  13.430  24.794  0.00  0.00    +0.002 A 
ENDBRANCH  11  13
ENDBRANCH   2  11
TORSDOF 5
ENDMDL
MODEL 7
REMARK VINA RESULT:      -7.6      4.146      7.180
REMARK  Name = 51137546
REMARK  8 active torsions:
REMARK  status: ('A' for Active; 'I' for Inactive)
REMARK    1  A    between atoms: N_2  and  C_11
REMARK    2  A    between atoms: N_3  and  C_20
REMARK    3  A    between atoms: N_6  and  C_26
REMARK    4  A    between atoms: N_6  and  C_29
REMARK    5  A    between atoms: N_6  and  C_30
REMARK    6  A    between atoms: C_7  and  C_12
REMARK    7  A    between atoms: C_11  and  C_13
REMARK    8  A    between atoms: C_18  and  C_23
REMARK                            x       y       z     vdW  Elec       q    Type
REMARK                         _______ _______ _______ _____ _____    ______ ____
ROOT
ATOM      2  N   UNL     1      17.070   8.227  20.582  0.00  0.00    -0.297 NA
ATOM      7  C   UNL     1      19.070   7.026  20.821  0.00  0.00    +0.092 C 
ATOM      8  C   UNL     1      18.311   8.248  21.358  0.00  0.00    +0.097 C 
ATOM      9  C   UNL     1      17.974   6.095  20.276  0.00  0.00    +0.029 C 
ATOM     10  C   UNL     1      16.664   6.821  20.556  0.00  0.00    +0.085 C 
ENDROOT
BRANCH   7  12
ATOM      1  O   UNL     1      20.941   5.553  21.391  0.00  0.00    -0.420 OA
ATOM      4  N   UNL     1      19.993   6.547  23.156  0.00  0.00    -0.112 NA
ATOM      5  N   UNL     1      21.025   5.752  23.618  0.00  0.00    -0.107 NA
ATOM     12  C   UNL     1      19.981   6.400  21.852  0.00  0.00    +0.222 A 
ATOM     18  C   UNL     1      21.550   5.192  22.554  0.00  0.00    +0.248 A 
BRANCH  18  23
ATOM     23  C   UNL     1      22.645   4.274  22.429  0.00  0.00    +0.039 A 
ATOM     24  C   UNL     1      22.554   3.195  21.548  0.00  0.00    +0.015 A 
ATOM     25  C   UNL     1      23.801   4.460  23.186  0.00  0.00    +0.015 A 
ATOM     26  C   UNL     1      24.775   2.489  22.184  0.00  0.00    +0.029 A 
ATOM     27  C   UNL     1      23.619   2.303  21.426  0.00  0.00    +0.024 A 
ATOM     28  C   UNL     1      24.866   3.567  23.064  0.00  0.00    +0.024 A 
BRANCH  26   6
ATOM      6  N   UNL     1      25.851   1.585  22.062  0.00  0.00    -0.336 N 
ATOM     29  C   UNL     1      25.615   0.155  22.085  0.00  0.00    +0.129 C 
ATOM     30  C   UNL     1      27.207   2.075  21.903  0.00  0.00    +0.129 C 
ENDBRANCH  26   6
ENDBRANCH  18  23
ENDBRANCH   7  12
BRANCH   2  11
ATOM     11  C   UNL     1      16.045   9.089  21.150  0.00  0.00    +0.121 C 
BRANCH  11  13
ATOM      3  N   UNL     1      13.444   9.431  18.570  0.00  0.00    -0.349 N 
ATOM     13  C   UNL     1      14.805   9.125  20.296  0.00  0.00    -0.008 A 
ATOM     14  C   UNL     1      13.497   8.724  20.685  0.00  0.00    +0.004 A 
ATOM     15  C   UNL     1      14.741   9.555  18.990  0.00  0.00    +0.091 A 
ATOM     16  C   UNL     1      12.661   8.926  19.583  0.00  0.00    +0.049 A 
ATOM     17  C   UNL     1      12.940   8.207  21.872  0.00  0.00    +0.010 A 
ATOM     19  C   UNL     1      11.293   8.636  19.610  0.00  0.00    +0.026 A 
ATOM     20  C   UNL     1      12.980   9.785  17.246  0.00  0.00    +0.149 C 
ATOM     21  C   UNL     1      11.572   7.911  21.912  0.00  0.00    +0.001 A 
ATOM     22  C   UNL     1      10.764   8.124  20.798  0.00  0.00    +0.002 A 
ENDBRANCH  11  13
ENDBRANCH   2  11
TORSDOF 5
ENDMDL
MODEL 8
REMARK VINA RESULT:      -7.4     26.744     29.296
REMARK  Name = 51137546
REMARK  8 active torsions:
REMARK  status: ('A' for Active; 'I' for Inactive)
REMARK    1  A    between atoms: N_2  and  C_11
REMARK    2  A    between atoms: N_3  and  C_20
REMARK    3  A    between atoms: N_6  and  C_26
REMARK    4  A    between atoms: N_6  and  C_29
REMARK    5  A    between atoms: N_6  and  C_30
REMARK    6  A    between atoms: C_7  and  C_12
REMARK    7  A    between atoms: C_11  and  C_13
REMARK    8  A    between atoms: C_18  and  C_23
REMARK                            x       y       z     vdW  Elec       q    Type
REMARK                         _______ _______ _______ _____ _____    ______ ____
ROOT
ATOM      2  N   UNL     1      -3.012 -12.464  14.941  0.00  0.00    -0.297 NA
ATOM      7  C   UNL     1      -1.892 -11.250  13.275  0.00  0.00    +0.092 C 
ATOM      8  C   UNL     1      -3.013 -12.278  13.488  0.00  0.00    +0.097 C 
ATOM      9  C   UNL     1      -1.793 -10.498  14.614  0.00  0.00    +0.029 C 
ATOM     10  C   UNL     1      -2.872 -11.116  15.494  0.00  0.00    +0.085 C 
ENDROOT
BRANCH   7  12
ATOM      1  O   UNL     1      -3.362 -10.407  11.508  0.00  0.00    -0.420 OA
ATOM      4  N   UNL     1      -1.294  -9.556  11.458  0.00  0.00    -0.112 NA
ATOM      5  N   UNL     1      -2.010  -8.998  10.415  0.00  0.00    -0.107 NA
ATOM     12  C   UNL     1      -2.122 -10.371  12.068  0.00  0.00    +0.222 A 
ATOM     18  C   UNL     1      -3.211  -9.523  10.483  0.00  0.00    +0.248 A 
BRANCH  18  23
ATOM     23  C   UNL     1      -4.366  -9.315   9.660  0.00  0.00    +0.039 A 
ATOM     24  C   UNL     1      -4.532 -10.057   8.490  0.00  0.00    +0.015 A 
ATOM     25  C   UNL     1      -5.324  -8.370  10.028  0.00  0.00    +0.015 A 
ATOM     26  C   UNL     1      -6.614  -8.910   8.057  0.00  0.00    +0.029 A 
ATOM     27  C   UNL     1      -5.656  -9.855   7.689  0.00  0.00    +0.024 A 
ATOM     28  C   UNL     1      -6.448  -8.168   9.227  0.00  0.00    +0.024 A 
BRANCH  26   6
ATOM      6  N   UNL     1      -7.749  -8.704   7.247  0.00  0.00    -0.336 N 
ATOM     29  C   UNL     1      -8.211  -7.362   6.956  0.00  0.00    +0.129 C 
ATOM     30  C   UNL     1      -8.465  -9.834   6.685  0.00  0.00    +0.129 C 
ENDBRANCH  26   6
ENDBRANCH  18  23
ENDBRANCH   7  12
BRANCH   2  11
ATOM     11  C   UNL     1      -4.213 -13.135  15.416  0.00  0.00    +0.121 C 
BRANCH  11  13
ATOM      3  N   UNL     1      -6.936 -10.710  15.909  0.00  0.00    -0.349 N 
ATOM     13  C   UNL     1      -5.251 -12.155  15.894  0.00  0.00    -0.008 A 
ATOM     14  C   UNL     1      -5.457 -11.727  17.235  0.00  0.00    +0.004 A 
ATOM     15  C   UNL     1      -6.175 -11.513  15.102  0.00  0.00    +0.091 A 
ATOM     16  C   UNL     1      -6.521 -10.820  17.217  0.00  0.00    +0.049 A 
ATOM     17  C   UNL     1      -4.841 -12.023  18.466  0.00  0.00    +0.010 A 
ATOM     19  C   UNL     1      -6.998 -10.193  18.373  0.00  0.00    +0.026 A 
ATOM     20  C   UNL     1      -8.018  -9.872  15.438  0.00  0.00    +0.149 C 
ATOM     21  C   UNL     1      -5.309 -11.404  19.632  0.00  0.00    +0.001 A 
ATOM     22  C   UNL     1      -6.371 -10.504  19.583  0.00  0.00    +0.002 A 
ENDBRANCH  11  13
ENDBRANCH   2  11
TORSDOF 5
ENDMDL
MODEL 9
REMARK VINA RESULT:      -7.2     26.575     30.512
REMARK  Name = 51137546
REMARK  8 active torsions:
REMARK  status: ('A' for Active; 'I' for Inactive)
REMARK    1  A    between atoms: N_2  and  C_11
REMARK    2  A    between atoms: N_3  and  C_20
REMARK    3  A    between atoms: N_6  and  C_26
REMARK    4  A    between atoms: N_6  and  C_29
REMARK    5  A    between atoms: N_6  and  C_30
REMARK    6  A    between atoms: C_7  and  C_12
REMARK    7  A    between atoms: C_11  and  C_13
REMARK    8  A    between atoms: C_18  and  C_23
REMARK                            x       y       z     vdW  Elec       q    Type
REMARK                         _______ _______ _______ _____ _____    ______ ____
ROOT
ATOM      2  N   UNL     1      -4.466 -10.811  15.298  0.00  0.00    -0.297 NA
ATOM      7  C   UNL     1      -5.919  -9.651  16.728  0.00  0.00    +0.092 C 
ATOM      8  C   UNL     1      -5.767 -10.139  15.280  0.00  0.00    +0.097 C 
ATOM      9  C   UNL     1      -5.033 -10.600  17.554  0.00  0.00    +0.029 C 
ATOM     10  C   UNL     1      -4.455 -11.581  16.542  0.00  0.00    +0.085 C 
ENDROOT
BRANCH   7  12
ATOM      1  O   UNL     1      -8.203  -8.827  16.417  0.00  0.00    -0.420 OA
ATOM      4  N   UNL     1      -7.944 -10.138  18.210  0.00  0.00    -0.112 NA
ATOM      5  N   UNL     1      -9.269  -9.747  18.155  0.00  0.00    -0.107 NA
ATOM     12  C   UNL     1      -7.361  -9.577  17.177  0.00  0.00    +0.222 A 
ATOM     18  C   UNL     1      -9.374  -8.984  17.093  0.00  0.00    +0.248 A 
BRANCH  18  23
ATOM     23  C   UNL     1     -10.511  -8.302  16.545  0.00  0.00    +0.039 A 
ATOM     24  C   UNL     1     -10.326  -7.216  15.688  0.00  0.00    +0.015 A 
ATOM     25  C   UNL     1     -11.800  -8.723  16.868  0.00  0.00    +0.015 A 
ATOM     26  C   UNL     1     -12.721  -6.974  15.478  0.00  0.00    +0.029 A 
ATOM     27  C   UNL     1     -11.431  -6.553  15.155  0.00  0.00    +0.024 A 
ATOM     28  C   UNL     1     -12.905  -8.060  16.335  0.00  0.00    +0.024 A 
BRANCH  26   6
ATOM      6  N   UNL     1     -13.837  -6.302  14.941  0.00  0.00    -0.336 N 
ATOM     29  C   UNL     1     -15.179  -6.653  15.362  0.00  0.00    +0.129 C 
ATOM     30  C   UNL     1     -13.658  -5.244  13.965  0.00  0.00    +0.129 C 
ENDBRANCH  26   6
ENDBRANCH  18  23
ENDBRANCH   7  12
BRANCH   2  11
ATOM     11  C   UNL     1      -4.257 -11.648  14.126  0.00  0.00    +0.121 C 
BRANCH  11  13
ATOM      3  N   UNL     1      -2.058  -9.849  11.788  0.00  0.00    -0.349 N 
ATOM     13  C   UNL     1      -3.593 -10.890  13.007  0.00  0.00    -0.008 A 
ATOM     14  C   UNL     1      -4.210 -10.435  11.809  0.00  0.00    +0.004 A 
ATOM     15  C   UNL     1      -2.270 -10.515  12.965  0.00  0.00    +0.091 A 
ATOM     16  C   UNL     1      -3.225  -9.785  11.061  0.00  0.00    +0.049 A 
ATOM     17  C   UNL     1      -5.517 -10.513  11.287  0.00  0.00    +0.010 A 
ATOM     19  C   UNL     1      -3.483  -9.206   9.814  0.00  0.00    +0.026 A 
ATOM     20  C   UNL     1      -0.783  -9.298  11.381  0.00  0.00    +0.149 C 
ATOM     21  C   UNL     1      -5.789  -9.940  10.039  0.00  0.00    +0.001 A 
ATOM     22  C   UNL     1      -4.786  -9.297   9.316  0.00  0.00    +0.002 A 
ENDBRANCH  11  13
ENDBRANCH   2  11
TORSDOF 5
ENDMDL
MODEL 10
REMARK VINA RESULT:      -7.2     27.809     30.715
REMARK  Name = 51137546
REMARK  8 active torsions:
REMARK  status: ('A' for Active; 'I' for Inactive)
REMARK    1  A    between atoms: N_2  and  C_11
REMARK    2  A    between atoms: N_3  and  C_20
REMARK    3  A    between atoms: N_6  and  C_26
REMARK    4  A    between atoms: N_6  and  C_29
REMARK    5  A    between atoms: N_6  and  C_30
REMARK    6  A    between atoms: C_7  and  C_12
REMARK    7  A    between atoms: C_11  and  C_13
REMARK    8  A    between atoms: C_18  and  C_23
REMARK                            x       y       z     vdW  Elec       q    Type
REMARK                         _______ _______ _______ _____ _____    ______ ____
ROOT
ATOM      2  N   UNL     1      -5.134 -11.394  18.273  0.00  0.00    -0.297 NA
ATOM      7  C   UNL     1      -7.240 -11.580  19.288  0.00  0.00    +0.092 C 
ATOM      8  C   UNL     1      -6.137 -10.568  18.949  0.00  0.00    +0.097 C 
ATOM      9  C   UNL     1      -7.064 -12.708  18.257  0.00  0.00    +0.029 C 
ATOM     10  C   UNL     1      -5.901 -12.264  17.381  0.00  0.00    +0.085 C 
ENDROOT
BRANCH   7  12
ATOM      1  O   UNL     1      -8.961 -10.165  18.274  0.00  0.00    -0.420 OA
ATOM      4  N   UNL     1      -9.561 -11.070  20.230  0.00  0.00    -0.112 NA
ATOM      5  N   UNL     1     -10.616 -10.302  19.773  0.00  0.00    -0.107 NA
ATOM     12  C   UNL     1      -8.618 -10.960  19.323  0.00  0.00    +0.222 A 
ATOM     18  C   UNL     1     -10.221  -9.795  18.629  0.00  0.00    +0.248 A 
BRANCH  18  23
ATOM     23  C   UNL     1     -10.901  -8.924  17.713  0.00  0.00    +0.039 A 
ATOM     24  C   UNL     1     -12.175  -9.255  17.252  0.00  0.00    +0.015 A 
ATOM     25  C   UNL     1     -10.287  -7.748  17.283  0.00  0.00    +0.015 A 
ATOM     26  C   UNL     1     -12.222  -7.232  15.931  0.00  0.00    +0.029 A 
ATOM     27  C   UNL     1     -12.836  -8.409  16.362  0.00  0.00    +0.024 A 
ATOM     28  C   UNL     1     -10.948  -6.902  16.393  0.00  0.00    +0.024 A 
BRANCH  26   6
ATOM      6  N   UNL     1     -12.890  -6.378  15.030  0.00  0.00    -0.336 N 
ATOM     29  C   UNL     1     -14.332  -6.427  14.902  0.00  0.00    +0.129 C 
ATOM     30  C   UNL     1     -12.142  -5.433  14.223  0.00  0.00    +0.129 C 
ENDBRANCH  26   6
ENDBRANCH  18  23
ENDBRANCH   7  12
BRANCH   2  11
ATOM     11  C   UNL     1      -4.149 -10.596  17.558  0.00  0.00    +0.121 C 
BRANCH  11  13
ATOM      3  N   UNL     1      -5.484 -10.100  14.165  0.00  0.00    -0.349 N 
ATOM     13  C   UNL     1      -4.452 -10.519  16.085  0.00  0.00    -0.008 A 
ATOM     14  C   UNL     1      -3.626 -10.986  15.025  0.00  0.00    +0.004 A 
ATOM     15  C   UNL     1      -5.587  -9.980  15.525  0.00  0.00    +0.091 A 
ATOM     16  C   UNL     1      -4.296 -10.710  13.831  0.00  0.00    +0.049 A 
ATOM     17  C   UNL     1      -2.368 -11.618  14.966  0.00  0.00    +0.010 A 
ATOM     19  C   UNL     1      -3.770 -11.037  12.576  0.00  0.00    +0.026 A 
ATOM     20  C   UNL     1      -6.488  -9.644  13.229  0.00  0.00    +0.149 C 
ATOM     21  C   UNL     1      -1.828 -11.950  13.717  0.00  0.00    +0.001 A 
ATOM     22  C   UNL     1      -2.521 -11.662  12.542  0.00  0.00    +0.002 A 
ENDBRANCH  11  13
ENDBRANCH   2  11
TORSDOF 5
ENDMDL
