MODEL 1
REMARK VINA RESULT:      -6.1      0.000      0.000
REMARK  Name = 7127963
REMARK  14 active torsions:
REMARK  status: ('A' for Active; 'I' for Inactive)
REMARK    1  A    between atoms: O_4  and  C_22
REMARK    2  A    between atoms: O_4  and  C_32
REMARK    3  A    between atoms: O_6  and  C_35
REMARK    4  A    between atoms: O_6  and  C_36
REMARK    5  A    between atoms: N_8  and  C_13
REMARK    6  A    between atoms: N_9  and  C_18
REMARK    7  A    between atoms: N_10  and  C_28
REMARK    8  A    between atoms: N_11  and  C_29
REMARK    9  A    between atoms: C_12  and  C_16
REMARK   10  A    between atoms: C_17  and  C_19
REMARK   11  A    between atoms: C_18  and  C_20
REMARK   12  A    between atoms: C_18  and  C_22
REMARK   13  A    between atoms: C_20  and  C_24
REMARK   14  A    between atoms: C_20  and  C_25
REMARK                            x       y       z     vdW  Elec       q    Type
REMARK                         _______ _______ _______ _____ _____    ______ ____
ROOT
ATOM      2  O   UNL     1       9.946   5.975   3.967  0.00  0.00    -0.268 OA
ATOM      7  N   UNL     1      11.484   7.577   4.591  0.00  0.00    -0.283 N 
ATOM     12  C   UNL     1      11.877   7.923   3.232  0.00  0.00    +0.164 C 
ATOM     13  C   UNL     1      13.262   9.146   4.794  0.00  0.00    +0.094 C 
ATOM     14  C   UNL     1      12.705   9.200   3.369  0.00  0.00    +0.056 C 
ATOM     15  C   UNL     1      12.176   8.414   5.575  0.00  0.00    +0.131 C 
ATOM     17  C   UNL     1      10.479   6.642   4.855  0.00  0.00    +0.264 C 
ENDROOT
BRANCH  13   8
ATOM      3  O   UNL     1      15.844  10.337   5.139  0.00  0.00    -0.253 OA
ATOM      8  N   UNL     1      14.525   8.457   4.864  0.00  0.00    -0.295 N 
ATOM     11  N   UNL     1      16.800   8.194   5.067  0.00  0.00    -0.269 N 
ATOM     21  C   UNL     1      15.750   9.116   5.035  0.00  0.00    +0.304 C 
ATOM     37  H   UNL     1      14.536   7.450   4.729  0.00  0.00    +0.151 HD
ATOM     39  H   UNL     1      16.549   7.214   4.973  0.00  0.00    +0.156 HD
BRANCH  11  29
ATOM     29  C   UNL     1      18.181   8.456   5.223  0.00  0.00    +0.035 A 
ATOM     30  C   UNL     1      18.713   8.654   6.497  0.00  0.00    +0.027 A 
ATOM     31  C   UNL     1      19.011   8.515   4.103  0.00  0.00    +0.027 A 
ATOM     33  C   UNL     1      20.077   8.911   6.651  0.00  0.00    +0.047 A 
ATOM     34  C   UNL     1      20.373   8.771   4.257  0.00  0.00    +0.047 A 
ATOM     35  C   UNL     1      20.906   8.969   5.532  0.00  0.00    +0.120 A 
BRANCH  35   6
ATOM      6  O   UNL     1      22.235   9.217   5.682  0.00  0.00    -0.495 OA
ATOM     36  C   UNL     1      23.141   8.318   5.042  0.00  0.00    +0.277 C 
ENDBRANCH  35   6
ENDBRANCH  11  29
ENDBRANCH  13   8
BRANCH  17  19
ATOM     10  N   UNL     1       9.128   7.182   6.893  0.00  0.00    -0.346 N 
ATOM     19  C   UNL     1      10.105   6.467   6.252  0.00  0.00    +0.104 A 
ATOM     23  C   UNL     1      10.644   5.581   7.160  0.00  0.00    +0.032 A 
ATOM     26  C   UNL     1       9.035   6.768   8.196  0.00  0.00    +0.086 A 
ATOM     27  C   UNL     1       9.967   5.772   8.390  0.00  0.00    +0.020 A 
ATOM     28  C   UNL     1       8.313   8.220   6.301  0.00  0.00    +0.149 C 
ENDBRANCH  17  19
BRANCH  12  16
ATOM      1  O   UNL     1      13.859   6.616   2.989  0.00  0.00    -0.274 OA
ATOM      9  N   UNL     1      11.980   6.052   1.736  0.00  0.00    -0.301 N 
ATOM     16  C   UNL     1      12.690   6.801   2.660  0.00  0.00    +0.234 C 
ATOM     38  H   UNL     1      11.008   6.288   1.551  0.00  0.00    +0.150 HD
BRANCH   9  18
ATOM     18  C   UNL     1      12.543   4.931   1.026  0.00  0.00    +0.184 C 
BRANCH  18  20
ATOM     20  C   UNL     1      11.919   4.745  -0.375  0.00  0.00    +0.014 C 
ATOM     24  C   UNL     1      12.266   3.374  -0.960  0.00  0.00    +0.009 C 
ATOM     25  C   UNL     1      10.400   4.951  -0.392  0.00  0.00    +0.009 C 
ENDBRANCH  18  20
BRANCH  18  22
ATOM      5  O   UNL     1      11.468   3.349   2.507  0.00  0.00    -0.249 OA
ATOM     22  C   UNL     1      12.456   3.646   1.845  0.00  0.00    +0.328 C 
BRANCH  22   4
ATOM      4  O   UNL     1      13.590   2.896   1.748  0.00  0.00    -0.467 OA
ATOM     32  C   UNL     1      14.820   3.630   1.716  0.00  0.00    +0.280 C 
ENDBRANCH  22   4
ENDBRANCH  18  22
ENDBRANCH   9  18
ENDBRANCH  12  16
TORSDOF 9
ENDMDL
MODEL 2
REMARK VINA RESULT:      -5.9     26.334     30.380
REMARK  Name = 7127963
REMARK  14 active torsions:
REMARK  status: ('A' for Active; 'I' for Inactive)
REMARK    1  A    between atoms: O_4  and  C_22
REMARK    2  A    between atoms: O_4  and  C_32
REMARK    3  A    between atoms: O_6  and  C_35
REMARK    4  A    between atoms: O_6  and  C_36
REMARK    5  A    between atoms: N_8  and  C_13
REMARK    6  A    between atoms: N_9  and  C_18
REMARK    7  A    between atoms: N_10  and  C_28
REMARK    8  A    between atoms: N_11  and  C_29
REMARK    9  A    between atoms: C_12  and  C_16
REMARK   10  A    between atoms: C_17  and  C_19
REMARK   11  A    between atoms: C_18  and  C_20
REMARK   12  A    between atoms: C_18  and  C_22
REMARK   13  A    between atoms: C_20  and  C_24
REMARK   14  A    between atoms: C_20  and  C_25
REMARK                            x       y       z     vdW  Elec       q    Type
REMARK                         _______ _______ _______ _____ _____    ______ ____
ROOT
ATOM      2  O   UNL     1      -4.125 -13.227  15.514  0.00  0.00    -0.268 OA
ATOM      7  N   UNL     1      -5.161 -11.383  16.436  0.00  0.00    -0.283 N 
ATOM     12  C   UNL     1      -6.346 -12.103  16.880  0.00  0.00    +0.164 C 
ATOM     13  C   UNL     1      -6.637  -9.744  17.328  0.00  0.00    +0.094 C 
ATOM     14  C   UNL     1      -7.082 -11.131  17.800  0.00  0.00    +0.056 C 
ATOM     15  C   UNL     1      -5.212  -9.975  16.835  0.00  0.00    +0.131 C 
ATOM     17  C   UNL     1      -4.088 -12.034  15.820  0.00  0.00    +0.264 C 
ENDROOT
BRANCH  13   8
ATOM      3  O   UNL     1      -9.294  -8.719  17.636  0.00  0.00    -0.253 OA
ATOM      8  N   UNL     1      -7.483  -9.219  16.287  0.00  0.00    -0.295 N 
ATOM     11  N   UNL     1      -9.355  -8.292  15.328  0.00  0.00    -0.269 N 
ATOM     21  C   UNL     1      -8.776  -8.735  16.521  0.00  0.00    +0.304 C 
ATOM     37  H   UNL     1      -7.148  -9.252  15.329  0.00  0.00    +0.151 HD
ATOM     39  H   UNL     1      -8.787  -8.370  14.489  0.00  0.00    +0.156 HD
BRANCH  11  29
ATOM     29  C   UNL     1     -10.642  -7.737  15.141  0.00  0.00    +0.035 A 
ATOM     30  C   UNL     1     -11.668  -8.518  14.609  0.00  0.00    +0.027 A 
ATOM     31  C   UNL     1     -10.886  -6.408  15.490  0.00  0.00    +0.027 A 
ATOM     33  C   UNL     1     -12.939  -7.970  14.427  0.00  0.00    +0.047 A 
ATOM     34  C   UNL     1     -12.156  -5.861  15.307  0.00  0.00    +0.047 A 
ATOM     35  C   UNL     1     -13.182  -6.642  14.776  0.00  0.00    +0.120 A 
BRANCH  35   6
ATOM      6  O   UNL     1     -14.421  -6.109  14.600  0.00  0.00    -0.495 OA
ATOM     36  C   UNL     1     -14.640  -5.350  13.411  0.00  0.00    +0.277 C 
ENDBRANCH  35   6
ENDBRANCH  11  29
ENDBRANCH  13   8
BRANCH  17  19
ATOM     10  N   UNL     1      -2.677 -10.612  14.317  0.00  0.00    -0.346 N 
ATOM     19  C   UNL     1      -2.918 -11.218  15.522  0.00  0.00    +0.104 A 
ATOM     23  C   UNL     1      -1.871 -10.914  16.364  0.00  0.00    +0.032 A 
ATOM     26  C   UNL     1      -1.493  -9.925  14.376  0.00  0.00    +0.086 A 
ATOM     27  C   UNL     1      -0.969 -10.096  15.639  0.00  0.00    +0.020 A 
ATOM     28  C   UNL     1      -3.530 -10.677  13.151  0.00  0.00    +0.149 C 
ENDBRANCH  17  19
BRANCH  12  16
ATOM      1  O   UNL     1      -8.119 -13.243  15.761  0.00  0.00    -0.274 OA
ATOM      9  N   UNL     1      -6.734 -11.834  14.530  0.00  0.00    -0.301 N 
ATOM     16  C   UNL     1      -7.175 -12.461  15.684  0.00  0.00    +0.234 C 
ATOM     38  H   UNL     1      -5.948 -11.192  14.586  0.00  0.00    +0.150 HD
BRANCH   9  18
ATOM     18  C   UNL     1      -7.349 -12.029  13.240  0.00  0.00    +0.184 C 
BRANCH  18  20
ATOM     20  C   UNL     1      -6.345 -12.531  12.178  0.00  0.00    +0.014 C 
ATOM     24  C   UNL     1      -5.805 -13.918  12.538  0.00  0.00    +0.009 C 
ATOM     25  C   UNL     1      -6.925 -12.549  10.759  0.00  0.00    +0.009 C 
ENDBRANCH  18  20
BRANCH  18  22
ATOM      5  O   UNL     1      -9.113 -10.810  12.119  0.00  0.00    -0.249 OA
ATOM     22  C   UNL     1      -8.071 -10.771  12.766  0.00  0.00    +0.328 C 
BRANCH  22   4
ATOM      4  O   UNL     1      -7.423  -9.633  13.142  0.00  0.00    -0.467 OA
ATOM     32  C   UNL     1      -6.680  -8.972  12.112  0.00  0.00    +0.280 C 
ENDBRANCH  22   4
ENDBRANCH  18  22
ENDBRANCH   9  18
ENDBRANCH  12  16
TORSDOF 9
ENDMDL
MODEL 3
REMARK VINA RESULT:      -5.9      3.567      5.256
REMARK  Name = 7127963
REMARK  14 active torsions:
REMARK  status: ('A' for Active; 'I' for Inactive)
REMARK    1  A    between atoms: O_4  and  C_22
REMARK    2  A    between atoms: O_4  and  C_32
REMARK    3  A    between atoms: O_6  and  C_35
REMARK    4  A    between atoms: O_6  and  C_36
REMARK    5  A    between atoms: N_8  and  C_13
REMARK    6  A    between atoms: N_9  and  C_18
REMARK    7  A    between atoms: N_10  and  C_28
REMARK    8  A    between atoms: N_11  and  C_29
REMARK    9  A    between atoms: C_12  and  C_16
REMARK   10  A    between atoms: C_17  and  C_19
REMARK   11  A    between atoms: C_18  and  C_20
REMARK   12  A    between atoms: C_18  and  C_22
REMARK   13  A    between atoms: C_20  and  C_24
REMARK   14  A    between atoms: C_20  and  C_25
REMARK                            x       y       z     vdW  Elec       q    Type
REMARK                         _______ _______ _______ _____ _____    ______ ____
ROOT
ATOM      2  O   UNL     1       9.948  10.346   8.611  0.00  0.00    -0.268 OA
ATOM      7  N   UNL     1      11.799  10.886   7.345  0.00  0.00    -0.283 N 
ATOM     12  C   UNL     1      11.473   9.994   6.242  0.00  0.00    +0.164 C 
ATOM     13  C   UNL     1      13.628  11.012   5.828  0.00  0.00    +0.094 C 
ATOM     14  C   UNL     1      12.426  10.389   5.114  0.00  0.00    +0.056 C 
ATOM     15  C   UNL     1      13.014  11.656   7.067  0.00  0.00    +0.131 C 
ATOM     17  C   UNL     1      10.954  11.036   8.449  0.00  0.00    +0.264 C 
ENDROOT
BRANCH  13   8
ATOM      3  O   UNL     1      16.269  10.804   4.738  0.00  0.00    -0.253 OA
ATOM      8  N   UNL     1      14.628  10.035   6.175  0.00  0.00    -0.295 N 
ATOM     11  N   UNL     1      16.653   8.948   6.124  0.00  0.00    -0.269 N 
ATOM     21  C   UNL     1      15.902  10.001   5.594  0.00  0.00    +0.304 C 
ATOM     37  H   UNL     1      14.381   9.302   6.834  0.00  0.00    +0.151 HD
ATOM     39  H   UNL     1      16.201   8.377   6.833  0.00  0.00    +0.156 HD
BRANCH  11  29
ATOM     29  C   UNL     1      17.979   8.579   5.802  0.00  0.00    +0.035 A 
ATOM     30  C   UNL     1      18.270   8.050   4.544  0.00  0.00    +0.027 A 
ATOM     31  C   UNL     1      18.998   8.746   6.740  0.00  0.00    +0.027 A 
ATOM     33  C   UNL     1      19.579   7.687   4.225  0.00  0.00    +0.047 A 
ATOM     34  C   UNL     1      20.307   8.384   6.421  0.00  0.00    +0.047 A 
ATOM     35  C   UNL     1      20.597   7.854   5.163  0.00  0.00    +0.120 A 
BRANCH  35   6
ATOM      6  O   UNL     1      21.874   7.503   4.851  0.00  0.00    -0.495 OA
ATOM     36  C   UNL     1      22.895   8.467   5.110  0.00  0.00    +0.277 C 
ENDBRANCH  35   6
ENDBRANCH  11  29
ENDBRANCH  13   8
BRANCH  17  19
ATOM     10  N   UNL     1      10.900  13.338   9.434  0.00  0.00    -0.346 N 
ATOM     19  C   UNL     1      11.342  12.041   9.431  0.00  0.00    +0.104 A 
ATOM     23  C   UNL     1      12.193  11.882  10.503  0.00  0.00    +0.032 A 
ATOM     26  C   UNL     1      11.457  14.010  10.491  0.00  0.00    +0.086 A 
ATOM     27  C   UNL     1      12.267  13.128  11.173  0.00  0.00    +0.020 A 
ATOM     28  C   UNL     1       9.989  13.925   8.477  0.00  0.00    +0.149 C 
ENDBRANCH  17  19
BRANCH  12  16
ATOM      1  O   UNL     1      12.799   8.182   7.052  0.00  0.00    -0.274 OA
ATOM      9  N   UNL     1      10.548   7.809   6.584  0.00  0.00    -0.301 N 
ATOM     16  C   UNL     1      11.697   8.578   6.678  0.00  0.00    +0.234 C 
ATOM     38  H   UNL     1       9.685   8.246   6.275  0.00  0.00    +0.150 HD
BRANCH   9  18
ATOM     18  C   UNL     1      10.505   6.408   6.923  0.00  0.00    +0.184 C 
BRANCH  18  20
ATOM     20  C   UNL     1       9.871   5.550   5.806  0.00  0.00    +0.014 C 
ATOM     24  C   UNL     1       8.529   6.130   5.353  0.00  0.00    +0.009 C 
ATOM     25  C   UNL     1      10.792   5.358   4.596  0.00  0.00    +0.009 C 
ENDBRANCH  18  20
BRANCH  18  22
ATOM      5  O   UNL     1       8.908   6.898   8.673  0.00  0.00    -0.249 OA
ATOM     22  C   UNL     1       9.809   6.175   8.261  0.00  0.00    +0.328 C 
BRANCH  22   4
ATOM      4  O   UNL     1      10.309   5.092   8.919  0.00  0.00    -0.467 OA
ATOM     32  C   UNL     1       9.439   4.497   9.889  0.00  0.00    +0.280 C 
ENDBRANCH  22   4
ENDBRANCH  18  22
ENDBRANCH   9  18
ENDBRANCH  12  16
TORSDOF 9
ENDMDL
MODEL 4
REMARK VINA RESULT:      -5.8     25.990     29.171
REMARK  Name = 7127963
REMARK  14 active torsions:
REMARK  status: ('A' for Active; 'I' for Inactive)
REMARK    1  A    between atoms: O_4  and  C_22
REMARK    2  A    between atoms: O_4  and  C_32
REMARK    3  A    between atoms: O_6  and  C_35
REMARK    4  A    between atoms: O_6  and  C_36
REMARK    5  A    between atoms: N_8  and  C_13
REMARK    6  A    between atoms: N_9  and  C_18
REMARK    7  A    between atoms: N_10  and  C_28
REMARK    8  A    between atoms: N_11  and  C_29
REMARK    9  A    between atoms: C_12  and  C_16
REMARK   10  A    between atoms: C_17  and  C_19
REMARK   11  A    between atoms: C_18  and  C_20
REMARK   12  A    between atoms: C_18  and  C_22
REMARK   13  A    between atoms: C_20  and  C_24
REMARK   14  A    between atoms: C_20  and  C_25
REMARK                            x       y       z     vdW  Elec       q    Type
REMARK                         _______ _______ _______ _____ _____    ______ ____
ROOT
ATOM      2  O   UNL     1      -2.813 -14.782  15.188  0.00  0.00    -0.268 OA
ATOM      7  N   UNL     1      -2.439 -12.935  13.858  0.00  0.00    -0.283 N 
ATOM     12  C   UNL     1      -2.490 -11.972  14.948  0.00  0.00    +0.164 C 
ATOM     13  C   UNL     1      -2.263 -10.786  12.852  0.00  0.00    +0.094 C 
ATOM     14  C   UNL     1      -1.972 -10.664  14.350  0.00  0.00    +0.056 C 
ATOM     15  C   UNL     1      -2.133 -12.281  12.583  0.00  0.00    +0.131 C 
ATOM     17  C   UNL     1      -2.552 -14.310  14.081  0.00  0.00    +0.264 C 
ENDROOT
BRANCH  13   8
ATOM      3  O   UNL     1      -3.333 -10.487  10.212  0.00  0.00    -0.253 OA
ATOM      8  N   UNL     1      -3.571 -10.293  12.504  0.00  0.00    -0.295 N 
ATOM     11  N   UNL     1      -5.323  -9.671  11.152  0.00  0.00    -0.269 N 
ATOM     21  C   UNL     1      -4.021 -10.177  11.182  0.00  0.00    +0.304 C 
ATOM     37  H   UNL     1      -4.177  -9.962  13.249  0.00  0.00    +0.151 HD
ATOM     39  H   UNL     1      -5.755  -9.471  12.050  0.00  0.00    +0.156 HD
BRANCH  11  29
ATOM     29  C   UNL     1      -6.127  -9.410  10.019  0.00  0.00    +0.035 A 
ATOM     30  C   UNL     1      -6.346  -8.094   9.607  0.00  0.00    +0.027 A 
ATOM     31  C   UNL     1      -6.700 -10.466   9.311  0.00  0.00    +0.027 A 
ATOM     33  C   UNL     1      -7.137  -7.836   8.487  0.00  0.00    +0.047 A 
ATOM     34  C   UNL     1      -7.492 -10.208   8.192  0.00  0.00    +0.047 A 
ATOM     35  C   UNL     1      -7.710  -8.893   7.780  0.00  0.00    +0.120 A 
BRANCH  35   6
ATOM      6  O   UNL     1      -8.480  -8.642   6.687  0.00  0.00    -0.495 OA
ATOM     36  C   UNL     1      -8.498  -7.300   6.199  0.00  0.00    +0.277 C 
ENDBRANCH  35   6
ENDBRANCH  11  29
ENDBRANCH  13   8
BRANCH  17  19
ATOM     10  N   UNL     1      -3.370 -15.507  12.039  0.00  0.00    -0.346 N 
ATOM     19  C   UNL     1      -2.375 -15.174  12.920  0.00  0.00    +0.104 A 
ATOM     23  C   UNL     1      -1.218 -15.795  12.505  0.00  0.00    +0.032 A 
ATOM     26  C   UNL     1      -2.866 -16.331  11.067  0.00  0.00    +0.086 A 
ATOM     27  C   UNL     1      -1.528 -16.528  11.333  0.00  0.00    +0.020 A 
ATOM     28  C   UNL     1      -4.745 -15.066  12.108  0.00  0.00    +0.149 C 
ENDBRANCH  17  19
BRANCH  12  16
ATOM      1  O   UNL     1      -4.782 -11.358  14.696  0.00  0.00    -0.274 OA
ATOM      9  N   UNL     1      -4.082 -12.288  16.712  0.00  0.00    -0.301 N 
ATOM     16  C   UNL     1      -3.908 -11.838  15.414  0.00  0.00    +0.234 C 
ATOM     38  H   UNL     1      -3.288 -12.681  17.209  0.00  0.00    +0.150 HD
BRANCH   9  18
ATOM     18  C   UNL     1      -5.349 -12.247  17.400  0.00  0.00    +0.184 C 
BRANCH  18  20
ATOM     20  C   UNL     1      -5.185 -12.134  18.932  0.00  0.00    +0.014 C 
ATOM     24  C   UNL     1      -3.709 -12.171  19.337  0.00  0.00    +0.009 C 
ATOM     25  C   UNL     1      -5.857 -10.888  19.521  0.00  0.00    +0.009 C 
ENDBRANCH  18  20
BRANCH  18  22
ATOM      5  O   UNL     1      -5.775 -14.547  16.780  0.00  0.00    -0.249 OA
ATOM     22  C   UNL     1      -6.231 -13.434  17.025  0.00  0.00    +0.328 C 
BRANCH  22   4
ATOM      4  O   UNL     1      -7.553 -13.104  16.997  0.00  0.00    -0.467 OA
ATOM     32  C   UNL     1      -7.864 -11.832  16.418  0.00  0.00    +0.280 C 
ENDBRANCH  22   4
ENDBRANCH  18  22
ENDBRANCH   9  18
ENDBRANCH  12  16
TORSDOF 9
ENDMDL
MODEL 5
REMARK VINA RESULT:      -5.7     26.949     30.499
REMARK  Name = 7127963
REMARK  14 active torsions:
REMARK  status: ('A' for Active; 'I' for Inactive)
REMARK    1  A    between atoms: O_4  and  C_22
REMARK    2  A    between atoms: O_4  and  C_32
REMARK    3  A    between atoms: O_6  and  C_35
REMARK    4  A    between atoms: O_6  and  C_36
REMARK    5  A    between atoms: N_8  and  C_13
REMARK    6  A    between atoms: N_9  and  C_18
REMARK    7  A    between atoms: N_10  and  C_28
REMARK    8  A    between atoms: N_11  and  C_29
REMARK    9  A    between atoms: C_12  and  C_16
REMARK   10  A    between atoms: C_17  and  C_19
REMARK   11  A    between atoms: C_18  and  C_20
REMARK   12  A    between atoms: C_18  and  C_22
REMARK   13  A    between atoms: C_20  and  C_24
REMARK   14  A    between atoms: C_20  and  C_25
REMARK                            x       y       z     vdW  Elec       q    Type
REMARK                         _______ _______ _______ _____ _____    ______ ____
ROOT
ATOM      2  O   UNL     1     -10.982  12.381  14.447  0.00  0.00    -0.268 OA
ATOM      7  N   UNL     1     -10.414  10.804  16.032  0.00  0.00    -0.283 N 
ATOM     12  C   UNL     1     -11.032   9.685  15.335  0.00  0.00    +0.164 C 
ATOM     13  C   UNL     1     -10.199   8.924  17.475  0.00  0.00    +0.094 C 
ATOM     14  C   UNL     1     -10.534   8.437  16.063  0.00  0.00    +0.056 C 
ATOM     15  C   UNL     1      -9.744  10.364  17.258  0.00  0.00    +0.131 C 
ATOM     17  C   UNL     1     -10.389  12.091  15.487  0.00  0.00    +0.264 C 
ENDROOT
BRANCH  13   8
ATOM      3  O   UNL     1     -11.217   6.574  18.759  0.00  0.00    -0.253 OA
ATOM      8  N   UNL     1     -11.329   8.850  18.365  0.00  0.00    -0.295 N 
ATOM     11  N   UNL     1     -12.879   7.891  19.766  0.00  0.00    -0.269 N 
ATOM     21  C   UNL     1     -11.766   7.657  18.954  0.00  0.00    +0.304 C 
ATOM     37  H   UNL     1     -11.870   9.694  18.531  0.00  0.00    +0.151 HD
ATOM     39  H   UNL     1     -13.206   8.851  19.825  0.00  0.00    +0.156 HD
BRANCH  11  29
ATOM     29  C   UNL     1     -13.610   6.952  20.530  0.00  0.00    +0.035 A 
ATOM     30  C   UNL     1     -14.976   6.780  20.303  0.00  0.00    +0.027 A 
ATOM     31  C   UNL     1     -12.964   6.196  21.509  0.00  0.00    +0.027 A 
ATOM     33  C   UNL     1     -15.696   5.851  21.056  0.00  0.00    +0.047 A 
ATOM     34  C   UNL     1     -13.684   5.268  22.261  0.00  0.00    +0.047 A 
ATOM     35  C   UNL     1     -15.050   5.096  22.034  0.00  0.00    +0.120 A 
BRANCH  35   6
ATOM      6  O   UNL     1     -15.752   4.189  22.767  0.00  0.00    -0.495 OA
ATOM     36  C   UNL     1     -15.347   3.994  24.122  0.00  0.00    +0.277 C 
ENDBRANCH  35   6
ENDBRANCH  11  29
ENDBRANCH  13   8
BRANCH  17  19
ATOM     10  N   UNL     1     -10.189  13.928  17.177  0.00  0.00    -0.346 N 
ATOM     19  C   UNL     1      -9.645  13.098  16.233  0.00  0.00    +0.104 A 
ATOM     23  C   UNL     1      -8.303  13.395  16.133  0.00  0.00    +0.032 A 
ATOM     26  C   UNL     1      -9.216  14.750  17.682  0.00  0.00    +0.086 A 
ATOM     27  C   UNL     1      -8.032  14.441  17.049  0.00  0.00    +0.020 A 
ATOM     28  C   UNL     1     -11.575  13.947  17.590  0.00  0.00    +0.149 C 
ENDBRANCH  17  19
BRANCH  12  16
ATOM      1  O   UNL     1     -13.073  10.216  16.453  0.00  0.00    -0.274 OA
ATOM      9  N   UNL     1     -13.162   9.420  14.267  0.00  0.00    -0.301 N 
ATOM     16  C   UNL     1     -12.523   9.816  15.430  0.00  0.00    +0.234 C 
ATOM     38  H   UNL     1     -12.603   9.119  13.473  0.00  0.00    +0.150 HD
BRANCH   9  18
ATOM     18  C   UNL     1     -14.595   9.429  14.109  0.00  0.00    +0.184 C 
BRANCH  18  20
ATOM     20  C   UNL     1     -15.204   8.011  14.162  0.00  0.00    +0.014 C 
ATOM     24  C   UNL     1     -14.298   6.991  13.466  0.00  0.00    +0.009 C 
ATOM     25  C   UNL     1     -15.521   7.541  15.587  0.00  0.00    +0.009 C 
ENDBRANCH  18  20
BRANCH  18  22
ATOM      5  O   UNL     1     -16.186  10.442  12.594  0.00  0.00    -0.249 OA
ATOM     22  C   UNL     1     -15.017  10.165  12.841  0.00  0.00    +0.328 C 
BRANCH  22   4
ATOM      4  O   UNL     1     -13.955  10.462  12.041  0.00  0.00    -0.467 OA
ATOM     32  C   UNL     1     -13.939   9.817  10.763  0.00  0.00    +0.280 C 
ENDBRANCH  22   4
ENDBRANCH  18  22
ENDBRANCH   9  18
ENDBRANCH  12  16
TORSDOF 9
ENDMDL
MODEL 6
REMARK VINA RESULT:      -5.6     25.394     28.598
REMARK  Name = 7127963
REMARK  14 active torsions:
REMARK  status: ('A' for Active; 'I' for Inactive)
REMARK    1  A    between atoms: O_4  and  C_22
REMARK    2  A    between atoms: O_4  and  C_32
REMARK    3  A    between atoms: O_6  and  C_35
REMARK    4  A    between atoms: O_6  and  C_36
REMARK    5  A    between atoms: N_8  and  C_13
REMARK    6  A    between atoms: N_9  and  C_18
REMARK    7  A    between atoms: N_10  and  C_28
REMARK    8  A    between atoms: N_11  and  C_29
REMARK    9  A    between atoms: C_12  and  C_16
REMARK   10  A    between atoms: C_17  and  C_19
REMARK   11  A    between atoms: C_18  and  C_20
REMARK   12  A    between atoms: C_18  and  C_22
REMARK   13  A    between atoms: C_20  and  C_24
REMARK   14  A    between atoms: C_20  and  C_25
REMARK                            x       y       z     vdW  Elec       q    Type
REMARK                         _______ _______ _______ _____ _____    ______ ____
ROOT
ATOM      2  O   UNL     1      -5.349 -10.234   6.514  0.00  0.00    -0.268 OA
ATOM      7  N   UNL     1      -7.047  -9.893   8.037  0.00  0.00    -0.283 N 
ATOM     12  C   UNL     1      -8.127 -10.074   7.077  0.00  0.00    +0.164 C 
ATOM     13  C   UNL     1      -9.064  -9.432   9.213  0.00  0.00    +0.094 C 
ATOM     14  C   UNL     1      -9.397 -10.181   7.920  0.00  0.00    +0.056 C 
ATOM     15  C   UNL     1      -7.568  -9.668   9.388  0.00  0.00    +0.131 C 
ATOM     17  C   UNL     1      -5.705 -10.049   7.678  0.00  0.00    +0.264 C 
ENDROOT
BRANCH  13   8
ATOM      3  O   UNL     1     -11.545  -8.185   9.917  0.00  0.00    -0.253 OA
ATOM      8  N   UNL     1      -9.376  -8.028   9.131  0.00  0.00    -0.295 N 
ATOM     11  N   UNL     1     -10.630  -6.110   9.311  0.00  0.00    -0.269 N 
ATOM     21  C   UNL     1     -10.619  -7.495   9.496  0.00  0.00    +0.304 C 
ATOM     37  H   UNL     1      -8.681  -7.400   8.738  0.00  0.00    +0.151 HD
ATOM     39  H   UNL     1      -9.774  -5.690   8.959  0.00  0.00    +0.156 HD
BRANCH  11  29
ATOM     29  C   UNL     1     -11.691  -5.209   9.562  0.00  0.00    +0.035 A 
ATOM     30  C   UNL     1     -12.696  -5.032   8.611  0.00  0.00    +0.027 A 
ATOM     31  C   UNL     1     -11.733  -4.499  10.762  0.00  0.00    +0.027 A 
ATOM     33  C   UNL     1     -13.744  -4.145   8.860  0.00  0.00    +0.047 A 
ATOM     34  C   UNL     1     -12.781  -3.612  11.011  0.00  0.00    +0.047 A 
ATOM     35  C   UNL     1     -13.786  -3.435  10.060  0.00  0.00    +0.120 A 
BRANCH  35   6
ATOM      6  O   UNL     1     -14.808  -2.571  10.303  0.00  0.00    -0.495 OA
ATOM     36  C   UNL     1     -15.502  -2.049   9.170  0.00  0.00    +0.277 C 
ENDBRANCH  35   6
ENDBRANCH  11  29
ENDBRANCH  13   8
BRANCH  17  19
ATOM     10  N   UNL     1      -4.268 -11.010   9.490  0.00  0.00    -0.346 N 
ATOM     19  C   UNL     1      -4.729  -9.949   8.756  0.00  0.00    +0.104 A 
ATOM     23  C   UNL     1      -4.108  -8.811   9.223  0.00  0.00    +0.032 A 
ATOM     26  C   UNL     1      -3.363 -10.568  10.419  0.00  0.00    +0.086 A 
ATOM     27  C   UNL     1      -3.244  -9.202  10.275  0.00  0.00    +0.020 A 
ATOM     28  C   UNL     1      -4.665 -12.391   9.325  0.00  0.00    +0.149 C 
ENDBRANCH  17  19
BRANCH  12  16
ATOM      1  O   UNL     1      -7.879  -7.757   6.558  0.00  0.00    -0.274 OA
ATOM      9  N   UNL     1      -8.594  -9.214   4.889  0.00  0.00    -0.301 N 
ATOM     16  C   UNL     1      -8.173  -8.884   6.167  0.00  0.00    +0.234 C 
ATOM     38  H   UNL     1      -8.798 -10.185   4.671  0.00  0.00    +0.150 HD
BRANCH   9  18
ATOM     18  C   UNL     1      -8.745  -8.245   3.831  0.00  0.00    +0.184 C 
BRANCH  18  20
ATOM     20  C   UNL     1     -10.226  -7.950   3.507  0.00  0.00    +0.014 C 
ATOM     24  C   UNL     1     -11.124  -8.220   4.717  0.00  0.00    +0.009 C 
ATOM     25  C   UNL     1     -10.460  -6.526   2.991  0.00  0.00    +0.009 C 
ENDBRANCH  18  20
BRANCH  18  22
ATOM      5  O   UNL     1      -7.517  -7.841   1.786  0.00  0.00    -0.249 OA
ATOM     22  C   UNL     1      -7.977  -8.657   2.579  0.00  0.00    +0.328 C 
BRANCH  22   4
ATOM      4  O   UNL     1      -7.875 -10.010   2.459  0.00  0.00    -0.467 OA
ATOM     32  C   UNL     1      -8.645 -10.601   1.406  0.00  0.00    +0.280 C 
ENDBRANCH  22   4
ENDBRANCH  18  22
ENDBRANCH   9  18
ENDBRANCH  12  16
TORSDOF 9
ENDMDL
MODEL 7
REMARK VINA RESULT:      -5.6      3.339      7.046
REMARK  Name = 7127963
REMARK  14 active torsions:
REMARK  status: ('A' for Active; 'I' for Inactive)
REMARK    1  A    between atoms: O_4  and  C_22
REMARK    2  A    between atoms: O_4  and  C_32
REMARK    3  A    between atoms: O_6  and  C_35
REMARK    4  A    between atoms: O_6  and  C_36
REMARK    5  A    between atoms: N_8  and  C_13
REMARK    6  A    between atoms: N_9  and  C_18
REMARK    7  A    between atoms: N_10  and  C_28
REMARK    8  A    between atoms: N_11  and  C_29
REMARK    9  A    between atoms: C_12  and  C_16
REMARK   10  A    between atoms: C_17  and  C_19
REMARK   11  A    between atoms: C_18  and  C_20
REMARK   12  A    between atoms: C_18  and  C_22
REMARK   13  A    between atoms: C_20  and  C_24
REMARK   14  A    between atoms: C_20  and  C_25
REMARK                            x       y       z     vdW  Elec       q    Type
REMARK                         _______ _______ _______ _____ _____    ______ ____
ROOT
ATOM      2  O   UNL     1       8.891  10.516   6.792  0.00  0.00    -0.268 OA
ATOM      7  N   UNL     1       8.735   8.666   5.423  0.00  0.00    -0.283 N 
ATOM     12  C   UNL     1       8.668   7.700   6.511  0.00  0.00    +0.164 C 
ATOM     13  C   UNL     1       8.740   6.517   4.402  0.00  0.00    +0.094 C 
ATOM     14  C   UNL     1       8.263   6.383   5.850  0.00  0.00    +0.056 C 
ATOM     15  C   UNL     1       8.611   8.010   4.119  0.00  0.00    +0.131 C 
ATOM     17  C   UNL     1       8.785  10.043   5.660  0.00  0.00    +0.264 C 
ENDROOT
BRANCH  13   8
ATOM      3  O   UNL     1      10.037   5.931   1.916  0.00  0.00    -0.253 OA
ATOM      8  N   UNL     1      10.093   6.056   4.224  0.00  0.00    -0.295 N 
ATOM     11  N   UNL     1      11.978   5.359   3.107  0.00  0.00    -0.269 N 
ATOM     21  C   UNL     1      10.656   5.791   2.969  0.00  0.00    +0.304 C 
ATOM     37  H   UNL     1      10.650   5.860   5.051  0.00  0.00    +0.151 HD
ATOM     39  H   UNL     1      12.343   5.304   4.054  0.00  0.00    +0.156 HD
BRANCH  11  29
ATOM     29  C   UNL     1      12.884   4.995   2.084  0.00  0.00    +0.035 A 
ATOM     30  C   UNL     1      13.882   5.885   1.688  0.00  0.00    +0.027 A 
ATOM     31  C   UNL     1      12.780   3.746   1.472  0.00  0.00    +0.027 A 
ATOM     33  C   UNL     1      14.778   5.525   0.679  0.00  0.00    +0.047 A 
ATOM     34  C   UNL     1      13.675   3.386   0.464  0.00  0.00    +0.047 A 
ATOM     35  C   UNL     1      14.673   4.276   0.068  0.00  0.00    +0.120 A 
BRANCH  35   6
ATOM      6  O   UNL     1      15.547   3.924  -0.913  0.00  0.00    -0.495 OA
ATOM     36  C   UNL     1      16.659   4.791  -1.135  0.00  0.00    +0.277 C 
ENDBRANCH  35   6
ENDBRANCH  11  29
ENDBRANCH  13   8
BRANCH  17  19
ATOM     10  N   UNL     1       7.587  11.358   3.898  0.00  0.00    -0.346 N 
ATOM     19  C   UNL     1       8.739  10.906   4.487  0.00  0.00    +0.104 A 
ATOM     23  C   UNL     1       9.804  11.411   3.774  0.00  0.00    +0.032 A 
ATOM     26  C   UNL     1       7.900  12.144   2.820  0.00  0.00    +0.086 A 
ATOM     27  C   UNL     1       9.273  12.194   2.719  0.00  0.00    +0.020 A 
ATOM     28  C   UNL     1       6.240  11.060   4.333  0.00  0.00    +0.149 C 
ENDBRANCH  17  19
BRANCH  12  16
ATOM      1  O   UNL     1      10.222   6.863   8.117  0.00  0.00    -0.274 OA
ATOM      9  N   UNL     1      10.953   8.424   6.553  0.00  0.00    -0.301 N 
ATOM     16  C   UNL     1      10.018   7.597   7.154  0.00  0.00    +0.234 C 
ATOM     38  H   UNL     1      10.676   8.981   5.749  0.00  0.00    +0.150 HD
BRANCH   9  18
ATOM     18  C   UNL     1      12.320   8.527   6.999  0.00  0.00    +0.184 C 
BRANCH  18  20
ATOM     20  C   UNL     1      12.783   9.993   7.150  0.00  0.00    +0.014 C 
ATOM     24  C   UNL     1      12.702  10.742   5.817  0.00  0.00    +0.009 C 
ATOM     25  C   UNL     1      12.011  10.762   8.229  0.00  0.00    +0.009 C 
ENDBRANCH  18  20
BRANCH  18  22
ATOM      5  O   UNL     1      12.923   7.293   5.007  0.00  0.00    -0.249 OA
ATOM     22  C   UNL     1      13.266   7.740   6.097  0.00  0.00    +0.328 C 
BRANCH  22   4
ATOM      4  O   UNL     1      14.504   7.599   6.649  0.00  0.00    -0.467 OA
ATOM     32  C   UNL     1      15.601   8.017   5.829  0.00  0.00    +0.280 C 
ENDBRANCH  22   4
ENDBRANCH  18  22
ENDBRANCH   9  18
ENDBRANCH  12  16
TORSDOF 9
ENDMDL
MODEL 8
REMARK VINA RESULT:      -5.5     31.878     36.056
REMARK  Name = 7127963
REMARK  14 active torsions:
REMARK  status: ('A' for Active; 'I' for Inactive)
REMARK    1  A    between atoms: O_4  and  C_22
REMARK    2  A    between atoms: O_4  and  C_32
REMARK    3  A    between atoms: O_6  and  C_35
REMARK    4  A    between atoms: O_6  and  C_36
REMARK    5  A    between atoms: N_8  and  C_13
REMARK    6  A    between atoms: N_9  and  C_18
REMARK    7  A    between atoms: N_10  and  C_28
REMARK    8  A    between atoms: N_11  and  C_29
REMARK    9  A    between atoms: C_12  and  C_16
REMARK   10  A    between atoms: C_17  and  C_19
REMARK   11  A    between atoms: C_18  and  C_20
REMARK   12  A    between atoms: C_18  and  C_22
REMARK   13  A    between atoms: C_20  and  C_24
REMARK   14  A    between atoms: C_20  and  C_25
REMARK                            x       y       z     vdW  Elec       q    Type
REMARK                         _______ _______ _______ _____ _____    ______ ____
ROOT
ATOM      2  O   UNL     1      11.247  -4.678  35.875  0.00  0.00    -0.268 OA
ATOM      7  N   UNL     1       9.566  -5.575  34.575  0.00  0.00    -0.283 N 
ATOM     12  C   UNL     1       8.581  -4.556  34.907  0.00  0.00    +0.164 C 
ATOM     13  C   UNL     1       7.537  -6.249  33.529  0.00  0.00    +0.094 C 
ATOM     14  C   UNL     1       7.435  -4.772  33.920  0.00  0.00    +0.056 C 
ATOM     15  C   UNL     1       9.033  -6.535  33.605  0.00  0.00    +0.131 C 
ATOM     17  C   UNL     1      10.877  -5.520  35.056  0.00  0.00    +0.264 C 
ENDROOT
BRANCH  13   8
ATOM      3  O   UNL     1       6.005  -8.552  32.787  0.00  0.00    -0.253 OA
ATOM      8  N   UNL     1       6.785  -7.104  34.412  0.00  0.00    -0.295 N 
ATOM     11  N   UNL     1       5.433  -8.852  35.044  0.00  0.00    -0.269 N 
ATOM     21  C   UNL     1       6.059  -8.216  33.968  0.00  0.00    +0.304 C 
ATOM     37  H   UNL     1       6.734  -6.858  35.396  0.00  0.00    +0.151 HD
ATOM     39  H   UNL     1       5.585  -8.448  35.964  0.00  0.00    +0.156 HD
BRANCH  11  29
ATOM     29  C   UNL     1       4.613 -10.004  35.014  0.00  0.00    +0.035 A 
ATOM     30  C   UNL     1       5.116 -11.205  34.512  0.00  0.00    +0.027 A 
ATOM     31  C   UNL     1       3.302  -9.941  35.488  0.00  0.00    +0.027 A 
ATOM     33  C   UNL     1       4.307 -12.342  34.484  0.00  0.00    +0.047 A 
ATOM     34  C   UNL     1       2.495 -11.077  35.460  0.00  0.00    +0.047 A 
ATOM     35  C   UNL     1       2.997 -12.278  34.958  0.00  0.00    +0.120 A 
BRANCH  35   6
ATOM      6  O   UNL     1       2.210 -13.387  34.933  0.00  0.00    -0.495 OA
ATOM     36  C   UNL     1       2.435 -14.321  33.876  0.00  0.00    +0.277 C 
ENDBRANCH  35   6
ENDBRANCH  11  29
ENDBRANCH  13   8
BRANCH  17  19
ATOM     10  N   UNL     1      12.534  -6.432  33.414  0.00  0.00    -0.346 N 
ATOM     19  C   UNL     1      11.794  -6.540  34.562  0.00  0.00    +0.104 A 
ATOM     23  C   UNL     1      12.079  -7.761  35.135  0.00  0.00    +0.032 A 
ATOM     26  C   UNL     1      13.287  -7.564  33.244  0.00  0.00    +0.086 A 
ATOM     27  C   UNL     1      13.023  -8.409  34.300  0.00  0.00    +0.020 A 
ATOM     28  C   UNL     1      12.532  -5.304  32.509  0.00  0.00    +0.149 C 
ENDBRANCH  17  19
BRANCH  12  16
ATOM      1  O   UNL     1       8.218  -5.848  36.881  0.00  0.00    -0.274 OA
ATOM      9  N   UNL     1       7.606  -3.601  36.878  0.00  0.00    -0.301 N 
ATOM     16  C   UNL     1       8.130  -4.757  36.322  0.00  0.00    +0.234 C 
ATOM     38  H   UNL     1       7.596  -2.748  36.326  0.00  0.00    +0.150 HD
BRANCH   9  18
ATOM     18  C   UNL     1       7.082  -3.536  38.220  0.00  0.00    +0.184 C 
BRANCH  18  20
ATOM     20  C   UNL     1       5.538  -3.558  38.253  0.00  0.00    +0.014 C 
ATOM     24  C   UNL     1       4.947  -2.965  36.971  0.00  0.00    +0.009 C 
ATOM     25  C   UNL     1       4.958  -4.956  38.497  0.00  0.00    +0.009 C 
ENDBRANCH  18  20
BRANCH  18  22
ATOM      5  O   UNL     1       6.988  -1.738  39.835  0.00  0.00    -0.249 OA
ATOM     22  C   UNL     1       7.635  -2.335  38.981  0.00  0.00    +0.328 C 
BRANCH  22   4
ATOM      4  O   UNL     1       8.903  -2.020  38.595  0.00  0.00    -0.467 OA
ATOM     32  C   UNL     1       9.787  -1.605  39.643  0.00  0.00    +0.280 C 
ENDBRANCH  22   4
ENDBRANCH  18  22
ENDBRANCH   9  18
ENDBRANCH  12  16
TORSDOF 9
ENDMDL
MODEL 9
REMARK VINA RESULT:      -5.5      3.031      7.769
REMARK  Name = 7127963
REMARK  14 active torsions:
REMARK  status: ('A' for Active; 'I' for Inactive)
REMARK    1  A    between atoms: O_4  and  C_22
REMARK    2  A    between atoms: O_4  and  C_32
REMARK    3  A    between atoms: O_6  and  C_35
REMARK    4  A    between atoms: O_6  and  C_36
REMARK    5  A    between atoms: N_8  and  C_13
REMARK    6  A    between atoms: N_9  and  C_18
REMARK    7  A    between atoms: N_10  and  C_28
REMARK    8  A    between atoms: N_11  and  C_29
REMARK    9  A    between atoms: C_12  and  C_16
REMARK   10  A    between atoms: C_17  and  C_19
REMARK   11  A    between atoms: C_18  and  C_20
REMARK   12  A    between atoms: C_18  and  C_22
REMARK   13  A    between atoms: C_20  and  C_24
REMARK   14  A    between atoms: C_20  and  C_25
REMARK                            x       y       z     vdW  Elec       q    Type
REMARK                         _______ _______ _______ _____ _____    ______ ____
ROOT
ATOM      2  O   UNL     1      13.068   9.730   7.529  0.00  0.00    -0.268 OA
ATOM      7  N   UNL     1      12.987   9.686   5.224  0.00  0.00    -0.283 N 
ATOM     12  C   UNL     1      11.613   9.210   5.147  0.00  0.00    +0.164 C 
ATOM     13  C   UNL     1      12.540   9.323   2.915  0.00  0.00    +0.094 C 
ATOM     14  C   UNL     1      11.215   9.375   3.681  0.00  0.00    +0.056 C 
ATOM     15  C   UNL     1      13.541   9.934   3.890  0.00  0.00    +0.131 C 
ATOM     17  C   UNL     1      13.603   9.971   6.446  0.00  0.00    +0.264 C 
ENDROOT
BRANCH  13   8
ATOM      3  O   UNL     1      11.902   7.988   0.462  0.00  0.00    -0.253 OA
ATOM      8  N   UNL     1      12.908   7.981   2.544  0.00  0.00    -0.295 N 
ATOM     11  N   UNL     1      13.049   6.093   1.239  0.00  0.00    -0.269 N 
ATOM     21  C   UNL     1      12.556   7.398   1.320  0.00  0.00    +0.304 C 
ATOM     37  H   UNL     1      13.401   7.409   3.224  0.00  0.00    +0.151 HD
ATOM     39  H   UNL     1      13.579   5.756   2.038  0.00  0.00    +0.156 HD
BRANCH  11  29
ATOM     29  C   UNL     1      12.909   5.176   0.172  0.00  0.00    +0.035 A 
ATOM     30  C   UNL     1      13.987   4.926  -0.679  0.00  0.00    +0.027 A 
ATOM     31  C   UNL     1      11.695   4.520  -0.030  0.00  0.00    +0.027 A 
ATOM     33  C   UNL     1      13.849   4.020  -1.731  0.00  0.00    +0.047 A 
ATOM     34  C   UNL     1      11.557   3.614  -1.082  0.00  0.00    +0.047 A 
ATOM     35  C   UNL     1      12.635   3.365  -1.932  0.00  0.00    +0.120 A 
BRANCH  35   6
ATOM      6  O   UNL     1      12.501   2.480  -2.957  0.00  0.00    -0.495 OA
ATOM     36  C   UNL     1      12.622   2.996  -4.282  0.00  0.00    +0.277 C 
ENDBRANCH  35   6
ENDBRANCH  11  29
ENDBRANCH  13   8
BRANCH  17  19
ATOM     10  N   UNL     1      16.094   9.818   6.232  0.00  0.00    -0.346 N 
ATOM     19  C   UNL     1      14.941  10.544   6.380  0.00  0.00    +0.104 A 
ATOM     23  C   UNL     1      15.288  11.876   6.452  0.00  0.00    +0.032 A 
ATOM     26  C   UNL     1      17.171  10.664   6.209  0.00  0.00    +0.086 A 
ATOM     27  C   UNL     1      16.699  11.952   6.345  0.00  0.00    +0.020 A 
ATOM     28  C   UNL     1      16.179   8.378   6.118  0.00  0.00    +0.149 C 
ENDBRANCH  17  19
BRANCH  12  16
ATOM      1  O   UNL     1      12.522   7.015   5.380  0.00  0.00    -0.274 OA
ATOM      9  N   UNL     1      10.364   7.426   6.149  0.00  0.00    -0.301 N 
ATOM     16  C   UNL     1      11.573   7.772   5.567  0.00  0.00    +0.234 C 
ATOM     38  H   UNL     1       9.650   8.140   6.267  0.00  0.00    +0.150 HD
BRANCH   9  18
ATOM     18  C   UNL     1      10.063   6.096   6.618  0.00  0.00    +0.184 C 
BRANCH  18  20
ATOM     20  C   UNL     1       9.234   5.284   5.600  0.00  0.00    +0.014 C 
ATOM     24  C   UNL     1       8.156   6.151   4.944  0.00  0.00    +0.009 C 
ATOM     25  C   UNL     1      10.091   4.612   4.521  0.00  0.00    +0.009 C 
ENDBRANCH  18  20
BRANCH  18  22
ATOM      5  O   UNL     1       8.995   7.159   8.511  0.00  0.00    -0.249 OA
ATOM     22  C   UNL     1       9.388   6.122   7.986  0.00  0.00    +0.328 C 
BRANCH  22   4
ATOM      4  O   UNL     1       9.284   4.878   8.533  0.00  0.00    -0.467 OA
ATOM     32  C   UNL     1       9.565   4.790   9.934  0.00  0.00    +0.280 C 
ENDBRANCH  22   4
ENDBRANCH  18  22
ENDBRANCH   9  18
ENDBRANCH  12  16
TORSDOF 9
ENDMDL
MODEL 10
REMARK VINA RESULT:      -5.4     32.654     35.633
REMARK  Name = 7127963
REMARK  14 active torsions:
REMARK  status: ('A' for Active; 'I' for Inactive)
REMARK    1  A    between atoms: O_4  and  C_22
REMARK    2  A    between atoms: O_4  and  C_32
REMARK    3  A    between atoms: O_6  and  C_35
REMARK    4  A    between atoms: O_6  and  C_36
REMARK    5  A    between atoms: N_8  and  C_13
REMARK    6  A    between atoms: N_9  and  C_18
REMARK    7  A    between atoms: N_10  and  C_28
REMARK    8  A    between atoms: N_11  and  C_29
REMARK    9  A    between atoms: C_12  and  C_16
REMARK   10  A    between atoms: C_17  and  C_19
REMARK   11  A    between atoms: C_18  and  C_20
REMARK   12  A    between atoms: C_18  and  C_22
REMARK   13  A    between atoms: C_20  and  C_24
REMARK   14  A    between atoms: C_20  and  C_25
REMARK                            x       y       z     vdW  Elec       q    Type
REMARK                         _______ _______ _______ _____ _____    ______ ____
ROOT
ATOM      2  O   UNL     1       7.640  -7.246  36.666  0.00  0.00    -0.268 OA
ATOM      7  N   UNL     1       7.874  -7.695  34.415  0.00  0.00    -0.283 N 
ATOM     12  C   UNL     1       6.447  -7.683  34.126  0.00  0.00    +0.164 C 
ATOM     13  C   UNL     1       7.655  -8.315  32.128  0.00  0.00    +0.094 C 
ATOM     14  C   UNL     1       6.348  -7.673  32.602  0.00  0.00    +0.056 C 
ATOM     15  C   UNL     1       8.662  -7.907  33.198  0.00  0.00    +0.131 C 
ATOM     17  C   UNL     1       8.373  -7.411  35.690  0.00  0.00    +0.264 C 
ENDROOT
BRANCH  13   8
ATOM      3  O   UNL     1       6.711  -9.784  29.857  0.00  0.00    -0.253 OA
ATOM      8  N   UNL     1       7.553  -9.747  32.010  0.00  0.00    -0.295 N 
ATOM     11  N   UNL     1       7.093 -11.778  31.036  0.00  0.00    -0.269 N 
ATOM     21  C   UNL     1       7.079 -10.391  30.861  0.00  0.00    +0.304 C 
ATOM     37  H   UNL     1       7.785 -10.317  32.819  0.00  0.00    +0.151 HD
ATOM     39  H   UNL     1       7.436 -12.121  31.928  0.00  0.00    +0.156 HD
BRANCH  11  29
ATOM     29  C   UNL     1       6.695 -12.773  30.114  0.00  0.00    +0.035 A 
ATOM     30  C   UNL     1       7.576 -13.193  29.117  0.00  0.00    +0.027 A 
ATOM     31  C   UNL     1       5.422 -13.338  30.202  0.00  0.00    +0.027 A 
ATOM     33  C   UNL     1       7.184 -14.177  28.208  0.00  0.00    +0.047 A 
ATOM     34  C   UNL     1       5.030 -14.321  29.294  0.00  0.00    +0.047 A 
ATOM     35  C   UNL     1       5.911 -14.741  28.297  0.00  0.00    +0.120 A 
BRANCH  35   6
ATOM      6  O   UNL     1       5.530 -15.701  27.413  0.00  0.00    -0.495 OA
ATOM     36  C   UNL     1       4.903 -16.867  27.949  0.00  0.00    +0.277 C 
ENDBRANCH  35   6
ENDBRANCH  11  29
ENDBRANCH  13   8
BRANCH  17  19
ATOM     10  N   UNL     1      10.574  -6.218  35.630  0.00  0.00    -0.346 N 
ATOM     19  C   UNL     1       9.823  -7.348  35.821  0.00  0.00    +0.104 A 
ATOM     23  C   UNL     1      10.681  -8.375  36.149  0.00  0.00    +0.032 A 
ATOM     26  C   UNL     1      11.898  -6.507  35.831  0.00  0.00    +0.086 A 
ATOM     27  C   UNL     1      11.994  -7.843  36.155  0.00  0.00    +0.020 A 
ATOM     28  C   UNL     1      10.064  -4.913  35.270  0.00  0.00    +0.149 C 
ENDBRANCH  17  19
BRANCH  12  16
ATOM      1  O   UNL     1       6.167 -10.042  34.360  0.00  0.00    -0.274 OA
ATOM      9  N   UNL     1       4.834  -8.619  35.633  0.00  0.00    -0.301 N 
ATOM     16  C   UNL     1       5.822  -8.915  34.708  0.00  0.00    +0.234 C 
ATOM     38  H   UNL     1       4.641  -7.646  35.856  0.00  0.00    +0.150 HD
BRANCH   9  18
ATOM     18  C   UNL     1       4.065  -9.627  36.319  0.00  0.00    +0.184 C 
BRANCH  18  20
ATOM     20  C   UNL     1       2.770  -9.999  35.564  0.00  0.00    +0.014 C 
ATOM     24  C   UNL     1       2.782 -11.468  35.133  0.00  0.00    +0.009 C 
ATOM     25  C   UNL     1       1.497  -9.699  36.362  0.00  0.00    +0.009 C 
ENDBRANCH  18  20
BRANCH  18  22
ATOM      5  O   UNL     1       3.484  -8.074  38.080  0.00  0.00    -0.249 OA
ATOM     22  C   UNL     1       3.768  -9.223  37.760  0.00  0.00    +0.328 C 
BRANCH  22   4
ATOM      4  O   UNL     1       3.860 -10.277  38.620  0.00  0.00    -0.467 OA
ATOM     32  C   UNL     1       4.926 -11.197  38.364  0.00  0.00    +0.280 C 
ENDBRANCH  22   4
ENDBRANCH  18  22
ENDBRANCH   9  18
ENDBRANCH  12  16
TORSDOF 9
ENDMDL
