MODEL 1
REMARK VINA RESULT:      -6.8      0.000      0.000
REMARK  Name = 11882072
REMARK  11 active torsions:
REMARK  status: ('A' for Active; 'I' for Inactive)
REMARK    1  A    between atoms: O_6  and  C_35
REMARK    2  A    between atoms: O_6  and  C_38
REMARK    3  A    between atoms: N_8  and  C_13
REMARK    4  A    between atoms: N_9  and  C_20
REMARK    5  A    between atoms: N_10  and  C_28
REMARK    6  A    between atoms: N_11  and  C_29
REMARK    7  A    between atoms: C_14  and  C_17
REMARK    8  A    between atoms: C_18  and  C_19
REMARK    9  A    between atoms: C_20  and  C_22
REMARK   10  A    between atoms: C_20  and  C_24
REMARK   11  A    between atoms: C_22  and  C_27
REMARK                            x       y       z     vdW  Elec       q    Type
REMARK                         _______ _______ _______ _____ _____    ______ ____
ROOT
ATOM      3  O   UNL     1      12.564   9.115  21.726  0.00  0.00    -0.268 OA
ATOM      7  N   UNL     1      14.657   9.656  20.920  0.00  0.00    -0.283 N 
ATOM     13  C   UNL     1      16.778   9.866  21.961  0.00  0.00    +0.105 C 
ATOM     14  C   UNL     1      15.274   9.820  22.233  0.00  0.00    +0.182 C 
ATOM     15  C   UNL     1      16.863  10.432  20.540  0.00  0.00    +0.043 C 
ATOM     16  C   UNL     1      15.635   9.853  19.850  0.00  0.00    +0.111 C 
ATOM     18  C   UNL     1      13.326   9.259  20.768  0.00  0.00    +0.264 C 
ENDROOT
BRANCH  13   8
ATOM      4  O   UNL     1      19.552   9.205  21.698  0.00  0.00    -0.252 OA
ATOM      8  N   UNL     1      17.361   8.547  22.029  0.00  0.00    -0.294 N 
ATOM     11  N   UNL     1      19.003   6.943  22.000  0.00  0.00    -0.269 N 
ATOM     21  C   UNL     1      18.733   8.310  21.890  0.00  0.00    +0.304 C 
ATOM     39  H   UNL     1      16.758   7.760  22.251  0.00  0.00    +0.151 HD
ATOM     41  H   UNL     1      18.206   6.331  22.157  0.00  0.00    +0.156 HD
BRANCH  11  29
ATOM     29  C   UNL     1      20.258   6.297  21.918  0.00  0.00    +0.038 A 
ATOM     31  C   UNL     1      21.077   6.219  23.045  0.00  0.00    +0.069 A 
ATOM     32  C   UNL     1      20.678   5.738  20.711  0.00  0.00    +0.023 A 
ATOM     35  C   UNL     1      22.316   5.582  22.964  0.00  0.00    +0.122 A 
ATOM     36  C   UNL     1      21.916   5.100  20.630  0.00  0.00    +0.005 A 
ATOM     37  C   UNL     1      22.735   5.022  21.757  0.00  0.00    +0.046 A 
BRANCH  35   6
ATOM      6  O   UNL     1      23.116   5.505  24.063  0.00  0.00    -0.495 OA
ATOM     38  C   UNL     1      24.261   4.658  23.974  0.00  0.00    +0.277 C 
ENDBRANCH  35   6
ENDBRANCH  11  29
ENDBRANCH  13   8
BRANCH  18  19
ATOM     10  N   UNL     1      12.510   7.829  18.882  0.00  0.00    -0.346 N 
ATOM     19  C   UNL     1      12.862   9.046  19.403  0.00  0.00    +0.104 A 
ATOM     23  C   UNL     1      12.698   9.992  18.416  0.00  0.00    +0.032 A 
ATOM     25  C   UNL     1      12.123   7.983  17.576  0.00  0.00    +0.086 A 
ATOM     26  C   UNL     1      12.229   9.319  17.260  0.00  0.00    +0.020 A 
ATOM     28  C   UNL     1      12.536   6.566  19.586  0.00  0.00    +0.149 C 
ENDBRANCH  18  19
BRANCH  14  17
ATOM      2  O   UNL     1      15.122  12.202  22.300  0.00  0.00    -0.274 OA
ATOM      9  N   UNL     1      13.946  10.954  23.873  0.00  0.00    -0.302 N 
ATOM     17  C   UNL     1      14.782  11.126  22.782  0.00  0.00    +0.236 C 
ATOM     40  H   UNL     1      13.797  10.016  24.235  0.00  0.00    +0.150 HD
BRANCH   9  20
ATOM     20  C   UNL     1      13.356  12.056  24.598  0.00  0.00    +0.163 C 
BRANCH  20  24
ATOM      5  O   UNL     1      14.048  13.125  26.667  0.00  0.00    -0.274 OA
ATOM     12  N   UNL     1      14.668  10.945  26.297  0.00  0.00    -0.328 N 
ATOM     24  C   UNL     1      14.059  12.131  25.946  0.00  0.00    +0.231 C 
ATOM     42  H   UNL     1      15.159  10.854  27.180  0.00  0.00    +0.145 HD
ATOM     43  H   UNL     1      14.665  10.129  25.693  0.00  0.00    +0.145 HD
ENDBRANCH  20  24
BRANCH  20  22
ATOM     22  C   UNL     1      11.844  11.882  24.792  0.00  0.00    +0.074 C 
BRANCH  22  27
ATOM      1  S   UNL     1      11.193  12.776  22.235  0.00  0.00    -0.102 S 
ATOM     27  C   UNL     1      11.042  12.837  23.940  0.00  0.00    -0.008 A 
ATOM     30  C   UNL     1      10.153  13.808  24.345  0.00  0.00    +0.011 A 
ATOM     33  C   UNL     1       9.589  14.512  23.242  0.00  0.00    +0.008 A 
ATOM     34  C   UNL     1      10.068  14.052  22.036  0.00  0.00    +0.045 A 
ENDBRANCH  22  27
ENDBRANCH  20  22
ENDBRANCH   9  20
ENDBRANCH  14  17
TORSDOF 9
ENDMDL
MODEL 2
REMARK VINA RESULT:      -6.7     29.823     32.133
REMARK  Name = 11882072
REMARK  11 active torsions:
REMARK  status: ('A' for Active; 'I' for Inactive)
REMARK    1  A    between atoms: O_6  and  C_35
REMARK    2  A    between atoms: O_6  and  C_38
REMARK    3  A    between atoms: N_8  and  C_13
REMARK    4  A    between atoms: N_9  and  C_20
REMARK    5  A    between atoms: N_10  and  C_28
REMARK    6  A    between atoms: N_11  and  C_29
REMARK    7  A    between atoms: C_14  and  C_17
REMARK    8  A    between atoms: C_18  and  C_19
REMARK    9  A    between atoms: C_20  and  C_22
REMARK   10  A    between atoms: C_20  and  C_24
REMARK   11  A    between atoms: C_22  and  C_27
REMARK                            x       y       z     vdW  Elec       q    Type
REMARK                         _______ _______ _______ _____ _____    ______ ____
ROOT
ATOM      3  O   UNL     1      -7.293 -11.887   8.274  0.00  0.00    -0.268 OA
ATOM      7  N   UNL     1      -5.774 -10.295   8.967  0.00  0.00    -0.283 N 
ATOM     13  C   UNL     1      -5.587  -9.004  10.947  0.00  0.00    +0.105 C 
ATOM     14  C   UNL     1      -6.553  -9.853  10.120  0.00  0.00    +0.182 C 
ATOM     15  C   UNL     1      -4.615  -8.452   9.900  0.00  0.00    +0.043 C 
ATOM     16  C   UNL     1      -4.498  -9.584   8.888  0.00  0.00    +0.111 C 
ATOM     18  C   UNL     1      -6.197 -11.340   8.140  0.00  0.00    +0.264 C 
ENDROOT
BRANCH  13   8
ATOM      4  O   UNL     1      -6.475  -9.616  13.600  0.00  0.00    -0.252 OA
ATOM      8  N   UNL     1      -4.893  -9.807  11.926  0.00  0.00    -0.294 N 
ATOM     11  N   UNL     1      -4.513 -10.863  13.928  0.00  0.00    -0.269 N 
ATOM     21  C   UNL     1      -5.399 -10.059  13.206  0.00  0.00    +0.304 C 
ATOM     39  H   UNL     1      -4.028 -10.265  11.653  0.00  0.00    +0.151 HD
ATOM     41  H   UNL     1      -3.659 -11.143  13.453  0.00  0.00    +0.156 HD
BRANCH  11  29
ATOM     29  C   UNL     1      -4.655 -11.338  15.253  0.00  0.00    +0.038 A 
ATOM     31  C   UNL     1      -5.014 -12.667  15.481  0.00  0.00    +0.069 A 
ATOM     32  C   UNL     1      -4.438 -10.479  16.330  0.00  0.00    +0.023 A 
ATOM     35  C   UNL     1      -5.154 -13.136  16.788  0.00  0.00    +0.122 A 
ATOM     36  C   UNL     1      -4.578 -10.948  17.636  0.00  0.00    +0.005 A 
ATOM     37  C   UNL     1      -4.936 -12.277  17.865  0.00  0.00    +0.046 A 
BRANCH  35   6
ATOM      6  O   UNL     1      -5.504 -14.432  17.012  0.00  0.00    -0.495 OA
ATOM     38  C   UNL     1      -4.597 -15.437  16.560  0.00  0.00    +0.277 C 
ENDBRANCH  35   6
ENDBRANCH  11  29
ENDBRANCH  13   8
BRANCH  18  19
ATOM     10  N   UNL     1      -4.359 -12.747   7.186  0.00  0.00    -0.346 N 
ATOM     19  C   UNL     1      -5.282 -11.741   7.079  0.00  0.00    +0.104 A 
ATOM     23  C   UNL     1      -5.177 -11.203   5.815  0.00  0.00    +0.032 A 
ATOM     25  C   UNL     1      -3.665 -12.861   6.010  0.00  0.00    +0.086 A 
ATOM     26  C   UNL     1      -4.153 -11.913   5.138  0.00  0.00    +0.020 A 
ATOM     28  C   UNL     1      -4.136 -13.573   8.353  0.00  0.00    +0.149 C 
ENDBRANCH  18  19
BRANCH  14  17
ATOM      2  O   UNL     1      -8.655  -8.731  10.276  0.00  0.00    -0.274 OA
ATOM      9  N   UNL     1      -7.495  -8.672   8.260  0.00  0.00    -0.302 N 
ATOM     17  C   UNL     1      -7.683  -9.024   9.586  0.00  0.00    +0.236 C 
ATOM     40  H   UNL     1      -6.687  -9.041   7.764  0.00  0.00    +0.150 HD
BRANCH   9  20
ATOM     20  C   UNL     1      -8.450  -7.894   7.505  0.00  0.00    +0.163 C 
BRANCH  20  24
ATOM      5  O   UNL     1      -9.151  -8.812   5.367  0.00  0.00    -0.274 OA
ATOM     12  N   UNL     1      -7.049  -7.900   5.534  0.00  0.00    -0.328 N 
ATOM     24  C   UNL     1      -8.277  -8.273   6.041  0.00  0.00    +0.231 C 
ATOM     42  H   UNL     1      -6.810  -8.079   4.564  0.00  0.00    +0.145 HD
ATOM     43  H   UNL     1      -6.337  -7.451   6.102  0.00  0.00    +0.145 HD
ENDBRANCH  20  24
BRANCH  20  22
ATOM     22  C   UNL     1      -8.251  -6.385   7.694  0.00  0.00    +0.074 C 
BRANCH  22  27
ATOM      1  S   UNL     1     -11.007  -6.504   8.081  0.00  0.00    -0.102 S 
ATOM     27  C   UNL     1      -9.499  -5.700   8.196  0.00  0.00    -0.008 A 
ATOM     30  C   UNL     1      -9.622  -4.453   8.768  0.00  0.00    +0.011 A 
ATOM     33  C   UNL     1     -10.970  -4.152   9.116  0.00  0.00    +0.008 A 
ATOM     34  C   UNL     1     -11.828  -5.181   8.796  0.00  0.00    +0.045 A 
ENDBRANCH  22  27
ENDBRANCH  20  22
ENDBRANCH   9  20
ENDBRANCH  14  17
TORSDOF 9
ENDMDL
MODEL 3
REMARK VINA RESULT:      -6.7     27.513     30.281
REMARK  Name = 11882072
REMARK  11 active torsions:
REMARK  status: ('A' for Active; 'I' for Inactive)
REMARK    1  A    between atoms: O_6  and  C_35
REMARK    2  A    between atoms: O_6  and  C_38
REMARK    3  A    between atoms: N_8  and  C_13
REMARK    4  A    between atoms: N_9  and  C_20
REMARK    5  A    between atoms: N_10  and  C_28
REMARK    6  A    between atoms: N_11  and  C_29
REMARK    7  A    between atoms: C_14  and  C_17
REMARK    8  A    between atoms: C_18  and  C_19
REMARK    9  A    between atoms: C_20  and  C_22
REMARK   10  A    between atoms: C_20  and  C_24
REMARK   11  A    between atoms: C_22  and  C_27
REMARK                            x       y       z     vdW  Elec       q    Type
REMARK                         _______ _______ _______ _____ _____    ______ ____
ROOT
ATOM      3  O   UNL     1      15.669  -5.955  -3.315  0.00  0.00    -0.268 OA
ATOM      7  N   UNL     1      16.682  -7.987  -3.719  0.00  0.00    -0.283 N 
ATOM     13  C   UNL     1      17.929  -9.465  -2.348  0.00  0.00    +0.105 C 
ATOM     14  C   UNL     1      17.420  -8.029  -2.461  0.00  0.00    +0.182 C 
ATOM     15  C   UNL     1      18.064  -9.909  -3.807  0.00  0.00    +0.043 C 
ATOM     16  C   UNL     1      16.910  -9.201  -4.505  0.00  0.00    +0.111 C 
ATOM     18  C   UNL     1      15.803  -6.947  -4.033  0.00  0.00    +0.264 C 
ENDROOT
BRANCH  13   8
ATOM      4  O   UNL     1      18.494 -11.162  -0.110  0.00  0.00    -0.252 OA
ATOM      8  N   UNL     1      16.989 -10.299  -1.637  0.00  0.00    -0.294 N 
ATOM     11  N   UNL     1      16.233 -11.792  -0.066  0.00  0.00    -0.269 N 
ATOM     21  C   UNL     1      17.348 -11.101  -0.549  0.00  0.00    +0.304 C 
ATOM     39  H   UNL     1      16.007 -10.253  -1.897  0.00  0.00    +0.151 HD
ATOM     41  H   UNL     1      15.352 -11.630  -0.548  0.00  0.00    +0.156 HD
BRANCH  11  29
ATOM     29  C   UNL     1      16.176 -12.700   1.017  0.00  0.00    +0.038 A 
ATOM     31  C   UNL     1      15.452 -12.372   2.163  0.00  0.00    +0.069 A 
ATOM     32  C   UNL     1      16.843 -13.922   0.939  0.00  0.00    +0.023 A 
ATOM     35  C   UNL     1      15.395 -13.267   3.232  0.00  0.00    +0.122 A 
ATOM     36  C   UNL     1      16.787 -14.817   2.008  0.00  0.00    +0.005 A 
ATOM     37  C   UNL     1      16.063 -14.489   3.154  0.00  0.00    +0.046 A 
BRANCH  35   6
ATOM      6  O   UNL     1      14.689 -12.948   4.351  0.00  0.00    -0.495 OA
ATOM     38  C   UNL     1      15.369 -12.194   5.355  0.00  0.00    +0.277 C 
ENDBRANCH  35   6
ENDBRANCH  11  29
ENDBRANCH  13   8
BRANCH  18  19
ATOM     10  N   UNL     1      15.484  -6.589  -6.491  0.00  0.00    -0.346 N 
ATOM     19  C   UNL     1      15.062  -7.075  -5.281  0.00  0.00    +0.104 A 
ATOM     23  C   UNL     1      13.841  -7.685  -5.473  0.00  0.00    +0.032 A 
ATOM     25  C   UNL     1      14.552  -6.880  -7.453  0.00  0.00    +0.086 A 
ATOM     26  C   UNL     1      13.519  -7.562  -6.847  0.00  0.00    +0.020 A 
ATOM     28  C   UNL     1      16.719  -5.878  -6.734  0.00  0.00    +0.149 C 
ENDBRANCH  18  19
BRANCH  14  17
ATOM      2  O   UNL     1      19.199  -6.952  -3.635  0.00  0.00    -0.274 OA
ATOM      9  N   UNL     1      18.781  -6.350  -1.427  0.00  0.00    -0.302 N 
ATOM     17  C   UNL     1      18.557  -7.058  -2.595  0.00  0.00    +0.236 C 
ATOM     40  H   UNL     1      18.235  -6.580  -0.600  0.00  0.00    +0.150 HD
BRANCH   9  20
ATOM     20  C   UNL     1      19.833  -5.369  -1.286  0.00  0.00    +0.163 C 
BRANCH  20  24
ATOM      5  O   UNL     1      21.927  -5.659  -0.087  0.00  0.00    -0.274 OA
ATOM     12  N   UNL     1      19.984  -6.375   0.907  0.00  0.00    -0.328 N 
ATOM     24  C   UNL     1      20.709  -5.817  -0.124  0.00  0.00    +0.231 C 
ATOM     42  H   UNL     1      20.445  -6.701   1.750  0.00  0.00    +0.145 HD
ATOM     43  H   UNL     1      18.977  -6.495   0.864  0.00  0.00    +0.145 HD
ENDBRANCH  20  24
BRANCH  20  22
ATOM     22  C   UNL     1      19.285  -3.960  -1.031  0.00  0.00    +0.074 C 
BRANCH  22  27
ATOM      1  S   UNL     1      19.409  -3.336  -3.743  0.00  0.00    -0.102 S 
ATOM     27  C   UNL     1      18.587  -3.387  -2.241  0.00  0.00    -0.008 A 
ATOM     30  C   UNL     1      17.314  -2.868  -2.331  0.00  0.00    +0.011 A 
ATOM     33  C   UNL     1      17.009  -2.421  -3.650  0.00  0.00    +0.008 A 
ATOM     34  C   UNL     1      18.061  -2.616  -4.517  0.00  0.00    +0.045 A 
ENDBRANCH  22  27
ENDBRANCH  20  22
ENDBRANCH   9  20
ENDBRANCH  14  17
TORSDOF 9
ENDMDL
MODEL 4
REMARK VINA RESULT:      -6.6     20.604     26.321
REMARK  Name = 11882072
REMARK  11 active torsions:
REMARK  status: ('A' for Active; 'I' for Inactive)
REMARK    1  A    between atoms: O_6  and  C_35
REMARK    2  A    between atoms: O_6  and  C_38
REMARK    3  A    between atoms: N_8  and  C_13
REMARK    4  A    between atoms: N_9  and  C_20
REMARK    5  A    between atoms: N_10  and  C_28
REMARK    6  A    between atoms: N_11  and  C_29
REMARK    7  A    between atoms: C_14  and  C_17
REMARK    8  A    between atoms: C_18  and  C_19
REMARK    9  A    between atoms: C_20  and  C_22
REMARK   10  A    between atoms: C_20  and  C_24
REMARK   11  A    between atoms: C_22  and  C_27
REMARK                            x       y       z     vdW  Elec       q    Type
REMARK                         _______ _______ _______ _____ _____    ______ ____
ROOT
ATOM      3  O   UNL     1      -0.925   7.398  37.162  0.00  0.00    -0.268 OA
ATOM      7  N   UNL     1      -2.611   8.392  38.382  0.00  0.00    -0.283 N 
ATOM     13  C   UNL     1      -4.411   9.813  37.780  0.00  0.00    +0.105 C 
ATOM     14  C   UNL     1      -3.062   9.271  37.307  0.00  0.00    +0.182 C 
ATOM     15  C   UNL     1      -4.288   9.786  39.306  0.00  0.00    +0.043 C 
ATOM     16  C   UNL     1      -3.443   8.549  39.576  0.00  0.00    +0.111 C 
ATOM     18  C   UNL     1      -1.580   7.465  38.203  0.00  0.00    +0.264 C 
ENDROOT
BRANCH  13   8
ATOM      4  O   UNL     1      -7.182  10.524  37.652  0.00  0.00    -0.252 OA
ATOM      8  N   UNL     1      -5.497   8.974  37.332  0.00  0.00    -0.294 N 
ATOM     11  N   UNL     1      -7.655   8.379  36.824  0.00  0.00    -0.269 N 
ATOM     21  C   UNL     1      -6.829   9.401  37.301  0.00  0.00    +0.304 C 
ATOM     39  H   UNL     1      -5.279   8.054  36.963  0.00  0.00    +0.151 HD
ATOM     41  H   UNL     1      -7.201   7.503  36.577  0.00  0.00    +0.156 HD
BRANCH  11  29
ATOM     29  C   UNL     1      -9.057   8.409  36.641  0.00  0.00    +0.038 A 
ATOM     31  C   UNL     1      -9.617   9.254  35.683  0.00  0.00    +0.069 A 
ATOM     32  C   UNL     1      -9.880   7.595  37.420  0.00  0.00    +0.023 A 
ATOM     35  C   UNL     1     -11.000   9.284  35.503  0.00  0.00    +0.122 A 
ATOM     36  C   UNL     1     -11.263   7.626  37.241  0.00  0.00    +0.005 A 
ATOM     37  C   UNL     1     -11.824   8.470  36.281  0.00  0.00    +0.046 A 
BRANCH  35   6
ATOM      6  O   UNL     1     -11.548  10.108  34.568  0.00  0.00    -0.495 OA
ATOM     38  C   UNL     1     -12.928   9.914  34.261  0.00  0.00    +0.277 C 
ENDBRANCH  35   6
ENDBRANCH  11  29
ENDBRANCH  13   8
BRANCH  18  19
ATOM     10  N   UNL     1      -0.405   6.877  40.334  0.00  0.00    -0.346 N 
ATOM     19  C   UNL     1      -1.291   6.588  39.330  0.00  0.00    +0.104 A 
ATOM     23  C   UNL     1      -1.832   5.347  39.587  0.00  0.00    +0.032 A 
ATOM     25  C   UNL     1      -0.372   5.840  41.230  0.00  0.00    +0.086 A 
ATOM     26  C   UNL     1      -1.251   4.875  40.790  0.00  0.00    +0.020 A 
ATOM     28  C   UNL     1       0.383   8.084  40.448  0.00  0.00    +0.149 C 
ENDBRANCH  18  19
BRANCH  14  17
ATOM      2  O   UNL     1      -1.200  10.562  38.059  0.00  0.00    -0.274 OA
ATOM      9  N   UNL     1      -2.204  11.108  36.032  0.00  0.00    -0.302 N 
ATOM     17  C   UNL     1      -2.046  10.368  37.191  0.00  0.00    +0.236 C 
ATOM     40  H   UNL     1      -2.993  10.904  35.423  0.00  0.00    +0.150 HD
BRANCH   9  20
ATOM     20  C   UNL     1      -1.366  12.236  35.693  0.00  0.00    +0.163 C 
BRANCH  20  24
ATOM      5  O   UNL     1      -2.413  14.406  35.379  0.00  0.00    -0.274 OA
ATOM     12  N   UNL     1      -2.814  12.759  33.829  0.00  0.00    -0.328 N 
ATOM     24  C   UNL     1      -2.251  13.253  34.987  0.00  0.00    +0.231 C 
ATOM     42  H   UNL     1      -3.414  13.341  33.253  0.00  0.00    +0.145 HD
ATOM     43  H   UNL     1      -2.668  11.805  33.515  0.00  0.00    +0.145 HD
ENDBRANCH  20  24
BRANCH  20  22
ATOM     22  C   UNL     1      -0.188  11.837  34.796  0.00  0.00    +0.074 C 
BRANCH  22  27
ATOM      1  S   UNL     1       1.126  14.238  35.315  0.00  0.00    -0.102 S 
ATOM     27  C   UNL     1       0.544  13.037  34.243  0.00  0.00    -0.008 A 
ATOM     30  C   UNL     1       0.834  13.333  32.929  0.00  0.00    +0.011 A 
ATOM     33  C   UNL     1       1.544  14.562  32.801  0.00  0.00    +0.008 A 
ATOM     34  C   UNL     1       1.768  15.159  34.022  0.00  0.00    +0.045 A 
ENDBRANCH  22  27
ENDBRANCH  20  22
ENDBRANCH   9  20
ENDBRANCH  14  17
TORSDOF 9
ENDMDL
MODEL 5
REMARK VINA RESULT:      -6.5     28.794     32.127
REMARK  Name = 11882072
REMARK  11 active torsions:
REMARK  status: ('A' for Active; 'I' for Inactive)
REMARK    1  A    between atoms: O_6  and  C_35
REMARK    2  A    between atoms: O_6  and  C_38
REMARK    3  A    between atoms: N_8  and  C_13
REMARK    4  A    between atoms: N_9  and  C_20
REMARK    5  A    between atoms: N_10  and  C_28
REMARK    6  A    between atoms: N_11  and  C_29
REMARK    7  A    between atoms: C_14  and  C_17
REMARK    8  A    between atoms: C_18  and  C_19
REMARK    9  A    between atoms: C_20  and  C_22
REMARK   10  A    between atoms: C_20  and  C_24
REMARK   11  A    between atoms: C_22  and  C_27
REMARK                            x       y       z     vdW  Elec       q    Type
REMARK                         _______ _______ _______ _____ _____    ______ ____
ROOT
ATOM      3  O   UNL     1      -4.964 -13.587  15.157  0.00  0.00    -0.268 OA
ATOM      7  N   UNL     1      -3.521 -11.832  14.761  0.00  0.00    -0.283 N 
ATOM     13  C   UNL     1      -2.437 -11.049  12.803  0.00  0.00    +0.105 C 
ATOM     14  C   UNL     1      -3.154 -12.253  13.413  0.00  0.00    +0.182 C 
ATOM     15  C   UNL     1      -1.834 -10.342  14.020  0.00  0.00    +0.043 C 
ATOM     16  C   UNL     1      -2.868 -10.571  15.115  0.00  0.00    +0.111 C 
ATOM     18  C   UNL     1      -4.460 -12.526  15.529  0.00  0.00    +0.264 C 
ENDROOT
BRANCH  13   8
ATOM      4  O   UNL     1      -3.570 -11.488  10.210  0.00  0.00    -0.252 OA
ATOM      8  N   UNL     1      -3.362 -10.186  12.108  0.00  0.00    -0.294 N 
ATOM     11  N   UNL     1      -4.740  -9.464  10.420  0.00  0.00    -0.269 N 
ATOM     21  C   UNL     1      -3.871 -10.476  10.838  0.00  0.00    +0.304 C 
ATOM     39  H   UNL     1      -3.712  -9.362  12.589  0.00  0.00    +0.151 HD
ATOM     41  H   UNL     1      -4.880  -8.688  11.063  0.00  0.00    +0.156 HD
BRANCH  11  29
ATOM     29  C   UNL     1      -5.456  -9.381   9.203  0.00  0.00    +0.038 A 
ATOM     31  C   UNL     1      -6.630  -8.631   9.135  0.00  0.00    +0.069 A 
ATOM     32  C   UNL     1      -4.989 -10.050   8.072  0.00  0.00    +0.023 A 
ATOM     35  C   UNL     1      -7.337  -8.549   7.935  0.00  0.00    +0.122 A 
ATOM     36  C   UNL     1      -5.695  -9.968   6.872  0.00  0.00    +0.005 A 
ATOM     37  C   UNL     1      -6.869  -9.217   6.803  0.00  0.00    +0.046 A 
BRANCH  35   6
ATOM      6  O   UNL     1      -8.482  -7.818   7.867  0.00  0.00    -0.495 OA
ATOM     38  C   UNL     1      -8.371  -6.414   8.096  0.00  0.00    +0.277 C 
ENDBRANCH  35   6
ENDBRANCH  11  29
ENDBRANCH  13   8
BRANCH  18  19
ATOM     10  N   UNL     1      -5.742 -10.970  17.013  0.00  0.00    -0.346 N 
ATOM     19  C   UNL     1      -4.800 -11.947  16.822  0.00  0.00    +0.104 A 
ATOM     23  C   UNL     1      -4.260 -12.259  18.050  0.00  0.00    +0.032 A 
ATOM     25  C   UNL     1      -5.812 -10.653  18.344  0.00  0.00    +0.086 A 
ATOM     26  C   UNL     1      -4.900 -11.440  19.013  0.00  0.00    +0.020 A 
ATOM     28  C   UNL     1      -6.548 -10.356  15.981  0.00  0.00    +0.149 C 
ENDBRANCH  18  19
BRANCH  14  17
ATOM      2  O   UNL     1      -1.051 -13.277  13.896  0.00  0.00    -0.274 OA
ATOM      9  N   UNL     1      -2.841 -14.624  13.265  0.00  0.00    -0.302 N 
ATOM     17  C   UNL     1      -2.224 -13.421  13.563  0.00  0.00    +0.236 C 
ATOM     40  H   UNL     1      -3.799 -14.613  12.922  0.00  0.00    +0.150 HD
BRANCH   9  20
ATOM     20  C   UNL     1      -2.157 -15.896  13.311  0.00  0.00    +0.163 C 
BRANCH  20  24
ATOM      5  O   UNL     1      -2.069 -16.335  10.922  0.00  0.00    -0.274 OA
ATOM     12  N   UNL     1      -0.107 -15.890  12.030  0.00  0.00    -0.328 N 
ATOM     24  C   UNL     1      -1.471 -16.083  11.965  0.00  0.00    +0.231 C 
ATOM     42  H   UNL     1       0.470 -15.969  11.199  0.00  0.00    +0.145 HD
ATOM     43  H   UNL     1       0.374 -15.679  12.899  0.00  0.00    +0.145 HD
ENDBRANCH  20  24
BRANCH  20  22
ATOM     22  C   UNL     1      -3.115 -17.062  13.589  0.00  0.00    +0.074 C 
BRANCH  22  27
ATOM      1  S   UNL     1      -5.461 -17.205  15.085  0.00  0.00    -0.102 S 
ATOM     27  C   UNL     1      -3.772 -16.954  14.944  0.00  0.00    -0.008 A 
ATOM     30  C   UNL     1      -3.190 -16.667  16.159  0.00  0.00    +0.011 A 
ATOM     33  C   UNL     1      -4.141 -16.653  17.220  0.00  0.00    +0.008 A 
ATOM     34  C   UNL     1      -5.415 -16.929  16.775  0.00  0.00    +0.045 A 
ENDBRANCH  22  27
ENDBRANCH  20  22
ENDBRANCH   9  20
ENDBRANCH  14  17
TORSDOF 9
ENDMDL
MODEL 6
REMARK VINA RESULT:      -6.5     29.246     33.705
REMARK  Name = 11882072
REMARK  11 active torsions:
REMARK  status: ('A' for Active; 'I' for Inactive)
REMARK    1  A    between atoms: O_6  and  C_35
REMARK    2  A    between atoms: O_6  and  C_38
REMARK    3  A    between atoms: N_8  and  C_13
REMARK    4  A    between atoms: N_9  and  C_20
REMARK    5  A    between atoms: N_10  and  C_28
REMARK    6  A    between atoms: N_11  and  C_29
REMARK    7  A    between atoms: C_14  and  C_17
REMARK    8  A    between atoms: C_18  and  C_19
REMARK    9  A    between atoms: C_20  and  C_22
REMARK   10  A    between atoms: C_20  and  C_24
REMARK   11  A    between atoms: C_22  and  C_27
REMARK                            x       y       z     vdW  Elec       q    Type
REMARK                         _______ _______ _______ _____ _____    ______ ____
ROOT
ATOM      3  O   UNL     1      -8.241  -8.918  17.723  0.00  0.00    -0.268 OA
ATOM      7  N   UNL     1      -9.669 -10.725  17.591  0.00  0.00    -0.283 N 
ATOM     13  C   UNL     1      -9.793 -12.769  18.786  0.00  0.00    +0.105 C 
ATOM     14  C   UNL     1      -8.873 -11.595  18.451  0.00  0.00    +0.182 C 
ATOM     15  C   UNL     1     -10.726 -12.844  17.574  0.00  0.00    +0.043 C 
ATOM     16  C   UNL     1     -10.902 -11.388  17.167  0.00  0.00    +0.111 C 
ATOM     18  C   UNL     1      -9.303  -9.402  17.328  0.00  0.00    +0.264 C 
ENDROOT
BRANCH  13   8
ATOM      4  O   UNL     1     -11.032 -14.729  20.467  0.00  0.00    -0.252 OA
ATOM      8  N   UNL     1     -10.537 -12.520  19.998  0.00  0.00    -0.294 N 
ATOM     11  N   UNL     1     -11.767 -13.001  21.876  0.00  0.00    -0.269 N 
ATOM     21  C   UNL     1     -11.112 -13.540  20.764  0.00  0.00    +0.304 C 
ATOM     39  H   UNL     1     -10.591 -11.568  20.347  0.00  0.00    +0.151 HD
ATOM     41  H   UNL     1     -11.741 -11.989  21.975  0.00  0.00    +0.156 HD
BRANCH  11  29
ATOM     29  C   UNL     1     -12.469 -13.693  22.889  0.00  0.00    +0.038 A 
ATOM     31  C   UNL     1     -11.770 -14.450  23.829  0.00  0.00    +0.069 A 
ATOM     32  C   UNL     1     -13.861 -13.618  22.949  0.00  0.00    +0.023 A 
ATOM     35  C   UNL     1     -12.463 -15.133  24.829  0.00  0.00    +0.122 A 
ATOM     36  C   UNL     1     -14.554 -14.301  23.949  0.00  0.00    +0.005 A 
ATOM     37  C   UNL     1     -13.855 -15.058  24.890  0.00  0.00    +0.046 A 
BRANCH  35   6
ATOM      6  O   UNL     1     -11.782 -15.873  25.747  0.00  0.00    -0.495 OA
ATOM     38  C   UNL     1     -12.264 -15.845  27.090  0.00  0.00    +0.277 C 
ENDBRANCH  35   6
ENDBRANCH  11  29
ENDBRANCH  13   8
BRANCH  18  19
ATOM     10  N   UNL     1     -10.251  -8.588  15.158  0.00  0.00    -0.346 N 
ATOM     19  C   UNL     1     -10.233  -8.616  16.528  0.00  0.00    +0.104 A 
ATOM     23  C   UNL     1     -11.232  -7.782  16.980  0.00  0.00    +0.032 A 
ATOM     25  C   UNL     1     -11.247  -7.750  14.729  0.00  0.00    +0.086 A 
ATOM     26  C   UNL     1     -11.874  -7.235  15.842  0.00  0.00    +0.020 A 
ATOM     28  C   UNL     1      -9.365  -9.324  14.283  0.00  0.00    +0.149 C 
ENDBRANCH  18  19
BRANCH  14  17
ATOM      2  O   UNL     1      -7.804 -12.866  16.735  0.00  0.00    -0.274 OA
ATOM      9  N   UNL     1      -6.516 -11.442  18.050  0.00  0.00    -0.302 N 
ATOM     17  C   UNL     1      -7.694 -12.043  17.639  0.00  0.00    +0.236 C 
ATOM     40  H   UNL     1      -6.533 -10.835  18.865  0.00  0.00    +0.150 HD
BRANCH   9  20
ATOM     20  C   UNL     1      -5.233 -11.721  17.445  0.00  0.00    +0.163 C 
BRANCH  20  24
ATOM      5  O   UNL     1      -3.917 -12.115  19.450  0.00  0.00    -0.274 OA
ATOM     12  N   UNL     1      -4.430 -13.904  18.104  0.00  0.00    -0.328 N 
ATOM     24  C   UNL     1      -4.446 -12.566  18.437  0.00  0.00    +0.231 C 
ATOM     42  H   UNL     1      -3.953 -14.581  18.690  0.00  0.00    +0.145 HD
ATOM     43  H   UNL     1      -4.875 -14.264  17.265  0.00  0.00    +0.145 HD
ENDBRANCH  20  24
BRANCH  20  22
ATOM     22  C   UNL     1      -4.461 -10.441  17.102  0.00  0.00    +0.074 C 
BRANCH  22  27
ATOM      1  S   UNL     1      -3.746 -10.991  14.466  0.00  0.00    -0.102 S 
ATOM     27  C   UNL     1      -3.354 -10.688  16.105  0.00  0.00    -0.008 A 
ATOM     30  C   UNL     1      -1.994 -10.708  16.323  0.00  0.00    +0.011 A 
ATOM     33  C   UNL     1      -1.263 -10.976  15.129  0.00  0.00    +0.008 A 
ATOM     34  C   UNL     1      -2.094 -11.151  14.044  0.00  0.00    +0.045 A 
ENDBRANCH  22  27
ENDBRANCH  20  22
ENDBRANCH   9  20
ENDBRANCH  14  17
TORSDOF 9
ENDMDL
MODEL 7
REMARK VINA RESULT:      -6.4     16.840     19.505
REMARK  Name = 11882072
REMARK  11 active torsions:
REMARK  status: ('A' for Active; 'I' for Inactive)
REMARK    1  A    between atoms: O_6  and  C_35
REMARK    2  A    between atoms: O_6  and  C_38
REMARK    3  A    between atoms: N_8  and  C_13
REMARK    4  A    between atoms: N_9  and  C_20
REMARK    5  A    between atoms: N_10  and  C_28
REMARK    6  A    between atoms: N_11  and  C_29
REMARK    7  A    between atoms: C_14  and  C_17
REMARK    8  A    between atoms: C_18  and  C_19
REMARK    9  A    between atoms: C_20  and  C_22
REMARK   10  A    between atoms: C_20  and  C_24
REMARK   11  A    between atoms: C_22  and  C_27
REMARK                            x       y       z     vdW  Elec       q    Type
REMARK                         _______ _______ _______ _____ _____    ______ ____
ROOT
ATOM      3  O   UNL     1      12.845   4.332   2.304  0.00  0.00    -0.268 OA
ATOM      7  N   UNL     1      13.978   6.287   1.842  0.00  0.00    -0.283 N 
ATOM     13  C   UNL     1      15.149   7.830   3.209  0.00  0.00    +0.105 C 
ATOM     14  C   UNL     1      14.124   6.697   3.236  0.00  0.00    +0.182 C 
ATOM     15  C   UNL     1      14.968   8.439   1.816  0.00  0.00    +0.043 C 
ATOM     16  C   UNL     1      14.630   7.239   0.942  0.00  0.00    +0.111 C 
ATOM     18  C   UNL     1      13.375   5.080   1.480  0.00  0.00    +0.264 C 
ENDROOT
BRANCH  13   8
ATOM      4  O   UNL     1      17.391   9.260   4.274  0.00  0.00    -0.252 OA
ATOM      8  N   UNL     1      16.490   7.326   3.384  0.00  0.00    -0.294 N 
ATOM     11  N   UNL     1      18.711   7.344   3.964  0.00  0.00    -0.269 N 
ATOM     21  C   UNL     1      17.533   8.094   3.915  0.00  0.00    +0.304 C 
ATOM     39  H   UNL     1      16.673   6.349   3.173  0.00  0.00    +0.151 HD
ATOM     41  H   UNL     1      18.659   6.387   3.623  0.00  0.00    +0.156 HD
BRANCH  11  29
ATOM     29  C   UNL     1      19.982   7.753   4.432  0.00  0.00    +0.038 A 
ATOM     31  C   UNL     1      21.058   7.830   3.548  0.00  0.00    +0.069 A 
ATOM     32  C   UNL     1      20.159   8.079   5.776  0.00  0.00    +0.023 A 
ATOM     35  C   UNL     1      22.312   8.234   4.009  0.00  0.00    +0.122 A 
ATOM     36  C   UNL     1      21.412   8.482   6.238  0.00  0.00    +0.005 A 
ATOM     37  C   UNL     1      22.489   8.560   5.354  0.00  0.00    +0.046 A 
BRANCH  35   6
ATOM      6  O   UNL     1      23.363   8.309   3.147  0.00  0.00    -0.495 OA
ATOM     38  C   UNL     1      24.328   9.332   3.389  0.00  0.00    +0.277 C 
ENDBRANCH  35   6
ENDBRANCH  11  29
ENDBRANCH  13   8
BRANCH  18  19
ATOM     10  N   UNL     1      12.398   5.123  -0.824  0.00  0.00    -0.346 N 
ATOM     19  C   UNL     1      13.375   4.751   0.061  0.00  0.00    +0.104 A 
ATOM     23  C   UNL     1      14.323   4.032  -0.634  0.00  0.00    +0.032 A 
ATOM     25  C   UNL     1      12.706   4.652  -2.074  0.00  0.00    +0.086 A 
ATOM     26  C   UNL     1      13.900   3.969  -1.985  0.00  0.00    +0.020 A 
ATOM     28  C   UNL     1      11.216   5.893  -0.508  0.00  0.00    +0.149 C 
ENDBRANCH  18  19
BRANCH  14  17
ATOM      2  O   UNL     1      12.309   8.248   3.280  0.00  0.00    -0.274 OA
ATOM      9  N   UNL     1      12.185   6.332   4.594  0.00  0.00    -0.302 N 
ATOM     17  C   UNL     1      12.780   7.189   3.685  0.00  0.00    +0.236 C 
ATOM     40  H   UNL     1      12.706   5.521   4.918  0.00  0.00    +0.150 HD
BRANCH   9  20
ATOM     20  C   UNL     1      10.897   6.589   5.197  0.00  0.00    +0.163 C 
BRANCH  20  24
ATOM      5  O   UNL     1      11.353   6.245   7.558  0.00  0.00    -0.274 OA
ATOM     12  N   UNL     1      10.168   4.638   6.424  0.00  0.00    -0.328 N 
ATOM     24  C   UNL     1      10.860   5.827   6.514  0.00  0.00    +0.231 C 
ATOM     42  H   UNL     1      10.054   4.039   7.235  0.00  0.00    +0.145 HD
ATOM     43  H   UNL     1       9.761   4.307   5.555  0.00  0.00    +0.145 HD
ENDBRANCH  20  24
BRANCH  20  22
ATOM     22  C   UNL     1       9.735   6.154   4.295  0.00  0.00    +0.074 C 
BRANCH  22  27
ATOM      1  S   UNL     1       8.032   8.270   4.916  0.00  0.00    -0.102 S 
ATOM     27  C   UNL     1       8.923   7.327   3.798  0.00  0.00    -0.008 A 
ATOM     30  C   UNL     1       8.781   7.785   2.507  0.00  0.00    +0.011 A 
ATOM     33  C   UNL     1       7.928   8.925   2.434  0.00  0.00    +0.008 A 
ATOM     34  C   UNL     1       7.451   9.294   3.672  0.00  0.00    +0.045 A 
ENDBRANCH  22  27
ENDBRANCH  20  22
ENDBRANCH   9  20
ENDBRANCH  14  17
TORSDOF 9
ENDMDL
MODEL 8
REMARK VINA RESULT:      -6.4     28.743     32.054
REMARK  Name = 11882072
REMARK  11 active torsions:
REMARK  status: ('A' for Active; 'I' for Inactive)
REMARK    1  A    between atoms: O_6  and  C_35
REMARK    2  A    between atoms: O_6  and  C_38
REMARK    3  A    between atoms: N_8  and  C_13
REMARK    4  A    between atoms: N_9  and  C_20
REMARK    5  A    between atoms: N_10  and  C_28
REMARK    6  A    between atoms: N_11  and  C_29
REMARK    7  A    between atoms: C_14  and  C_17
REMARK    8  A    between atoms: C_18  and  C_19
REMARK    9  A    between atoms: C_20  and  C_22
REMARK   10  A    between atoms: C_20  and  C_24
REMARK   11  A    between atoms: C_22  and  C_27
REMARK                            x       y       z     vdW  Elec       q    Type
REMARK                         _______ _______ _______ _____ _____    ______ ____
ROOT
ATOM      3  O   UNL     1      -4.125 -14.105  12.320  0.00  0.00    -0.268 OA
ATOM      7  N   UNL     1      -2.947 -12.548  13.549  0.00  0.00    -0.283 N 
ATOM     13  C   UNL     1      -3.411 -10.310  14.179  0.00  0.00    +0.105 C 
ATOM     14  C   UNL     1      -3.807 -11.419  13.205  0.00  0.00    +0.182 C 
ATOM     15  C   UNL     1      -1.945 -10.621  14.493  0.00  0.00    +0.043 C 
ATOM     16  C   UNL     1      -1.890 -12.143  14.475  0.00  0.00    +0.111 C 
ATOM     18  C   UNL     1      -3.211 -13.847  13.104  0.00  0.00    +0.264 C 
ENDROOT
BRANCH  13   8
ATOM      4  O   UNL     1      -6.240  -9.898  14.353  0.00  0.00    -0.252 OA
ATOM      8  N   UNL     1      -4.218 -10.353  15.375  0.00  0.00    -0.294 N 
ATOM     11  N   UNL     1      -6.109 -10.242  16.671  0.00  0.00    -0.269 N 
ATOM     21  C   UNL     1      -5.600 -10.140  15.373  0.00  0.00    +0.304 C 
ATOM     39  H   UNL     1      -3.773 -10.613  16.251  0.00  0.00    +0.151 HD
ATOM     41  H   UNL     1      -5.440 -10.447  17.409  0.00  0.00    +0.156 HD
BRANCH  11  29
ATOM     29  C   UNL     1      -7.451 -10.094  17.092  0.00  0.00    +0.038 A 
ATOM     31  C   UNL     1      -8.097  -8.867  16.942  0.00  0.00    +0.069 A 
ATOM     32  C   UNL     1      -8.129 -11.175  17.657  0.00  0.00    +0.023 A 
ATOM     35  C   UNL     1      -9.421  -8.721  17.357  0.00  0.00    +0.122 A 
ATOM     36  C   UNL     1      -9.453 -11.029  18.072  0.00  0.00    +0.005 A 
ATOM     37  C   UNL     1     -10.099  -9.801  17.922  0.00  0.00    +0.046 A 
BRANCH  35   6
ATOM      6  O   UNL     1     -10.053  -7.524  17.212  0.00  0.00    -0.495 OA
ATOM     38  C   UNL     1     -10.168  -7.007  15.887  0.00  0.00    +0.277 C 
ENDBRANCH  35   6
ENDBRANCH  11  29
ENDBRANCH  13   8
BRANCH  18  19
ATOM     10  N   UNL     1      -2.593 -15.699  14.671  0.00  0.00    -0.346 N 
ATOM     19  C   UNL     1      -2.325 -14.895  13.595  0.00  0.00    +0.104 A 
ATOM     23  C   UNL     1      -1.097 -15.261  13.089  0.00  0.00    +0.032 A 
ATOM     25  C   UNL     1      -1.554 -16.574  14.860  0.00  0.00    +0.086 A 
ATOM     26  C   UNL     1      -0.610 -16.323  13.889  0.00  0.00    +0.020 A 
ATOM     28  C   UNL     1      -3.782 -15.648  15.493  0.00  0.00    +0.149 C 
ENDBRANCH  18  19
BRANCH  14  17
ATOM      2  O   UNL     1      -2.429 -10.482  11.495  0.00  0.00    -0.274 OA
ATOM      9  N   UNL     1      -4.494 -11.380  10.910  0.00  0.00    -0.302 N 
ATOM     17  C   UNL     1      -3.480 -11.043  11.790  0.00  0.00    +0.236 C 
ATOM     40  H   UNL     1      -5.357 -11.770  11.282  0.00  0.00    +0.150 HD
BRANCH   9  20
ATOM     20  C   UNL     1      -4.437 -11.104   9.493  0.00  0.00    +0.163 C 
BRANCH  20  24
ATOM      5  O   UNL     1      -6.216  -9.458   9.327  0.00  0.00    -0.274 OA
ATOM     12  N   UNL     1      -4.042  -8.753   9.093  0.00  0.00    -0.328 N 
ATOM     24  C   UNL     1      -5.015  -9.712   9.285  0.00  0.00    +0.231 C 
ATOM     42  H   UNL     1      -4.291  -7.779   8.958  0.00  0.00    +0.145 HD
ATOM     43  H   UNL     1      -3.053  -8.977   9.065  0.00  0.00    +0.145 HD
ENDBRANCH  20  24
BRANCH  20  22
ATOM     22  C   UNL     1      -5.215 -12.136   8.667  0.00  0.00    +0.074 C 
BRANCH  22  27
ATOM      1  S   UNL     1      -5.140 -11.308   6.008  0.00  0.00    -0.102 S 
ATOM     27  C   UNL     1      -4.631 -12.326   7.288  0.00  0.00    -0.008 A 
ATOM     30  C   UNL     1      -3.694 -13.248   6.873  0.00  0.00    +0.011 A 
ATOM     33  C   UNL     1      -3.390 -13.117   5.487  0.00  0.00    +0.008 A 
ATOM     34  C   UNL     1      -4.107 -12.101   4.895  0.00  0.00    +0.045 A 
ENDBRANCH  22  27
ENDBRANCH  20  22
ENDBRANCH   9  20
ENDBRANCH  14  17
TORSDOF 9
ENDMDL
MODEL 9
REMARK VINA RESULT:      -6.3     16.144     18.901
REMARK  Name = 11882072
REMARK  11 active torsions:
REMARK  status: ('A' for Active; 'I' for Inactive)
REMARK    1  A    between atoms: O_6  and  C_35
REMARK    2  A    between atoms: O_6  and  C_38
REMARK    3  A    between atoms: N_8  and  C_13
REMARK    4  A    between atoms: N_9  and  C_20
REMARK    5  A    between atoms: N_10  and  C_28
REMARK    6  A    between atoms: N_11  and  C_29
REMARK    7  A    between atoms: C_14  and  C_17
REMARK    8  A    between atoms: C_18  and  C_19
REMARK    9  A    between atoms: C_20  and  C_22
REMARK   10  A    between atoms: C_20  and  C_24
REMARK   11  A    between atoms: C_22  and  C_27
REMARK                            x       y       z     vdW  Elec       q    Type
REMARK                         _______ _______ _______ _____ _____    ______ ____
ROOT
ATOM      3  O   UNL     1      11.205   5.128   3.829  0.00  0.00    -0.268 OA
ATOM      7  N   UNL     1      12.470   6.825   2.913  0.00  0.00    -0.283 N 
ATOM     13  C   UNL     1      13.947   8.421   3.857  0.00  0.00    +0.105 C 
ATOM     14  C   UNL     1      12.822   7.442   4.188  0.00  0.00    +0.182 C 
ATOM     15  C   UNL     1      13.665   8.806   2.401  0.00  0.00    +0.043 C 
ATOM     16  C   UNL     1      13.105   7.526   1.795  0.00  0.00    +0.111 C 
ATOM     18  C   UNL     1      11.707   5.657   2.836  0.00  0.00    +0.264 C 
ENDROOT
BRANCH  13   8
ATOM      4  O   UNL     1      16.418   9.711   4.519  0.00  0.00    -0.252 OA
ATOM      8  N   UNL     1      15.241   7.794   3.986  0.00  0.00    -0.294 N 
ATOM     11  N   UNL     1      17.499   7.633   4.367  0.00  0.00    -0.269 N 
ATOM     21  C   UNL     1      16.404   8.500   4.314  0.00  0.00    +0.304 C 
ATOM     39  H   UNL     1      15.302   6.784   3.897  0.00  0.00    +0.151 HD
ATOM     41  H   UNL     1      17.316   6.653   4.168  0.00  0.00    +0.156 HD
BRANCH  11  29
ATOM     29  C   UNL     1      18.845   7.951   4.664  0.00  0.00    +0.038 A 
ATOM     31  C   UNL     1      19.824   7.827   3.678  0.00  0.00    +0.069 A 
ATOM     32  C   UNL     1      19.193   8.388   5.942  0.00  0.00    +0.023 A 
ATOM     35  C   UNL     1      21.152   8.141   3.971  0.00  0.00    +0.122 A 
ATOM     36  C   UNL     1      20.520   8.702   6.235  0.00  0.00    +0.005 A 
ATOM     37  C   UNL     1      21.500   8.579   5.249  0.00  0.00    +0.046 A 
BRANCH  35   6
ATOM      6  O   UNL     1      22.108   8.020   3.010  0.00  0.00    -0.495 OA
ATOM     38  C   UNL     1      22.369   9.170   2.206  0.00  0.00    +0.277 C 
ENDBRANCH  35   6
ENDBRANCH  11  29
ENDBRANCH  13   8
BRANCH  18  19
ATOM     10  N   UNL     1      12.298   4.136   0.937  0.00  0.00    -0.346 N 
ATOM     19  C   UNL     1      11.505   5.097   1.506  0.00  0.00    +0.104 A 
ATOM     23  C   UNL     1      10.516   5.419   0.602  0.00  0.00    +0.032 A 
ATOM     25  C   UNL     1      11.831   3.838  -0.317  0.00  0.00    +0.086 A 
ATOM     26  C   UNL     1      10.722   4.621  -0.551  0.00  0.00    +0.020 A 
ATOM     28  C   UNL     1      13.454   3.519   1.549  0.00  0.00    +0.149 C 
ENDBRANCH  18  19
BRANCH  14  17
ATOM      2  O   UNL     1      11.384   9.337   4.389  0.00  0.00    -0.274 OA
ATOM      9  N   UNL     1      10.796   7.359   5.465  0.00  0.00    -0.302 N 
ATOM     17  C   UNL     1      11.599   8.163   4.672  0.00  0.00    +0.236 C 
ATOM     40  H   UNL     1      11.117   6.423   5.698  0.00  0.00    +0.150 HD
BRANCH   9  20
ATOM     20  C   UNL     1       9.571   7.822   6.074  0.00  0.00    +0.163 C 
BRANCH  20  24
ATOM      5  O   UNL     1       8.606   7.439   8.271  0.00  0.00    -0.274 OA
ATOM     12  N   UNL     1      10.661   6.526   7.800  0.00  0.00    -0.328 N 
ATOM     24  C   UNL     1       9.543   7.274   7.494  0.00  0.00    +0.231 C 
ATOM     42  H   UNL     1      10.761   6.089   8.710  0.00  0.00    +0.145 HD
ATOM     43  H   UNL     1      11.426   6.395   7.146  0.00  0.00    +0.145 HD
ENDBRANCH  20  24
BRANCH  20  22
ATOM     22  C   UNL     1       8.328   7.367   5.300  0.00  0.00    +0.074 C 
BRANCH  22  27
ATOM      1  S   UNL     1       7.189   9.645   4.171  0.00  0.00    -0.102 S 
ATOM     27  C   UNL     1       8.090   8.193   4.058  0.00  0.00    -0.008 A 
ATOM     30  C   UNL     1       8.511   7.945   2.770  0.00  0.00    +0.011 A 
ATOM     33  C   UNL     1       8.089   8.960   1.864  0.00  0.00    +0.008 A 
ATOM     34  C   UNL     1       7.360   9.945   2.493  0.00  0.00    +0.045 A 
ENDBRANCH  22  27
ENDBRANCH  20  22
ENDBRANCH   9  20
ENDBRANCH  14  17
TORSDOF 9
ENDMDL
MODEL 10
REMARK VINA RESULT:      -6.3     29.665     32.261
REMARK  Name = 11882072
REMARK  11 active torsions:
REMARK  status: ('A' for Active; 'I' for Inactive)
REMARK    1  A    between atoms: O_6  and  C_35
REMARK    2  A    between atoms: O_6  and  C_38
REMARK    3  A    between atoms: N_8  and  C_13
REMARK    4  A    between atoms: N_9  and  C_20
REMARK    5  A    between atoms: N_10  and  C_28
REMARK    6  A    between atoms: N_11  and  C_29
REMARK    7  A    between atoms: C_14  and  C_17
REMARK    8  A    between atoms: C_18  and  C_19
REMARK    9  A    between atoms: C_20  and  C_22
REMARK   10  A    between atoms: C_20  and  C_24
REMARK   11  A    between atoms: C_22  and  C_27
REMARK                            x       y       z     vdW  Elec       q    Type
REMARK                         _______ _______ _______ _____ _____    ______ ____
ROOT
ATOM      3  O   UNL     1     -12.218 -10.700  14.782  0.00  0.00    -0.268 OA
ATOM      7  N   UNL     1     -10.581  -9.537  15.918  0.00  0.00    -0.283 N 
ATOM     13  C   UNL     1      -8.257  -9.905  16.213  0.00  0.00    +0.105 C 
ATOM     14  C   UNL     1      -9.567 -10.581  15.808  0.00  0.00    +0.182 C 
ATOM     15  C   UNL     1      -8.711  -8.801  17.172  0.00  0.00    +0.043 C 
ATOM     16  C   UNL     1     -10.049  -8.356  16.598  0.00  0.00    +0.111 C 
ATOM     18  C   UNL     1     -11.846  -9.665  15.338  0.00  0.00    +0.264 C 
ENDROOT
BRANCH  13   8
ATOM      4  O   UNL     1      -6.491 -11.287  14.432  0.00  0.00    -0.252 OA
ATOM      8  N   UNL     1      -7.579  -9.349  15.067  0.00  0.00    -0.294 N 
ATOM     11  N   UNL     1      -6.219  -9.296  13.218  0.00  0.00    -0.269 N 
ATOM     21  C   UNL     1      -6.730 -10.097  14.244  0.00  0.00    +0.304 C 
ATOM     39  H   UNL     1      -7.777  -8.387  14.805  0.00  0.00    +0.151 HD
ATOM     41  H   UNL     1      -6.517  -8.324  13.207  0.00  0.00    +0.156 HD
BRANCH  11  29
ATOM     29  C   UNL     1      -5.331  -9.672  12.184  0.00  0.00    +0.038 A 
ATOM     31  C   UNL     1      -4.110 -10.271  12.498  0.00  0.00    +0.069 A 
ATOM     32  C   UNL     1      -5.673  -9.443  10.852  0.00  0.00    +0.023 A 
ATOM     35  C   UNL     1      -3.233 -10.641  11.478  0.00  0.00    +0.122 A 
ATOM     36  C   UNL     1      -4.796  -9.814   9.832  0.00  0.00    +0.005 A 
ATOM     37  C   UNL     1      -3.576 -10.413  10.145  0.00  0.00    +0.046 A 
BRANCH  35   6
ATOM      6  O   UNL     1      -2.042 -11.225  11.782  0.00  0.00    -0.495 OA
ATOM     38  C   UNL     1      -1.968 -11.946  13.012  0.00  0.00    +0.277 C 
ENDBRANCH  35   6
ENDBRANCH  11  29
ENDBRANCH  13   8
BRANCH  18  19
ATOM     10  N   UNL     1     -13.659  -8.333  16.437  0.00  0.00    -0.346 N 
ATOM     19  C   UNL     1     -12.731  -8.512  15.446  0.00  0.00    +0.104 A 
ATOM     23  C   UNL     1     -12.798  -7.424  14.603  0.00  0.00    +0.032 A 
ATOM     25  C   UNL     1     -14.319  -7.148  16.240  0.00  0.00    +0.086 A 
ATOM     26  C   UNL     1     -13.803  -6.562  15.106  0.00  0.00    +0.020 A 
ATOM     28  C   UNL     1     -13.917  -9.243  17.531  0.00  0.00    +0.149 C 
ENDBRANCH  18  19
BRANCH  14  17
ATOM      2  O   UNL     1     -10.719 -12.563  16.479  0.00  0.00    -0.274 OA
ATOM      9  N   UNL     1      -9.349 -11.481  18.017  0.00  0.00    -0.302 N 
ATOM     17  C   UNL     1      -9.947 -11.658  16.781  0.00  0.00    +0.236 C 
ATOM     40  H   UNL     1      -8.788 -10.648  18.177  0.00  0.00    +0.150 HD
BRANCH   9  20
ATOM     20  C   UNL     1      -9.569 -12.368  19.137  0.00  0.00    +0.163 C 
BRANCH  20  24
ATOM      5  O   UNL     1     -10.367 -10.369  20.265  0.00  0.00    -0.274 OA
ATOM     12  N   UNL     1     -11.162 -12.410  20.955  0.00  0.00    -0.328 N 
ATOM     24  C   UNL     1     -10.377 -11.594  20.169  0.00  0.00    +0.231 C 
ATOM     42  H   UNL     1     -11.763 -12.020  21.673  0.00  0.00    +0.145 HD
ATOM     43  H   UNL     1     -11.163 -13.421  20.862  0.00  0.00    +0.145 HD
ENDBRANCH  20  24
BRANCH  20  22
ATOM     22  C   UNL     1      -8.255 -12.868  19.751  0.00  0.00    +0.074 C 
BRANCH  22  27
ATOM      1  S   UNL     1      -6.274 -12.895  17.792  0.00  0.00    -0.102 S 
ATOM     27  C   UNL     1      -7.046 -12.192  19.150  0.00  0.00    -0.008 A 
ATOM     30  C   UNL     1      -6.431 -11.025  19.548  0.00  0.00    +0.011 A 
ATOM     33  C   UNL     1      -5.310 -10.704  18.728  0.00  0.00    +0.008 A 
ATOM     34  C   UNL     1      -5.112 -11.638  17.735  0.00  0.00    +0.045 A 
ENDBRANCH  22  27
ENDBRANCH  20  22
ENDBRANCH   9  20
ENDBRANCH  14  17
TORSDOF 9
ENDMDL
