MODEL 1
REMARK VINA RESULT:      -7.2      0.000      0.000
REMARK  Name = 11943156
REMARK  6 active torsions:
REMARK  status: ('A' for Active; 'I' for Inactive)
REMARK    1  A    between atoms: N_4  and  C_15
REMARK    2  A    between atoms: N_7  and  C_23
REMARK    3  A    between atoms: N_7  and  C_24
REMARK    4  A    between atoms: C_9  and  C_16
REMARK    5  A    between atoms: C_10  and  C_15
REMARK    6  A    between atoms: C_22  and  C_23
REMARK                            x       y       z     vdW  Elec       q    Type
REMARK                         _______ _______ _______ _____ _____    ______ ____
ROOT
ATOM      2  N   UNL     1      14.457   8.656  19.072  0.00  0.00    -0.297 NA
ATOM      8  C   UNL     1      11.857   8.594  19.159  0.00  0.00    +0.005 C 
ATOM      9  C   UNL     1      12.420   9.683  20.093  0.00  0.00    +0.092 C 
ATOM     10  C   UNL     1      13.991   7.270  19.345  0.00  0.00    +0.078 C 
ATOM     11  C   UNL     1      12.460   7.232  19.553  0.00  0.00    +0.025 C 
ATOM     12  C   UNL     1      12.356   8.924  17.740  0.00  0.00    +0.020 C 
ATOM     13  C   UNL     1      13.956   9.582  20.117  0.00  0.00    +0.097 C 
ATOM     14  C   UNL     1      13.888   9.080  17.768  0.00  0.00    +0.085 C 
ENDROOT
BRANCH   9  16
ATOM      1  O   UNL     1      11.703   8.473  22.015  0.00  0.00    -0.275 OA
ATOM      3  N   UNL     1      11.451  10.768  22.059  0.00  0.00    -0.301 N 
ATOM     16  C   UNL     1      11.829   9.573  21.476  0.00  0.00    +0.220 C 
ATOM     17  C   UNL     1      10.859  10.833  23.387  0.00  0.00    +0.108 C 
ATOM     18  C   UNL     1      11.577  12.101  21.477  0.00  0.00    +0.108 C 
ATOM     19  C   UNL     1      10.907  12.307  23.754  0.00  0.00    +0.020 C 
ATOM     20  C   UNL     1      10.767  12.997  22.404  0.00  0.00    +0.020 C 
ENDBRANCH   9  16
BRANCH  10  15
ATOM     15  C   UNL     1      14.739   6.622  20.511  0.00  0.00    +0.164 C 
BRANCH  15   4
ATOM      4  N   UNL     1      16.128   6.355  20.180  0.00  0.00    -0.250 N 
ATOM      5  N   UNL     1      16.451   5.868  18.978  0.00  0.00    -0.065 NA
ATOM      6  N   UNL     1      17.771   5.723  18.964  0.00  0.00    -0.133 NA
ATOM     21  C   UNL     1      17.210   6.537  20.973  0.00  0.00    +0.135 A 
ATOM     22  C   UNL     1      18.252   6.128  20.179  0.00  0.00    +0.097 A 
BRANCH  22  23
ATOM     23  C   UNL     1      19.688   6.089  20.482  0.00  0.00    +0.139 C 
BRANCH  23   7
ATOM      7  N   UNL     1      20.290   4.868  19.931  0.00  0.00    -0.314 NA
ATOM     24  C   UNL     1      21.296   4.344  20.836  0.00  0.00    +0.101 C 
ATOM     25  H   UNL     1      20.729   5.083  19.036  0.00  0.00    +0.122 HD
ENDBRANCH  23   7
ENDBRANCH  22  23
ENDBRANCH  15   4
ENDBRANCH  10  15
TORSDOF 5
ENDMDL
MODEL 2
REMARK VINA RESULT:      -6.4      1.862      2.529
REMARK  Name = 11943156
REMARK  6 active torsions:
REMARK  status: ('A' for Active; 'I' for Inactive)
REMARK    1  A    between atoms: N_4  and  C_15
REMARK    2  A    between atoms: N_7  and  C_23
REMARK    3  A    between atoms: N_7  and  C_24
REMARK    4  A    between atoms: C_9  and  C_16
REMARK    5  A    between atoms: C_10  and  C_15
REMARK    6  A    between atoms: C_22  and  C_23
REMARK                            x       y       z     vdW  Elec       q    Type
REMARK                         _______ _______ _______ _____ _____    ______ ____
ROOT
ATOM      2  N   UNL     1      12.288   9.307  19.561  0.00  0.00    -0.297 NA
ATOM      8  C   UNL     1      12.036   8.654  22.066  0.00  0.00    +0.005 C 
ATOM      9  C   UNL     1      11.975  10.182  21.880  0.00  0.00    +0.092 C 
ATOM     10  C   UNL     1      13.402   8.408  19.965  0.00  0.00    +0.078 C 
ATOM     11  C   UNL     1      13.362   8.128  21.484  0.00  0.00    +0.025 C 
ATOM     12  C   UNL     1      10.895   8.057  21.221  0.00  0.00    +0.020 C 
ATOM     13  C   UNL     1      12.274  10.523  20.409  0.00  0.00    +0.097 C 
ATOM     14  C   UNL     1      11.013   8.578  19.776  0.00  0.00    +0.085 C 
ENDROOT
BRANCH   9  16
ATOM      1  O   UNL     1      14.139  10.804  22.657  0.00  0.00    -0.275 OA
ATOM      3  N   UNL     1      12.324  11.591  23.848  0.00  0.00    -0.301 N 
ATOM     16  C   UNL     1      12.921  10.884  22.821  0.00  0.00    +0.220 C 
ATOM     17  C   UNL     1      13.098  12.318  24.844  0.00  0.00    +0.108 C 
ATOM     18  C   UNL     1      10.892  11.728  24.096  0.00  0.00    +0.108 C 
ATOM     19  C   UNL     1      12.077  13.191  25.557  0.00  0.00    +0.020 C 
ATOM     20  C   UNL     1      10.805  12.356  25.480  0.00  0.00    +0.020 C 
ENDBRANCH   9  16
BRANCH  10  15
ATOM     15  C   UNL     1      14.767   8.935  19.520  0.00  0.00    +0.164 C 
BRANCH  15   4
ATOM      4  N   UNL     1      15.818   7.953  19.724  0.00  0.00    -0.250 N 
ATOM      5  N   UNL     1      15.774   6.779  19.087  0.00  0.00    -0.065 NA
ATOM      6  N   UNL     1      16.848   6.095  19.467  0.00  0.00    -0.133 NA
ATOM     21  C   UNL     1      16.904   8.068  20.525  0.00  0.00    +0.135 A 
ATOM     22  C   UNL     1      17.551   6.871  20.348  0.00  0.00    +0.097 A 
BRANCH  22  23
ATOM     23  C   UNL     1      18.800   6.395  20.954  0.00  0.00    +0.139 C 
BRANCH  23   7
ATOM      7  N   UNL     1      18.827   6.723  22.385  0.00  0.00    -0.314 NA
ATOM     24  C   UNL     1      19.938   7.609  22.683  0.00  0.00    +0.101 C 
ATOM     25  H   UNL     1      18.932   5.866  22.927  0.00  0.00    +0.122 HD
ENDBRANCH  23   7
ENDBRANCH  22  23
ENDBRANCH  15   4
ENDBRANCH  10  15
TORSDOF 5
ENDMDL
MODEL 3
REMARK VINA RESULT:      -6.4     17.485     20.374
REMARK  Name = 11943156
REMARK  6 active torsions:
REMARK  status: ('A' for Active; 'I' for Inactive)
REMARK    1  A    between atoms: N_4  and  C_15
REMARK    2  A    between atoms: N_7  and  C_23
REMARK    3  A    between atoms: N_7  and  C_24
REMARK    4  A    between atoms: C_9  and  C_16
REMARK    5  A    between atoms: C_10  and  C_15
REMARK    6  A    between atoms: C_22  and  C_23
REMARK                            x       y       z     vdW  Elec       q    Type
REMARK                         _______ _______ _______ _____ _____    ______ ____
ROOT
ATOM      2  N   UNL     1      13.027   5.669   1.802  0.00  0.00    -0.297 NA
ATOM      8  C   UNL     1      13.133   3.326   0.675  0.00  0.00    +0.005 C 
ATOM      9  C   UNL     1      12.710   4.411  -0.334  0.00  0.00    +0.092 C 
ATOM     10  C   UNL     1      12.228   4.691   2.588  0.00  0.00    +0.078 C 
ATOM     11  C   UNL     1      12.148   3.330   1.860  0.00  0.00    +0.025 C 
ATOM     12  C   UNL     1      14.511   3.740   1.222  0.00  0.00    +0.020 C 
ATOM     13  C   UNL     1      12.521   5.745   0.410  0.00  0.00    +0.097 C 
ATOM     14  C   UNL     1      14.428   5.181   1.759  0.00  0.00    +0.085 C 
ENDROOT
BRANCH   9  16
ATOM      1  O   UNL     1      10.367   4.035  -0.527  0.00  0.00    -0.275 OA
ATOM      3  N   UNL     1      11.661   3.606  -2.391  0.00  0.00    -0.301 N 
ATOM     16  C   UNL     1      11.466   4.005  -1.082  0.00  0.00    +0.220 C 
ATOM     17  C   UNL     1      10.563   3.178  -3.245  0.00  0.00    +0.108 C 
ATOM     18  C   UNL     1      12.932   3.551  -3.106  0.00  0.00    +0.108 C 
ATOM     19  C   UNL     1      11.157   3.150  -4.645  0.00  0.00    +0.020 C 
ATOM     20  C   UNL     1      12.614   2.791  -4.387  0.00  0.00    +0.020 C 
ENDBRANCH   9  16
BRANCH  10  15
ATOM     15  C   UNL     1      10.840   5.226   2.946  0.00  0.00    +0.164 C 
BRANCH  15   4
ATOM      4  N   UNL     1      10.724   5.521   4.364  0.00  0.00    -0.250 N 
ATOM      5  N   UNL     1      11.658   6.255   4.976  0.00  0.00    -0.065 NA
ATOM      6  N   UNL     1      11.294   6.354   6.250  0.00  0.00    -0.133 NA
ATOM     21  C   UNL     1       9.740   5.126   5.206  0.00  0.00    +0.135 A 
ATOM     22  C   UNL     1      10.121   5.668   6.408  0.00  0.00    +0.097 A 
BRANCH  22  23
ATOM     23  C   UNL     1       9.455   5.587   7.713  0.00  0.00    +0.139 C 
BRANCH  23   7
ATOM      7  N   UNL     1      10.087   4.554   8.543  0.00  0.00    -0.314 NA
ATOM     24  C   UNL     1       9.425   4.461   9.832  0.00  0.00    +0.101 C 
ATOM     25  H   UNL     1      11.068   4.793   8.691  0.00  0.00    +0.122 HD
ENDBRANCH  23   7
ENDBRANCH  22  23
ENDBRANCH  15   4
ENDBRANCH  10  15
TORSDOF 5
ENDMDL
MODEL 4
REMARK VINA RESULT:      -6.3      3.579      5.439
REMARK  Name = 11943156
REMARK  6 active torsions:
REMARK  status: ('A' for Active; 'I' for Inactive)
REMARK    1  A    between atoms: N_4  and  C_15
REMARK    2  A    between atoms: N_7  and  C_23
REMARK    3  A    between atoms: N_7  and  C_24
REMARK    4  A    between atoms: C_9  and  C_16
REMARK    5  A    between atoms: C_10  and  C_15
REMARK    6  A    between atoms: C_22  and  C_23
REMARK                            x       y       z     vdW  Elec       q    Type
REMARK                         _______ _______ _______ _____ _____    ______ ____
ROOT
ATOM      2  N   UNL     1      12.174   8.980  19.384  0.00  0.00    -0.297 NA
ATOM      8  C   UNL     1      12.385   8.278  21.881  0.00  0.00    +0.005 C 
ATOM      9  C   UNL     1      12.567   9.798  21.713  0.00  0.00    +0.092 C 
ATOM     10  C   UNL     1      13.165   7.879  19.520  0.00  0.00    +0.078 C 
ATOM     11  C   UNL     1      13.422   7.547  21.006  0.00  0.00    +0.025 C 
ATOM     12  C   UNL     1      10.992   7.932  21.324  0.00  0.00    +0.020 C 
ATOM     13  C   UNL     1      12.580  10.142  20.212  0.00  0.00    +0.097 C 
ATOM     14  C   UNL     1      10.870   8.484  19.891  0.00  0.00    +0.085 C 
ENDROOT
BRANCH   9  16
ATOM      1  O   UNL     1      14.927   9.919  22.014  0.00  0.00    -0.275 OA
ATOM      3  N   UNL     1      13.612  11.117  23.487  0.00  0.00    -0.301 N 
ATOM     16  C   UNL     1      13.816  10.278  22.408  0.00  0.00    +0.220 C 
ATOM     17  C   UNL     1      14.714  11.661  24.268  0.00  0.00    +0.108 C 
ATOM     18  C   UNL     1      12.327  11.581  24.001  0.00  0.00    +0.108 C 
ATOM     19  C   UNL     1      14.078  12.754  25.113  0.00  0.00    +0.020 C 
ATOM     20  C   UNL     1      12.665  12.232  25.335  0.00  0.00    +0.020 C 
ENDBRANCH   9  16
BRANCH  10  15
ATOM     15  C   UNL     1      14.465   8.170  18.769  0.00  0.00    +0.164 C 
BRANCH  15   4
ATOM      4  N   UNL     1      14.216   8.759  17.464  0.00  0.00    -0.250 N 
ATOM      5  N   UNL     1      13.698   8.018  16.480  0.00  0.00    -0.065 NA
ATOM      6  N   UNL     1      13.588   8.811  15.420  0.00  0.00    -0.133 NA
ATOM     21  C   UNL     1      14.456  10.035  17.081  0.00  0.00    +0.135 A 
ATOM     22  C   UNL     1      14.048  10.050  15.771  0.00  0.00    +0.097 A 
BRANCH  22  23
ATOM     23  C   UNL     1      14.059  11.160  14.810  0.00  0.00    +0.139 C 
BRANCH  23   7
ATOM      7  N   UNL     1      12.737  11.305  14.188  0.00  0.00    -0.314 NA
ATOM     24  C   UNL     1      12.722  12.442  13.285  0.00  0.00    +0.101 C 
ATOM     25  H   UNL     1      12.036  11.450  14.915  0.00  0.00    +0.122 HD
ENDBRANCH  23   7
ENDBRANCH  22  23
ENDBRANCH  15   4
ENDBRANCH  10  15
TORSDOF 5
ENDMDL
MODEL 5
REMARK VINA RESULT:      -6.1     26.769     28.806
REMARK  Name = 11943156
REMARK  6 active torsions:
REMARK  status: ('A' for Active; 'I' for Inactive)
REMARK    1  A    between atoms: N_4  and  C_15
REMARK    2  A    between atoms: N_7  and  C_23
REMARK    3  A    between atoms: N_7  and  C_24
REMARK    4  A    between atoms: C_9  and  C_16
REMARK    5  A    between atoms: C_10  and  C_15
REMARK    6  A    between atoms: C_22  and  C_23
REMARK                            x       y       z     vdW  Elec       q    Type
REMARK                         _______ _______ _______ _____ _____    ______ ____
ROOT
ATOM      2  N   UNL     1      -5.104 -10.198  11.349  0.00  0.00    -0.297 NA
ATOM      8  C   UNL     1      -4.806  -8.842   9.148  0.00  0.00    +0.005 C 
ATOM      9  C   UNL     1      -5.673 -10.095   8.918  0.00  0.00    +0.092 C 
ATOM     10  C   UNL     1      -3.660  -9.942  11.103  0.00  0.00    +0.078 C 
ATOM     11  C   UNL     1      -3.444  -9.273   9.727  0.00  0.00    +0.025 C 
ATOM     12  C   UNL     1      -5.516  -8.001  10.224  0.00  0.00    +0.020 C 
ATOM     13  C   UNL     1      -5.698 -10.935  10.207  0.00  0.00    +0.097 C 
ATOM     14  C   UNL     1      -5.788  -8.884  11.457  0.00  0.00    +0.085 C 
ENDROOT
BRANCH   9  16
ATOM      1  O   UNL     1      -4.251 -11.695   7.873  0.00  0.00    -0.275 OA
ATOM      3  N   UNL     1      -5.821 -10.649   6.540  0.00  0.00    -0.301 N 
ATOM     16  C   UNL     1      -5.177 -10.893   7.739  0.00  0.00    +0.220 C 
ATOM     17  C   UNL     1      -5.456 -11.333   5.308  0.00  0.00    +0.108 C 
ATOM     18  C   UNL     1      -6.922  -9.717   6.315  0.00  0.00    +0.108 C 
ATOM     19  C   UNL     1      -6.594 -11.023   4.349  0.00  0.00    +0.020 C 
ATOM     20  C   UNL     1      -7.051  -9.642   4.800  0.00  0.00    +0.020 C 
ENDBRANCH   9  16
BRANCH  10  15
ATOM     15  C   UNL     1      -2.809 -11.203  11.261  0.00  0.00    +0.164 C 
BRANCH  15   4
ATOM      4  N   UNL     1      -2.347 -11.375  12.628  0.00  0.00    -0.250 N 
ATOM      5  N   UNL     1      -1.920 -12.569  13.047  0.00  0.00    -0.065 NA
ATOM      6  N   UNL     1      -1.569 -12.426  14.321  0.00  0.00    -0.133 NA
ATOM     21  C   UNL     1      -2.289 -10.433  13.599  0.00  0.00    +0.135 A 
ATOM     22  C   UNL     1      -1.789 -11.123  14.674  0.00  0.00    +0.097 A 
BRANCH  22  23
ATOM     23  C   UNL     1      -1.499 -10.642  16.030  0.00  0.00    +0.139 C 
BRANCH  23   7
ATOM      7  N   UNL     1      -2.379 -11.302  17.002  0.00  0.00    -0.314 NA
ATOM     24  C   UNL     1      -3.752 -10.861  16.828  0.00  0.00    +0.101 C 
ATOM     25  H   UNL     1      -2.074 -11.069  17.947  0.00  0.00    +0.122 HD
ENDBRANCH  23   7
ENDBRANCH  22  23
ENDBRANCH  15   4
ENDBRANCH  10  15
TORSDOF 5
ENDMDL
MODEL 6
REMARK VINA RESULT:      -5.8     27.610     30.061
REMARK  Name = 11943156
REMARK  6 active torsions:
REMARK  status: ('A' for Active; 'I' for Inactive)
REMARK    1  A    between atoms: N_4  and  C_15
REMARK    2  A    between atoms: N_7  and  C_23
REMARK    3  A    between atoms: N_7  and  C_24
REMARK    4  A    between atoms: C_9  and  C_16
REMARK    5  A    between atoms: C_10  and  C_15
REMARK    6  A    between atoms: C_22  and  C_23
REMARK                            x       y       z     vdW  Elec       q    Type
REMARK                         _______ _______ _______ _____ _____    ______ ____
ROOT
ATOM      2  N   UNL     1      -7.270 -10.428  18.645  0.00  0.00    -0.297 NA
ATOM      8  C   UNL     1      -5.253 -11.889  17.891  0.00  0.00    +0.005 C 
ATOM      9  C   UNL     1      -5.216 -10.501  17.223  0.00  0.00    +0.092 C 
ATOM     10  C   UNL     1      -7.753 -11.746  18.151  0.00  0.00    +0.078 C 
ATOM     11  C   UNL     1      -6.593 -12.573  17.556  0.00  0.00    +0.025 C 
ATOM     12  C   UNL     1      -5.227 -11.651  19.411  0.00  0.00    +0.020 C 
ATOM     13  C   UNL     1      -6.500  -9.733  17.585  0.00  0.00    +0.097 C 
ATOM     14  C   UNL     1      -6.358 -10.678  19.790  0.00  0.00    +0.085 C 
ENDROOT
BRANCH   9  16
ATOM      1  O   UNL     1      -6.015 -10.680  14.986  0.00  0.00    -0.275 OA
ATOM      3  N   UNL     1      -3.726 -10.654  15.290  0.00  0.00    -0.301 N 
ATOM     16  C   UNL     1      -5.035 -10.618  15.731  0.00  0.00    +0.220 C 
ATOM     17  C   UNL     1      -3.383 -10.772  13.880  0.00  0.00    +0.108 C 
ATOM     18  C   UNL     1      -2.525 -10.582  16.117  0.00  0.00    +0.108 C 
ATOM     19  C   UNL     1      -1.898 -10.449  13.822  0.00  0.00    +0.020 C 
ATOM     20  C   UNL     1      -1.390 -10.945  15.169  0.00  0.00    +0.020 C 
ENDBRANCH   9  16
BRANCH  10  15
ATOM     15  C   UNL     1      -8.917 -11.608  17.167  0.00  0.00    +0.164 C 
BRANCH  15   4
ATOM      4  N   UNL     1      -9.998 -10.808  17.717  0.00  0.00    -0.250 N 
ATOM      5  N   UNL     1     -10.287  -9.616  17.187  0.00  0.00    -0.065 NA
ATOM      6  N   UNL     1     -11.302  -9.121  17.888  0.00  0.00    -0.133 NA
ATOM     21  C   UNL     1     -10.801 -11.121  18.761  0.00  0.00    +0.135 A 
ATOM     22  C   UNL     1     -11.629 -10.031  18.856  0.00  0.00    +0.097 A 
BRANCH  22  23
ATOM     23  C   UNL     1     -12.721  -9.777  19.803  0.00  0.00    +0.139 C 
BRANCH  23   7
ATOM      7  N   UNL     1     -12.432 -10.414  21.094  0.00  0.00    -0.314 NA
ATOM     24  C   UNL     1     -13.478 -11.359  21.440  0.00  0.00    +0.101 C 
ATOM     25  H   UNL     1     -12.377  -9.700  21.819  0.00  0.00    +0.122 HD
ENDBRANCH  23   7
ENDBRANCH  22  23
ENDBRANCH  15   4
ENDBRANCH  10  15
TORSDOF 5
ENDMDL
MODEL 7
REMARK VINA RESULT:      -5.7     26.891     28.905
REMARK  Name = 11943156
REMARK  6 active torsions:
REMARK  status: ('A' for Active; 'I' for Inactive)
REMARK    1  A    between atoms: N_4  and  C_15
REMARK    2  A    between atoms: N_7  and  C_23
REMARK    3  A    between atoms: N_7  and  C_24
REMARK    4  A    between atoms: C_9  and  C_16
REMARK    5  A    between atoms: C_10  and  C_15
REMARK    6  A    between atoms: C_22  and  C_23
REMARK                            x       y       z     vdW  Elec       q    Type
REMARK                         _______ _______ _______ _____ _____    ______ ____
ROOT
ATOM      2  N   UNL     1      -5.064 -10.102  11.903  0.00  0.00    -0.297 NA
ATOM      8  C   UNL     1      -4.177  -9.559   9.518  0.00  0.00    +0.005 C 
ATOM      9  C   UNL     1      -5.108 -10.786   9.500  0.00  0.00    +0.092 C 
ATOM     10  C   UNL     1      -3.581  -9.992  11.926  0.00  0.00    +0.078 C 
ATOM     11  C   UNL     1      -3.016  -9.822  10.498  0.00  0.00    +0.025 C 
ATOM     12  C   UNL     1      -4.998  -8.386  10.083  0.00  0.00    +0.020 C 
ATOM     13  C   UNL     1      -5.487 -11.153  10.946  0.00  0.00    +0.097 C 
ATOM     14  C   UNL     1      -5.609  -8.803  11.434  0.00  0.00    +0.085 C 
ENDROOT
BRANCH   9  16
ATOM      1  O   UNL     1      -3.812 -12.782   9.398  0.00  0.00    -0.275 OA
ATOM      3  N   UNL     1      -4.673 -11.980   7.410  0.00  0.00    -0.301 N 
ATOM     16  C   UNL     1      -4.469 -11.945   8.777  0.00  0.00    +0.220 C 
ATOM     17  C   UNL     1      -4.118 -13.029   6.568  0.00  0.00    +0.108 C 
ATOM     18  C   UNL     1      -5.441 -11.025   6.618  0.00  0.00    +0.108 C 
ATOM     19  C   UNL     1      -4.839 -12.872   5.238  0.00  0.00    +0.020 C 
ATOM     20  C   UNL     1      -5.107 -11.374   5.174  0.00  0.00    +0.020 C 
ENDBRANCH   9  16
BRANCH  10  15
ATOM     15  C   UNL     1      -2.921 -11.159  12.662  0.00  0.00    +0.164 C 
BRANCH  15   4
ATOM      4  N   UNL     1      -3.011 -11.009  14.104  0.00  0.00    -0.250 N 
ATOM      5  N   UNL     1      -1.959 -10.568  14.800  0.00  0.00    -0.065 NA
ATOM      6  N   UNL     1      -2.329 -10.537  16.076  0.00  0.00    -0.133 NA
ATOM     21  C   UNL     1      -4.080 -11.275  14.892  0.00  0.00    +0.135 A 
ATOM     22  C   UNL     1      -3.625 -10.968  16.149  0.00  0.00    +0.097 A 
BRANCH  22  23
ATOM     23  C   UNL     1      -4.330 -11.050  17.435  0.00  0.00    +0.139 C 
BRANCH  23   7
ATOM      7  N   UNL     1      -4.071 -12.346  18.073  0.00  0.00    -0.314 NA
ATOM     24  C   UNL     1      -3.627 -12.160  19.443  0.00  0.00    +0.101 C 
ATOM     25  H   UNL     1      -3.345 -12.840  17.554  0.00  0.00    +0.122 HD
ENDBRANCH  23   7
ENDBRANCH  22  23
ENDBRANCH  15   4
ENDBRANCH  10  15
TORSDOF 5
ENDMDL
MODEL 8
REMARK VINA RESULT:      -5.7     25.521     28.745
REMARK  Name = 11943156
REMARK  6 active torsions:
REMARK  status: ('A' for Active; 'I' for Inactive)
REMARK    1  A    between atoms: N_4  and  C_15
REMARK    2  A    between atoms: N_7  and  C_23
REMARK    3  A    between atoms: N_7  and  C_24
REMARK    4  A    between atoms: C_9  and  C_16
REMARK    5  A    between atoms: C_10  and  C_15
REMARK    6  A    between atoms: C_22  and  C_23
REMARK                            x       y       z     vdW  Elec       q    Type
REMARK                         _______ _______ _______ _____ _____    ______ ____
ROOT
ATOM      2  N   UNL     1     -14.673   8.792  21.307  0.00  0.00    -0.297 NA
ATOM      8  C   UNL     1     -12.162   9.359  20.929  0.00  0.00    +0.005 C 
ATOM      9  C   UNL     1     -13.016   9.778  19.718  0.00  0.00    +0.092 C 
ATOM     10  C   UNL     1     -13.838   7.585  21.553  0.00  0.00    +0.078 C 
ATOM     11  C   UNL     1     -12.361   7.852  21.188  0.00  0.00    +0.025 C 
ATOM     12  C   UNL     1     -12.722  10.111  22.150  0.00  0.00    +0.020 C 
ATOM     13  C   UNL     1     -14.462   9.292  19.927  0.00  0.00    +0.097 C 
ATOM     14  C   UNL     1     -14.236   9.848  22.254  0.00  0.00    +0.085 C 
ENDROOT
BRANCH   9  16
ATOM      1  O   UNL     1     -12.780   8.162  17.984  0.00  0.00    -0.275 OA
ATOM      3  N   UNL     1     -11.499  10.077  17.823  0.00  0.00    -0.301 N 
ATOM     16  C   UNL     1     -12.431   9.256  18.430  0.00  0.00    +0.220 C 
ATOM     17  C   UNL     1     -10.837   9.714  16.579  0.00  0.00    +0.108 C 
ATOM     18  C   UNL     1     -11.045  11.381  18.296  0.00  0.00    +0.108 C 
ATOM     19  C   UNL     1     -10.171  10.999  16.113  0.00  0.00    +0.020 C 
ATOM     20  C   UNL     1      -9.841  11.703  17.423  0.00  0.00    +0.020 C 
ENDBRANCH   9  16
BRANCH  10  15
ATOM     15  C   UNL     1     -14.384   6.345  20.843  0.00  0.00    +0.164 C 
BRANCH  15   4
ATOM      4  N   UNL     1     -14.991   5.412  21.777  0.00  0.00    -0.250 N 
ATOM      5  N   UNL     1     -16.059   4.697  21.412  0.00  0.00    -0.065 NA
ATOM      6  N   UNL     1     -16.392   3.945  22.456  0.00  0.00    -0.133 NA
ATOM     21  C   UNL     1     -14.601   5.152  23.047  0.00  0.00    +0.135 A 
ATOM     22  C   UNL     1     -15.509   4.212  23.466  0.00  0.00    +0.097 A 
BRANCH  22  23
ATOM     23  C   UNL     1     -15.609   3.536  24.765  0.00  0.00    +0.139 C 
BRANCH  23   7
ATOM      7  N   UNL     1     -15.990   2.130  24.577  0.00  0.00    -0.314 NA
ATOM     24  C   UNL     1     -16.641   1.616  25.769  0.00  0.00    +0.101 C 
ATOM     25  H   UNL     1     -15.155   1.576  24.390  0.00  0.00    +0.122 HD
ENDBRANCH  23   7
ENDBRANCH  22  23
ENDBRANCH  15   4
ENDBRANCH  10  15
TORSDOF 5
ENDMDL
MODEL 9
REMARK VINA RESULT:      -5.6     26.901     28.642
REMARK  Name = 11943156
REMARK  6 active torsions:
REMARK  status: ('A' for Active; 'I' for Inactive)
REMARK    1  A    between atoms: N_4  and  C_15
REMARK    2  A    between atoms: N_7  and  C_23
REMARK    3  A    between atoms: N_7  and  C_24
REMARK    4  A    between atoms: C_9  and  C_16
REMARK    5  A    between atoms: C_10  and  C_15
REMARK    6  A    between atoms: C_22  and  C_23
REMARK                            x       y       z     vdW  Elec       q    Type
REMARK                         _______ _______ _______ _____ _____    ______ ____
ROOT
ATOM      2  N   UNL     1      -5.687 -12.070  16.864  0.00  0.00    -0.297 NA
ATOM      8  C   UNL     1      -7.145 -11.172  18.824  0.00  0.00    +0.005 C 
ATOM      9  C   UNL     1      -7.927 -11.158  17.496  0.00  0.00    +0.092 C 
ATOM     10  C   UNL     1      -4.958 -10.994  17.588  0.00  0.00    +0.078 C 
ATOM     11  C   UNL     1      -5.859 -10.339  18.658  0.00  0.00    +0.025 C 
ATOM     12  C   UNL     1      -6.718 -12.630  19.074  0.00  0.00    +0.020 C 
ATOM     13  C   UNL     1      -6.981 -11.558  16.349  0.00  0.00    +0.097 C 
ATOM     14  C   UNL     1      -5.973 -13.157  17.833  0.00  0.00    +0.085 C 
ENDROOT
BRANCH   9  16
ATOM      1  O   UNL     1      -7.906  -8.885  16.785  0.00  0.00    -0.275 OA
ATOM      3  N   UNL     1      -9.902  -9.719  17.595  0.00  0.00    -0.301 N 
ATOM     16  C   UNL     1      -8.566  -9.815  17.253  0.00  0.00    +0.220 C 
ATOM     17  C   UNL     1     -10.661  -8.489  17.429  0.00  0.00    +0.108 C 
ATOM     18  C   UNL     1     -10.738 -10.780  18.150  0.00  0.00    +0.108 C 
ATOM     19  C   UNL     1     -12.112  -8.909  17.607  0.00  0.00    +0.020 C 
ATOM     20  C   UNL     1     -12.009 -10.068  18.591  0.00  0.00    +0.020 C 
ENDBRANCH   9  16
BRANCH  10  15
ATOM     15  C   UNL     1      -4.357  -9.956  16.638  0.00  0.00    +0.164 C 
BRANCH  15   4
ATOM      4  N   UNL     1      -3.395 -10.551  15.726  0.00  0.00    -0.250 N 
ATOM      5  N   UNL     1      -2.206 -10.960  16.177  0.00  0.00    -0.065 NA
ATOM      6  N   UNL     1      -1.546 -11.449  15.133  0.00  0.00    -0.133 NA
ATOM     21  C   UNL     1      -3.544 -10.756  14.396  0.00  0.00    +0.135 A 
ATOM     22  C   UNL     1      -2.352 -11.332  14.034  0.00  0.00    +0.097 A 
BRANCH  22  23
ATOM     23  C   UNL     1      -1.907 -11.786  12.711  0.00  0.00    +0.139 C 
BRANCH  23   7
ATOM      7  N   UNL     1      -2.649 -11.082  11.657  0.00  0.00    -0.314 NA
ATOM     24  C   UNL     1      -3.416 -12.022  10.859  0.00  0.00    +0.101 C 
ATOM     25  H   UNL     1      -1.991 -10.593  11.050  0.00  0.00    +0.122 HD
ENDBRANCH  23   7
ENDBRANCH  22  23
ENDBRANCH  15   4
ENDBRANCH  10  15
TORSDOF 5
ENDMDL
MODEL 10
REMARK VINA RESULT:      -5.6     27.029     28.715
REMARK  Name = 11943156
REMARK  6 active torsions:
REMARK  status: ('A' for Active; 'I' for Inactive)
REMARK    1  A    between atoms: N_4  and  C_15
REMARK    2  A    between atoms: N_7  and  C_23
REMARK    3  A    between atoms: N_7  and  C_24
REMARK    4  A    between atoms: C_9  and  C_16
REMARK    5  A    between atoms: C_10  and  C_15
REMARK    6  A    between atoms: C_22  and  C_23
REMARK                            x       y       z     vdW  Elec       q    Type
REMARK                         _______ _______ _______ _____ _____    ______ ____
ROOT
ATOM      2  N   UNL     1      -5.070 -12.823  17.062  0.00  0.00    -0.297 NA
ATOM      8  C   UNL     1      -5.232 -10.610  18.420  0.00  0.00    +0.005 C 
ATOM      9  C   UNL     1      -6.608 -11.027  17.868  0.00  0.00    +0.092 C 
ATOM     10  C   UNL     1      -4.064 -11.847  16.564  0.00  0.00    +0.078 C 
ATOM     11  C   UNL     1      -4.240 -10.474  17.248  0.00  0.00    +0.025 C 
ATOM     12  C   UNL     1      -4.738 -11.768  19.306  0.00  0.00    +0.020 C 
ATOM     13  C   UNL     1      -6.435 -12.254  16.956  0.00  0.00    +0.097 C 
ATOM     14  C   UNL     1      -4.785 -13.078  18.497  0.00  0.00    +0.085 C 
ENDROOT
BRANCH   9  16
ATOM      1  O   UNL     1      -6.651  -9.215  16.322  0.00  0.00    -0.275 OA
ATOM      3  N   UNL     1      -8.597  -9.655  17.486  0.00  0.00    -0.301 N 
ATOM     16  C   UNL     1      -7.276  -9.883  17.147  0.00  0.00    +0.220 C 
ATOM     17  C   UNL     1      -9.380  -8.585  16.886  0.00  0.00    +0.108 C 
ATOM     18  C   UNL     1      -9.393 -10.409  18.451  0.00  0.00    +0.108 C 
ATOM     19  C   UNL     1     -10.815  -8.895  17.283  0.00  0.00    +0.020 C 
ATOM     20  C   UNL     1     -10.653  -9.575  18.636  0.00  0.00    +0.020 C 
ENDBRANCH   9  16
BRANCH  10  15
ATOM     15  C   UNL     1      -4.073 -11.728  15.039  0.00  0.00    +0.164 C 
BRANCH  15   4
ATOM      4  N   UNL     1      -3.097 -12.609  14.421  0.00  0.00    -0.250 N 
ATOM      5  N   UNL     1      -1.875 -12.156  14.126  0.00  0.00    -0.065 NA
ATOM      6  N   UNL     1      -1.213 -13.168  13.576  0.00  0.00    -0.133 NA
ATOM     21  C   UNL     1      -3.266 -13.908  14.077  0.00  0.00    +0.135 A 
ATOM     22  C   UNL     1      -2.051 -14.249  13.538  0.00  0.00    +0.097 A 
BRANCH  22  23
ATOM     23  C   UNL     1      -1.613 -15.534  12.981  0.00  0.00    +0.139 C 
BRANCH  23   7
ATOM      7  N   UNL     1      -1.595 -15.472  11.514  0.00  0.00    -0.314 NA
ATOM     24  C   UNL     1      -2.623 -16.333  10.956  0.00  0.00    +0.101 C 
ATOM     25  H   UNL     1      -0.684 -15.780  11.174  0.00  0.00    +0.122 HD
ENDBRANCH  23   7
ENDBRANCH  22  23
ENDBRANCH  15   4
ENDBRANCH  10  15
TORSDOF 5
ENDMDL
