REMARK  Name = 7127943
REMARK  11 active torsions:
REMARK  status: ('A' for Active; 'I' for Inactive)
REMARK    1  A    between atoms: N_6  and  C_12
REMARK    2  A    between atoms: N_7  and  C_18
REMARK    3  A    between atoms: N_8  and  C_29
REMARK    4  A    between atoms: N_9  and  C_25
REMARK    5  A    between atoms: C_13  and  C_16
REMARK    6  A    between atoms: C_17  and  C_19
REMARK    7  A    between atoms: C_18  and  C_21
REMARK    8  A    between atoms: C_18  and  C_24
REMARK    9  A    between atoms: C_21  and  C_22
REMARK   10  A    between atoms: C_25  and  C_32
REMARK   11  A    between atoms: C_25  and  C_33
REMARK                            x       y       z     vdW  Elec       q    Type
REMARK                         _______ _______ _______ _____ _____    ______ ____
ROOT
ATOM      2  O   UNL     1      -3.655   1.694   0.398  0.00  0.00    -0.268 OA
ATOM      5  N   UNL     1      -2.365  -0.162   0.858  0.00  0.00    -0.283 N 
ATOM     12  C   UNL     1      -0.661  -1.778   1.242  0.00  0.00    +0.094 C 
ATOM     13  C   UNL     1      -1.162   0.588   1.188  0.00  0.00    +0.164 C 
ATOM     14  C   UNL     1      -0.216  -0.431   1.821  0.00  0.00    +0.056 C 
ATOM     15  C   UNL     1      -2.162  -1.601   1.040  0.00  0.00    +0.131 C 
ATOM     17  C   UNL     1      -3.567   0.473   0.535  0.00  0.00    +0.264 C 
ENDROOT
BRANCH  12   6
ATOM      3  O   UNL     1       1.776  -3.291   0.926  0.00  0.00    -0.253 OA
ATOM      6  N   UNL     1       0.010  -2.095   0.007  0.00  0.00    -0.295 N 
ATOM      9  N   UNL     1       1.621  -2.994  -1.370  0.00  0.00    -0.297 N 
ATOM     20  C   UNL     1       1.190  -2.835  -0.055  0.00  0.00    +0.300 C 
ATOM     38  H   UNL     1      -0.357  -1.706  -0.856  0.00  0.00    +0.151 HD
ATOM     40  H   UNL     1       1.029  -2.644  -2.118  0.00  0.00    +0.150 HD
BRANCH   9  25
ATOM     25  C   UNL     1       2.819  -3.720  -1.719  0.00  0.00    +0.068 C 
ATOM     32  C   UNL     1       3.455  -3.124  -2.968  0.00  0.00    +0.027 C 
ATOM     33  C   UNL     1       2.510  -5.200  -1.909  0.00  0.00    +0.027 C 
ENDBRANCH   9  25
ENDBRANCH  12   6
BRANCH  17  19
ATOM      8  N   UNL     1      -5.444  -0.466  -0.832  0.00  0.00    -0.346 N 
ATOM     19  C   UNL     1      -4.724  -0.389   0.332  0.00  0.00    +0.104 A 
ATOM     23  C   UNL     1      -5.293  -1.257   1.238  0.00  0.00    +0.032 A 
ATOM     27  C   UNL     1      -6.463  -1.370  -0.683  0.00  0.00    +0.086 A 
ATOM     28  C   UNL     1      -6.393  -1.878   0.596  0.00  0.00    +0.020 A 
ATOM     29  C   UNL     1      -5.182   0.283  -2.041  0.00  0.00    +0.149 C 
ENDBRANCH  17  19
BRANCH  13  16
ATOM      1  O   UNL     1      -0.728   0.610  -1.159  0.00  0.00    -0.274 OA
ATOM      7  N   UNL     1       0.113   2.335   0.159  0.00  0.00    -0.302 N 
ATOM     16  C   UNL     1      -0.587   1.162  -0.071  0.00  0.00    +0.234 C 
ATOM     39  H   UNL     1       0.142   2.718   1.100  0.00  0.00    +0.150 HD
BRANCH   7  18
ATOM     18  C   UNL     1       0.783   3.074  -0.886  0.00  0.00    +0.163 C 
BRANCH  18  24
ATOM      4  O   UNL     1      -0.347   5.039  -0.011  0.00  0.00    -0.274 OA
ATOM     11  N   UNL     1       0.091   4.936  -2.264  0.00  0.00    -0.328 N 
ATOM     24  C   UNL     1       0.103   4.432  -0.980  0.00  0.00    +0.231 C 
ATOM     42  H   UNL     1      -0.320   5.842  -2.463  0.00  0.00    +0.145 HD
ATOM     43  H   UNL     1       0.488   4.433  -3.051  0.00  0.00    +0.145 HD
ENDBRANCH  18  24
BRANCH  18  21
ATOM     21  C   UNL     1       2.282   3.243  -0.609  0.00  0.00    +0.069 C 
BRANCH  21  22
ATOM     10  N   UNL     1       4.151   0.099  -0.977  0.00  0.00    -0.360 N 
ATOM     22  C   UNL     1       3.007   1.934  -0.476  0.00  0.00    -0.020 A 
ATOM     26  C   UNL     1       3.209   1.194   0.723  0.00  0.00    +0.003 A 
ATOM     30  C   UNL     1       3.598   1.235  -1.504  0.00  0.00    +0.087 A 
ATOM     31  C   UNL     1       3.929   0.048   0.381  0.00  0.00    +0.047 A 
ATOM     34  C   UNL     1       2.846   1.391   2.070  0.00  0.00    +0.010 A 
ATOM     35  C   UNL     1       4.306  -0.916   1.323  0.00  0.00    +0.026 A 
ATOM     36  C   UNL     1       3.217   0.435   3.023  0.00  0.00    +0.001 A 
ATOM     37  C   UNL     1       3.936  -0.700   2.653  0.00  0.00    +0.002 A 
ATOM     41  H   UNL     1       4.665  -0.593  -1.503  0.00  0.00    +0.165 HD
ENDBRANCH  21  22
ENDBRANCH  18  21
ENDBRANCH   7  18
ENDBRANCH  13  16
TORSDOF 8
