REMARK  Name = 45783445
REMARK  11 active torsions:
REMARK  status: ('A' for Active; 'I' for Inactive)
REMARK    1  A    between atoms: O_2  and  C_20
REMARK    2  A    between atoms: O_2  and  C_23
REMARK    3  A    between atoms: O_3  and  C_24
REMARK    4  A    between atoms: O_3  and  C_25
REMARK    5  A    between atoms: N_4  and  C_12
REMARK    6  A    between atoms: C_8  and  C_14
REMARK    7  A    between atoms: C_12  and  C_13
REMARK    8  A    between atoms: C_13  and  C_15
REMARK    9  A    between atoms: C_13  and  C_16
REMARK   10  A    between atoms: C_17  and  C_18
REMARK   11  A    between atoms: C_23  and  C_24
REMARK                            x       y       z     vdW  Elec       q    Type
REMARK                         _______ _______ _______ _____ _____    ______ ____
ROOT
ATOM      1  O   UNL     1      -2.426   2.095  -0.074  0.00  0.00    -0.336 OA
ATOM      5  N   UNL     1      -0.973   0.551   0.647  0.00  0.00    -0.189 NA
ATOM      6  N   UNL     1      -1.150   2.602  -0.349  0.00  0.00    -0.054 NA
ATOM     14  C   UNL     1      -2.231   0.885   0.512  0.00  0.00    +0.245 A 
ATOM     17  C   UNL     1      -0.347   1.635   0.104  0.00  0.00    +0.221 A 
ENDROOT
BRANCH  17  18
ATOM      7  N   UNL     1       1.573   2.850  -0.530  0.00  0.00    -0.252 NA
ATOM     18  C   UNL     1       1.083   1.722   0.031  0.00  0.00    +0.115 A 
ATOM     19  C   UNL     1       1.871   0.691   0.517  0.00  0.00    +0.077 A 
ATOM     20  C   UNL     1       3.252   0.827   0.421  0.00  0.00    +0.124 A 
ATOM     21  C   UNL     1       2.920   2.946  -0.606  0.00  0.00    +0.115 A 
ATOM     22  C   UNL     1       3.794   1.973  -0.150  0.00  0.00    +0.065 A 
BRANCH  20   2
ATOM      2  O   UNL     1       4.069  -0.157   0.884  0.00  0.00    -0.490 OA
BRANCH   2  23
ATOM     23  C   UNL     1       3.568  -1.493   0.840  0.00  0.00    +0.257 C 
BRANCH  23  24
ATOM     24  C   UNL     1       4.727  -2.450   0.638  0.00  0.00    +0.200 C 
BRANCH  24   3
ATOM      3  O   UNL     1       5.367  -2.150  -0.597  0.00  0.00    -0.380 OA
ATOM     25  C   UNL     1       6.478  -3.005  -0.828  0.00  0.00    +0.194 C 
ENDBRANCH  24   3
ENDBRANCH  23  24
ENDBRANCH   2  23
ENDBRANCH  20   2
ENDBRANCH  17  18
BRANCH  14   8
ATOM      4  N   UNL     1      -3.546  -1.216   0.287  0.00  0.00    -0.291 NA
ATOM      8  C   UNL     1      -3.476   0.120   0.912  0.00  0.00    +0.146 C 
ATOM      9  C   UNL     1      -3.546  -0.151   2.426  0.00  0.00    +0.030 C 
ATOM     10  C   UNL     1      -4.296  -2.066   1.213  0.00  0.00    +0.085 C 
ATOM     11  C   UNL     1      -3.716  -1.659   2.552  0.00  0.00    +0.017 C 
BRANCH   4  12
ATOM     12  C   UNL     1      -4.139  -1.198  -1.044  0.00  0.00    +0.088 C 
BRANCH  12  13
ATOM     13  C   UNL     1      -3.125  -0.808  -2.133  0.00  0.00    -0.003 C 
ATOM     15  C   UNL     1      -1.971  -1.814  -2.148  0.00  0.00    +0.008 C 
ATOM     16  C   UNL     1      -3.759  -0.732  -3.525  0.00  0.00    +0.008 C 
ENDBRANCH  12  13
ENDBRANCH   4  12
ENDBRANCH  14   8
TORSDOF 8
