REMARK  Name = 11879615
REMARK  9 active torsions:
REMARK  status: ('A' for Active; 'I' for Inactive)
REMARK    1  A    between atoms: S_1  and  N_9
REMARK    2  A    between atoms: S_1  and  C_23
REMARK    3  A    between atoms: O_4  and  C_22
REMARK    4  A    between atoms: O_4  and  C_26
REMARK    5  A    between atoms: N_9  and  C_18
REMARK    6  A    between atoms: N_10  and  C_19
REMARK    7  A    between atoms: N_14  and  C_31
REMARK    8  A    between atoms: N_15  and  C_30
REMARK    9  A    between atoms: C_39  and  C_40
REMARK                            x       y       z     vdW  Elec       q    Type
REMARK                         _______ _______ _______ _____ _____    ______ ____
ROOT
ATOM      2  O   UNL     1      -5.004  -0.850   0.444  0.00  0.00    -0.370 OA
ATOM      3  O   UNL     1      -2.574  -0.353  -1.510  0.00  0.00    -0.370 OA
ATOM     16  C   UNL     1      -2.698  -0.642  -0.109  0.00  0.00    +0.170 C 
ATOM     17  C   UNL     1      -3.919   0.094   0.408  0.00  0.00    +0.175 C 
ATOM     18  C   UNL     1      -3.025  -2.102   0.094  0.00  0.00    +0.133 C 
ATOM     19  C   UNL     1      -4.199   1.160  -0.635  0.00  0.00    +0.171 C 
ATOM     20  C   UNL     1      -4.536  -2.127  -0.011  0.00  0.00    +0.183 C 
ATOM     21  C   UNL     1      -3.606   0.560  -1.905  0.00  0.00    +0.190 C 
ENDROOT
BRANCH  19  10
ATOM     10  N   UNL     1      -3.659   2.470  -0.259  0.00  0.00    -0.187 N 
ATOM     11  N   UNL     1      -4.457   3.541  -0.143  0.00  0.00    -0.041 NA
ATOM     12  N   UNL     1      -2.346   4.099   0.309  0.00  0.00    -0.071 NA
ATOM     13  N   UNL     1      -3.648   4.535   0.204  0.00  0.00    -0.020 NA
ATOM     22  C   UNL     1      -2.377   2.819   0.019  0.00  0.00    +0.342 A 
BRANCH  22   4
ATOM      4  O   UNL     1      -1.348   1.992  -0.007  0.00  0.00    -0.423 OA
BRANCH   4  26
ATOM     26  C   UNL     1      -0.062   2.407  -0.322  0.00  0.00    +0.134 A 
ATOM     29  C   UNL     1       1.018   1.978   0.449  0.00  0.00    +0.069 A 
ATOM     31  C   UNL     1       2.311   2.396   0.133  0.00  0.00    +0.033 A 
ATOM     32  C   UNL     1       0.150   3.254  -1.409  0.00  0.00    +0.046 A 
ATOM     37  C   UNL     1       2.523   3.243  -0.955  0.00  0.00    +0.023 A 
ATOM     38  C   UNL     1       1.443   3.672  -1.726  0.00  0.00    +0.005 A 
BRANCH  31  14
ATOM      7  O   UNL     1       5.637   1.371   2.491  0.00  0.00    -0.377 OA
ATOM     14  N   UNL     1       3.394   1.966   0.905  0.00  0.00    -0.325 N 
ATOM     33  C   UNL     1       3.404   2.305   2.335  0.00  0.00    +0.133 C 
ATOM     34  C   UNL     1       4.718   1.815   0.290  0.00  0.00    +0.133 C 
ATOM     35  C   UNL     1       4.338   1.359   3.082  0.00  0.00    +0.178 C 
ATOM     36  C   UNL     1       5.582   0.896   1.147  0.00  0.00    +0.178 C 
ENDBRANCH  31  14
ENDBRANCH   4  26
ENDBRANCH  22   4
ENDBRANCH  19  10
BRANCH  18   9
ATOM      9  N   UNL     1      -2.614  -2.527   1.454  0.00  0.00    -0.182 NA
ATOM     41  H   UNL     1      -2.764  -1.867   2.226  0.00  0.00    +0.148 HD
BRANCH   9   1
ATOM      1  S   UNL     1      -1.578  -3.859   1.644  0.00  0.00    +0.059 S 
ATOM      5  O   UNL     1      -2.138  -5.008   0.958  0.00  0.00    -0.153 OA
ATOM      6  O   UNL     1      -1.196  -3.957   3.040  0.00  0.00    -0.153 OA
BRANCH   1  23
ATOM     23  C   UNL     1      -0.144  -3.337   0.753  0.00  0.00    +0.105 A 
ATOM     24  C   UNL     1       0.870  -2.639   1.410  0.00  0.00    +0.030 A 
ATOM     25  C   UNL     1      -0.025  -3.623  -0.607  0.00  0.00    +0.030 A 
ATOM     27  C   UNL     1       2.002  -2.227   0.707  0.00  0.00    +0.025 A 
ATOM     28  C   UNL     1       1.107  -3.211  -1.311  0.00  0.00    +0.025 A 
ATOM     30  C   UNL     1       2.120  -2.514  -0.654  0.00  0.00    +0.033 A 
BRANCH  30  15
ATOM      8  O   UNL     1       2.857  -2.866  -3.552  0.00  0.00    -0.276 OA
ATOM     15  N   UNL     1       3.253  -2.102  -1.357  0.00  0.00    -0.286 N 
ATOM     39  C   UNL     1       3.547  -2.295  -2.713  0.00  0.00    +0.214 C 
ATOM     40  C   UNL     1       4.879  -1.695  -3.088  0.00  0.00    +0.109 C 
ATOM     42  H   UNL     1       3.946  -1.598  -0.807  0.00  0.00    +0.155 HD
ENDBRANCH  30  15
ENDBRANCH   1  23
ENDBRANCH   9   1
ENDBRANCH  18   9
TORSDOF 8
