MODEL 1
REMARK VINA RESULT:      -7.2      0.000      0.000
REMARK  Name = 45361080
REMARK  6 active torsions:
REMARK  status: ('A' for Active; 'I' for Inactive)
REMARK    1  A    between atoms: N_4  and  C_17
REMARK    2  A    between atoms: N_5  and  C_16
REMARK    3  A    between atoms: C_12  and  C_15
REMARK    4  A    between atoms: C_15  and  C_18
REMARK    5  A    between atoms: C_16  and  C_19
REMARK    6  A    between atoms: C_18  and  C_20
REMARK                            x       y       z     vdW  Elec       q    Type
REMARK                         _______ _______ _______ _____ _____    ______ ____
ROOT
ATOM      1  O   UNL     1      20.230   6.224  23.902  0.00  0.00    -0.274 OA
ATOM      4  N   UNL     1      18.026   6.861  20.782  0.00  0.00    -0.296 NA
ATOM      5  N   UNL     1      21.208   5.240  21.584  0.00  0.00    -0.286 NA
ATOM      6  N   UNL     1      19.401   8.143  22.971  0.00  0.00    -0.312 N 
ATOM      8  C   UNL     1      19.381   6.364  20.450  0.00  0.00    +0.084 C 
ATOM      9  C   UNL     1      20.513   6.538  21.504  0.00  0.00    +0.161 C 
ATOM     10  C   UNL     1      19.439   4.853  20.163  0.00  0.00    +0.036 C 
ATOM     11  C   UNL     1      20.902   4.513  20.357  0.00  0.00    +0.087 C 
ATOM     12  C   UNL     1      17.941   8.335  20.980  0.00  0.00    +0.074 C 
ATOM     13  C   UNL     1      20.039   6.919  22.905  0.00  0.00    +0.232 C 
ATOM     14  C   UNL     1      19.089   8.947  21.805  0.00  0.00    +0.123 C 
ATOM     17  C   UNL     1      17.047   6.423  19.775  0.00  0.00    +0.105 C 
ATOM     30  H   UNL     1      19.132   8.491  23.886  0.00  0.00    +0.149 HD
ENDROOT
BRANCH  12  15
ATOM     15  C   UNL     1      16.617   8.711  21.676  0.00  0.00    +0.029 C 
BRANCH  15  18
ATOM     18  C   UNL     1      15.659   9.413  20.732  0.00  0.00    +0.097 C 
BRANCH  18  20
ATOM      2  O   UNL     1      13.919   9.885  22.270  0.00  0.00    -0.276 OA
ATOM      3  O   UNL     1      11.402   7.751  18.586  0.00  0.00    -0.377 OA
ATOM      7  N   UNL     1      13.359   8.570  20.441  0.00  0.00    -0.297 N 
ATOM     20  C   UNL     1      14.238   9.314  21.225  0.00  0.00    +0.216 C 
ATOM     23  C   UNL     1      11.960   8.428  20.843  0.00  0.00    +0.136 C 
ATOM     24  C   UNL     1      13.732   7.775  19.265  0.00  0.00    +0.136 C 
ATOM     27  C   UNL     1      11.041   8.638  19.649  0.00  0.00    +0.179 C 
ATOM     28  C   UNL     1      12.735   8.007  18.135  0.00  0.00    +0.179 C 
ENDBRANCH  18  20
ENDBRANCH  15  18
ENDBRANCH  12  15
BRANCH   5  16
ATOM     16  C   UNL     1      22.643   5.365  21.804  0.00  0.00    +0.120 C 
BRANCH  16  19
ATOM     19  C   UNL     1      23.357   4.054  21.607  0.00  0.00    -0.033 A 
ATOM     21  C   UNL     1      24.181   3.869  20.497  0.00  0.00    +0.005 A 
ATOM     22  C   UNL     1      23.193   3.024  22.533  0.00  0.00    +0.005 A 
ATOM     25  C   UNL     1      24.842   2.655  20.314  0.00  0.00    +0.000 A 
ATOM     26  C   UNL     1      23.854   1.809  22.350  0.00  0.00    +0.000 A 
ATOM     29  C   UNL     1      24.679   1.625  21.240  0.00  0.00    +0.000 A 
ENDBRANCH  16  19
ENDBRANCH   5  16
TORSDOF 5
ENDMDL
MODEL 2
REMARK VINA RESULT:      -7.2     30.335     34.431
REMARK  Name = 45361080
REMARK  6 active torsions:
REMARK  status: ('A' for Active; 'I' for Inactive)
REMARK    1  A    between atoms: N_4  and  C_17
REMARK    2  A    between atoms: N_5  and  C_16
REMARK    3  A    between atoms: C_12  and  C_15
REMARK    4  A    between atoms: C_15  and  C_18
REMARK    5  A    between atoms: C_16  and  C_19
REMARK    6  A    between atoms: C_18  and  C_20
REMARK                            x       y       z     vdW  Elec       q    Type
REMARK                         _______ _______ _______ _____ _____    ______ ____
ROOT
ATOM      1  O   UNL     1     -13.113   4.916  22.665  0.00  0.00    -0.274 OA
ATOM      4  N   UNL     1     -16.891   4.267  22.115  0.00  0.00    -0.296 NA
ATOM      5  N   UNL     1     -14.476   6.954  21.532  0.00  0.00    -0.286 NA
ATOM      6  N   UNL     1     -14.796   4.321  24.098  0.00  0.00    -0.312 N 
ATOM      8  C   UNL     1     -16.506   5.683  21.921  0.00  0.00    +0.084 C 
ATOM      9  C   UNL     1     -15.187   6.189  22.574  0.00  0.00    +0.161 C 
ATOM     10  C   UNL     1     -16.309   6.081  20.447  0.00  0.00    +0.036 C 
ATOM     11  C   UNL     1     -15.465   7.336  20.531  0.00  0.00    +0.087 C 
ATOM     12  C   UNL     1     -17.168   3.891  23.530  0.00  0.00    +0.074 C 
ATOM     13  C   UNL     1     -14.257   5.091  23.084  0.00  0.00    +0.232 C 
ATOM     14  C   UNL     1     -16.165   4.449  24.558  0.00  0.00    +0.123 C 
ATOM     17  C   UNL     1     -18.035   3.914  21.259  0.00  0.00    +0.105 C 
ATOM     30  H   UNL     1     -14.200   3.625  24.536  0.00  0.00    +0.149 HD
ENDROOT
BRANCH  12  15
ATOM     15  C   UNL     1     -17.188   2.356  23.686  0.00  0.00    +0.029 C 
BRANCH  15  18
ATOM     18  C   UNL     1     -17.977   1.921  24.906  0.00  0.00    +0.097 C 
BRANCH  18  20
ATOM      2  O   UNL     1     -16.441   0.231  25.538  0.00  0.00    -0.276 OA
ATOM      3  O   UNL     1     -16.412   3.116  29.555  0.00  0.00    -0.377 OA
ATOM      7  N   UNL     1     -17.077   1.727  27.195  0.00  0.00    -0.297 N 
ATOM     20  C   UNL     1     -17.095   1.210  25.901  0.00  0.00    +0.216 C 
ATOM     23  C   UNL     1     -16.244   1.101  28.221  0.00  0.00    +0.136 C 
ATOM     24  C   UNL     1     -17.936   2.808  27.692  0.00  0.00    +0.136 C 
ATOM     27  C   UNL     1     -15.494   2.161  29.015  0.00  0.00    +0.179 C 
ATOM     28  C   UNL     1     -17.117   3.797  28.513  0.00  0.00    +0.179 C 
ENDBRANCH  18  20
ENDBRANCH  15  18
ENDBRANCH  12  15
BRANCH   5  16
ATOM     16  C   UNL     1     -13.752   8.106  22.055  0.00  0.00    +0.120 C 
BRANCH  16  19
ATOM     19  C   UNL     1     -12.618   8.512  21.152  0.00  0.00    -0.033 A 
ATOM     21  C   UNL     1     -12.353   9.863  20.930  0.00  0.00    +0.005 A 
ATOM     22  C   UNL     1     -11.833   7.537  20.537  0.00  0.00    +0.005 A 
ATOM     25  C   UNL     1     -11.302  10.240  20.093  0.00  0.00    +0.000 A 
ATOM     26  C   UNL     1     -10.782   7.914  19.700  0.00  0.00    +0.000 A 
ATOM     29  C   UNL     1     -10.517   9.265  19.478  0.00  0.00    +0.000 A 
ENDBRANCH  16  19
ENDBRANCH   5  16
TORSDOF 5
ENDMDL
MODEL 3
REMARK VINA RESULT:      -7.0     27.656     31.369
REMARK  Name = 45361080
REMARK  6 active torsions:
REMARK  status: ('A' for Active; 'I' for Inactive)
REMARK    1  A    between atoms: N_4  and  C_17
REMARK    2  A    between atoms: N_5  and  C_16
REMARK    3  A    between atoms: C_12  and  C_15
REMARK    4  A    between atoms: C_15  and  C_18
REMARK    5  A    between atoms: C_16  and  C_19
REMARK    6  A    between atoms: C_18  and  C_20
REMARK                            x       y       z     vdW  Elec       q    Type
REMARK                         _______ _______ _______ _____ _____    ______ ____
ROOT
ATOM      1  O   UNL     1      -5.600  -9.266  16.166  0.00  0.00    -0.274 OA
ATOM      4  N   UNL     1      -8.495 -10.645  18.336  0.00  0.00    -0.296 NA
ATOM      5  N   UNL     1      -5.313 -11.828  16.970  0.00  0.00    -0.286 NA
ATOM      6  N   UNL     1      -7.854  -9.420  15.803  0.00  0.00    -0.312 N 
ATOM      8  C   UNL     1      -7.563 -11.696  17.867  0.00  0.00    +0.084 C 
ATOM      9  C   UNL     1      -6.680 -11.400  16.620  0.00  0.00    +0.161 C 
ATOM     10  C   UNL     1      -6.514 -12.113  18.913  0.00  0.00    +0.036 C 
ATOM     11  C   UNL     1      -5.428 -12.764  18.082  0.00  0.00    +0.087 C 
ATOM     12  C   UNL     1      -9.567 -10.294  17.364  0.00  0.00    +0.074 C 
ATOM     13  C   UNL     1      -6.632  -9.934  16.195  0.00  0.00    +0.232 C 
ATOM     14  C   UNL     1      -9.100 -10.156  15.903  0.00  0.00    +0.123 C 
ATOM     17  C   UNL     1      -9.082 -11.009  19.636  0.00  0.00    +0.105 C 
ATOM     30  H   UNL     1      -7.877  -8.475  15.434  0.00  0.00    +0.149 HD
ENDROOT
BRANCH  12  15
ATOM     15  C   UNL     1     -10.242  -8.965  17.763  0.00  0.00    +0.029 C 
BRANCH  15  18
ATOM     18  C   UNL     1     -11.421  -8.636  16.868  0.00  0.00    +0.097 C 
BRANCH  18  20
ATOM      2  O   UNL     1     -10.014  -6.984  15.913  0.00  0.00    -0.276 OA
ATOM      3  O   UNL     1     -14.387  -5.793  13.932  0.00  0.00    -0.377 OA
ATOM      7  N   UNL     1     -12.297  -6.724  15.577  0.00  0.00    -0.297 N 
ATOM     20  C   UNL     1     -11.172  -7.375  16.080  0.00  0.00    +0.216 C 
ATOM     23  C   UNL     1     -12.145  -5.496  14.797  0.00  0.00    +0.136 C 
ATOM     24  C   UNL     1     -13.689  -7.088  15.863  0.00  0.00    +0.136 C 
ATOM     27  C   UNL     1     -13.030  -5.541  13.560  0.00  0.00    +0.179 C 
ATOM     28  C   UNL     1     -14.514  -7.062  14.581  0.00  0.00    +0.179 C 
ENDBRANCH  18  20
ENDBRANCH  15  18
ENDBRANCH  12  15
BRANCH   5  16
ATOM     16  C   UNL     1      -4.580 -12.399  15.846  0.00  0.00    +0.120 C 
BRANCH  16  19
ATOM     19  C   UNL     1      -3.416 -11.537  15.439  0.00  0.00    -0.033 A 
ATOM     21  C   UNL     1      -2.507 -11.094  16.400  0.00  0.00    +0.005 A 
ATOM     22  C   UNL     1      -3.246 -11.179  14.102  0.00  0.00    +0.005 A 
ATOM     25  C   UNL     1      -1.428 -10.294  16.024  0.00  0.00    +0.000 A 
ATOM     26  C   UNL     1      -2.167 -10.380  13.725  0.00  0.00    +0.000 A 
ATOM     29  C   UNL     1      -1.258  -9.937  14.686  0.00  0.00    +0.000 A 
ENDBRANCH  16  19
ENDBRANCH   5  16
TORSDOF 5
ENDMDL
MODEL 4
REMARK VINA RESULT:      -6.6     27.809     30.901
REMARK  Name = 45361080
REMARK  6 active torsions:
REMARK  status: ('A' for Active; 'I' for Inactive)
REMARK    1  A    between atoms: N_4  and  C_17
REMARK    2  A    between atoms: N_5  and  C_16
REMARK    3  A    between atoms: C_12  and  C_15
REMARK    4  A    between atoms: C_15  and  C_18
REMARK    5  A    between atoms: C_16  and  C_19
REMARK    6  A    between atoms: C_18  and  C_20
REMARK                            x       y       z     vdW  Elec       q    Type
REMARK                         _______ _______ _______ _____ _____    ______ ____
ROOT
ATOM      1  O   UNL     1      -5.868  -9.647  13.409  0.00  0.00    -0.274 OA
ATOM      4  N   UNL     1      -3.109 -10.860  15.839  0.00  0.00    -0.296 NA
ATOM      5  N   UNL     1      -3.636 -10.607  12.227  0.00  0.00    -0.286 NA
ATOM      6  N   UNL     1      -5.878 -11.188  15.100  0.00  0.00    -0.312 N 
ATOM      8  C   UNL     1      -2.866 -11.257  14.434  0.00  0.00    +0.084 C 
ATOM      9  C   UNL     1      -4.076 -11.295  13.455  0.00  0.00    +0.161 C 
ATOM     10  C   UNL     1      -1.877 -10.343  13.688  0.00  0.00    +0.036 C 
ATOM     11  C   UNL     1      -2.178 -10.615  12.229  0.00  0.00    +0.087 C 
ATOM     12  C   UNL     1      -3.997 -11.785  16.597  0.00  0.00    +0.074 C 
ATOM     13  C   UNL     1      -5.341 -10.609  13.966  0.00  0.00    +0.232 C 
ATOM     14  C   UNL     1      -5.239 -12.269  15.825  0.00  0.00    +0.123 C 
ATOM     17  C   UNL     1      -1.837 -10.672  16.556  0.00  0.00    +0.105 C 
ATOM     30  H   UNL     1      -6.763 -10.829  15.445  0.00  0.00    +0.149 HD
ENDROOT
BRANCH  12  15
ATOM     15  C   UNL     1      -4.490 -11.115  17.897  0.00  0.00    +0.029 C 
BRANCH  15  18
ATOM     18  C   UNL     1      -5.206 -12.096  18.804  0.00  0.00    +0.097 C 
BRANCH  18  20
ATOM      2  O   UNL     1      -6.126 -10.668  20.456  0.00  0.00    -0.276 OA
ATOM      3  O   UNL     1     -10.130 -11.721  17.750  0.00  0.00    -0.377 OA
ATOM      7  N   UNL     1      -7.635 -11.747  19.061  0.00  0.00    -0.297 N 
ATOM     20  C   UNL     1      -6.357 -11.437  19.521  0.00  0.00    +0.216 C 
ATOM     23  C   UNL     1      -8.807 -11.146  19.696  0.00  0.00    +0.136 C 
ATOM     24  C   UNL     1      -7.951 -12.750  18.038  0.00  0.00    +0.136 C 
ATOM     27  C   UNL     1      -9.789 -10.656  18.642  0.00  0.00    +0.179 C 
ATOM     28  C   UNL     1      -8.974 -12.196  17.054  0.00  0.00    +0.179 C 
ENDBRANCH  18  20
ENDBRANCH  15  18
ENDBRANCH  12  15
BRANCH   5  16
ATOM     16  C   UNL     1      -4.187 -11.190  11.009  0.00  0.00    +0.120 C 
BRANCH  16  19
ATOM     19  C   UNL     1      -5.069 -10.219  10.272  0.00  0.00    -0.033 A 
ATOM     21  C   UNL     1      -6.193 -10.680   9.586  0.00  0.00    +0.005 A 
ATOM     22  C   UNL     1      -4.763  -8.858  10.273  0.00  0.00    +0.005 A 
ATOM     25  C   UNL     1      -7.011  -9.781   8.902  0.00  0.00    +0.000 A 
ATOM     26  C   UNL     1      -5.581  -7.958   9.589  0.00  0.00    +0.000 A 
ATOM     29  C   UNL     1      -6.705  -8.420   8.903  0.00  0.00    +0.000 A 
ENDBRANCH  16  19
ENDBRANCH   5  16
TORSDOF 5
ENDMDL
MODEL 5
REMARK VINA RESULT:      -6.6     15.138     17.717
REMARK  Name = 45361080
REMARK  6 active torsions:
REMARK  status: ('A' for Active; 'I' for Inactive)
REMARK    1  A    between atoms: N_4  and  C_17
REMARK    2  A    between atoms: N_5  and  C_16
REMARK    3  A    between atoms: C_12  and  C_15
REMARK    4  A    between atoms: C_15  and  C_18
REMARK    5  A    between atoms: C_16  and  C_19
REMARK    6  A    between atoms: C_18  and  C_20
REMARK                            x       y       z     vdW  Elec       q    Type
REMARK                         _______ _______ _______ _____ _____    ______ ____
ROOT
ATOM      1  O   UNL     1      13.062   6.360   7.695  0.00  0.00    -0.274 OA
ATOM      4  N   UNL     1      14.693   9.690   6.578  0.00  0.00    -0.296 NA
ATOM      5  N   UNL     1      11.331   8.288   6.931  0.00  0.00    -0.286 NA
ATOM      6  N   UNL     1      14.623   6.846   6.094  0.00  0.00    -0.312 N 
ATOM      8  C   UNL     1      13.251   9.606   6.251  0.00  0.00    +0.084 C 
ATOM      9  C   UNL     1      12.590   8.199   6.170  0.00  0.00    +0.161 C 
ATOM     10  C   UNL     1      12.339  10.332   7.256  0.00  0.00    +0.036 C 
ATOM     11  C   UNL     1      10.982   9.701   7.020  0.00  0.00    +0.087 C 
ATOM     12  C   UNL     1      15.591   9.065   5.569  0.00  0.00    +0.074 C 
ATOM     13  C   UNL     1      13.425   7.059   6.750  0.00  0.00    +0.232 C 
ATOM     14  C   UNL     1      15.115   7.701   5.031  0.00  0.00    +0.123 C 
ATOM     17  C   UNL     1      15.093  11.085   6.824  0.00  0.00    +0.105 C 
ATOM     30  H   UNL     1      15.188   6.053   6.380  0.00  0.00    +0.149 HD
ENDROOT
BRANCH  12  15
ATOM     15  C   UNL     1      17.005   8.865   6.155  0.00  0.00    +0.029 C 
BRANCH  15  18
ATOM     18  C   UNL     1      18.081   8.989   5.094  0.00  0.00    +0.097 C 
BRANCH  18  20
ATOM      2  O   UNL     1      19.549   8.231   6.793  0.00  0.00    -0.276 OA
ATOM      3  O   UNL     1      22.108   7.078   2.721  0.00  0.00    -0.377 OA
ATOM      7  N   UNL     1      20.383   8.233   4.627  0.00  0.00    -0.297 N 
ATOM     20  C   UNL     1      19.400   8.452   5.590  0.00  0.00    +0.216 C 
ATOM     23  C   UNL     1      21.690   7.709   5.021  0.00  0.00    +0.136 C 
ATOM     24  C   UNL     1      20.284   8.603   3.210  0.00  0.00    +0.136 C 
ATOM     27  C   UNL     1      22.128   6.604   4.070  0.00  0.00    +0.179 C 
ATOM     28  C   UNL     1      20.786   7.463   2.332  0.00  0.00    +0.179 C 
ENDBRANCH  18  20
ENDBRANCH  15  18
ENDBRANCH  12  15
BRANCH   5  16
ATOM     16  C   UNL     1      10.252   7.492   6.359  0.00  0.00    +0.120 C 
BRANCH  16  19
ATOM     19  C   UNL     1       9.957   6.270   7.187  0.00  0.00    -0.033 A 
ATOM     21  C   UNL     1      10.014   5.004   6.604  0.00  0.00    +0.005 A 
ATOM     22  C   UNL     1       9.627   6.403   8.535  0.00  0.00    +0.005 A 
ATOM     25  C   UNL     1       9.740   3.870   7.370  0.00  0.00    +0.000 A 
ATOM     26  C   UNL     1       9.353   5.270   9.301  0.00  0.00    +0.000 A 
ATOM     29  C   UNL     1       9.410   4.003   8.719  0.00  0.00    +0.000 A 
ENDBRANCH  16  19
ENDBRANCH   5  16
TORSDOF 5
ENDMDL
MODEL 6
REMARK VINA RESULT:      -6.5     28.412     31.566
REMARK  Name = 45361080
REMARK  6 active torsions:
REMARK  status: ('A' for Active; 'I' for Inactive)
REMARK    1  A    between atoms: N_4  and  C_17
REMARK    2  A    between atoms: N_5  and  C_16
REMARK    3  A    between atoms: C_12  and  C_15
REMARK    4  A    between atoms: C_15  and  C_18
REMARK    5  A    between atoms: C_16  and  C_19
REMARK    6  A    between atoms: C_18  and  C_20
REMARK                            x       y       z     vdW  Elec       q    Type
REMARK                         _______ _______ _______ _____ _____    ______ ____
ROOT
ATOM      1  O   UNL     1      -6.934  -8.897  11.838  0.00  0.00    -0.274 OA
ATOM      4  N   UNL     1      -3.467 -10.369  12.734  0.00  0.00    -0.296 NA
ATOM      5  N   UNL     1      -5.486  -9.785   9.738  0.00  0.00    -0.286 NA
ATOM      6  N   UNL     1      -6.298 -10.582  13.249  0.00  0.00    -0.312 N 
ATOM      8  C   UNL     1      -3.876 -10.643  11.337  0.00  0.00    +0.084 C 
ATOM      9  C   UNL     1      -5.390 -10.572  10.981  0.00  0.00    +0.161 C 
ATOM     10  C   UNL     1      -3.258  -9.684  10.305  0.00  0.00    +0.036 C 
ATOM     11  C   UNL     1      -4.173  -9.819   9.106  0.00  0.00    +0.087 C 
ATOM     12  C   UNL     1      -3.991 -11.342  13.732  0.00  0.00    +0.074 C 
ATOM     13  C   UNL     1      -6.272  -9.914  12.039  0.00  0.00    +0.232 C 
ATOM     14  C   UNL     1      -5.468 -11.735  13.543  0.00  0.00    +0.123 C 
ATOM     17  C   UNL     1      -2.002 -10.267  12.839  0.00  0.00    +0.105 C 
ATOM     30  H   UNL     1      -6.927 -10.241  13.969  0.00  0.00    +0.149 HD
ENDROOT
BRANCH  12  15
ATOM     15  C   UNL     1      -3.838 -10.783  15.162  0.00  0.00    +0.029 C 
BRANCH  15  18
ATOM     18  C   UNL     1      -4.759 -11.479  16.145  0.00  0.00    +0.097 C 
BRANCH  18  20
ATOM      2  O   UNL     1      -5.923  -9.416  16.237  0.00  0.00    -0.276 OA
ATOM      3  O   UNL     1      -8.104 -11.922  19.901  0.00  0.00    -0.377 OA
ATOM      7  N   UNL     1      -6.319 -10.910  17.970  0.00  0.00    -0.297 N 
ATOM     20  C   UNL     1      -5.716 -10.503  16.781  0.00  0.00    +0.216 C 
ATOM     23  C   UNL     1      -7.264 -10.025  18.651  0.00  0.00    +0.136 C 
ATOM     24  C   UNL     1      -6.001 -12.136  18.709  0.00  0.00    +0.136 C 
ATOM     27  C   UNL     1      -8.493 -10.805  19.096  0.00  0.00    +0.179 C 
ATOM     28  C   UNL     1      -7.283 -12.828  19.158  0.00  0.00    +0.179 C 
ENDBRANCH  18  20
ENDBRANCH  15  18
ENDBRANCH  12  15
BRANCH   5  16
ATOM     16  C   UNL     1      -6.539 -10.248   8.841  0.00  0.00    +0.120 C 
BRANCH  16  19
ATOM     19  C   UNL     1      -7.147  -9.114   8.060  0.00  0.00    -0.033 A 
ATOM     21  C   UNL     1      -7.343  -9.242   6.684  0.00  0.00    +0.005 A 
ATOM     22  C   UNL     1      -7.515  -7.937   8.710  0.00  0.00    +0.005 A 
ATOM     25  C   UNL     1      -7.907  -8.192   5.960  0.00  0.00    +0.000 A 
ATOM     26  C   UNL     1      -8.079  -6.887   7.985  0.00  0.00    +0.000 A 
ATOM     29  C   UNL     1      -8.274  -7.014   6.610  0.00  0.00    +0.000 A 
ENDBRANCH  16  19
ENDBRANCH   5  16
TORSDOF 5
ENDMDL
MODEL 7
REMARK VINA RESULT:      -6.5     16.503     19.876
REMARK  Name = 45361080
REMARK  6 active torsions:
REMARK  status: ('A' for Active; 'I' for Inactive)
REMARK    1  A    between atoms: N_4  and  C_17
REMARK    2  A    between atoms: N_5  and  C_16
REMARK    3  A    between atoms: C_12  and  C_15
REMARK    4  A    between atoms: C_15  and  C_18
REMARK    5  A    between atoms: C_16  and  C_19
REMARK    6  A    between atoms: C_18  and  C_20
REMARK                            x       y       z     vdW  Elec       q    Type
REMARK                         _______ _______ _______ _____ _____    ______ ____
ROOT
ATOM      1  O   UNL     1       9.894   9.910   4.936  0.00  0.00    -0.274 OA
ATOM      4  N   UNL     1       9.896   6.050   5.249  0.00  0.00    -0.296 NA
ATOM      5  N   UNL     1       9.757   8.962   7.462  0.00  0.00    -0.286 NA
ATOM      6  N   UNL     1      11.353   8.309   4.199  0.00  0.00    -0.312 N 
ATOM      8  C   UNL     1      10.097   6.742   6.542  0.00  0.00    +0.084 C 
ATOM      9  C   UNL     1      10.613   8.211   6.525  0.00  0.00    +0.161 C 
ATOM     10  C   UNL     1       8.820   6.860   7.393  0.00  0.00    +0.036 C 
ATOM     11  C   UNL     1       9.139   7.987   8.353  0.00  0.00    +0.087 C 
ATOM     12  C   UNL     1      11.140   5.854   4.454  0.00  0.00    +0.074 C 
ATOM     13  C   UNL     1      10.557   8.899   5.163  0.00  0.00    +0.232 C 
ATOM     14  C   UNL     1      12.082   7.073   4.411  0.00  0.00    +0.123 C 
ATOM     17  C   UNL     1       9.207   4.764   5.446  0.00  0.00    +0.105 C 
ATOM     30  H   UNL     1      11.422   8.764   3.294  0.00  0.00    +0.149 HD
ENDROOT
BRANCH  12  15
ATOM     15  C   UNL     1      10.797   5.480   2.997  0.00  0.00    +0.029 C 
BRANCH  15  18
ATOM     18  C   UNL     1      11.264   4.081   2.646  0.00  0.00    +0.097 C 
BRANCH  18  20
ATOM      2  O   UNL     1      10.431   4.027   0.427  0.00  0.00    -0.276 OA
ATOM      3  O   UNL     1      15.310   3.856  -0.366  0.00  0.00    -0.377 OA
ATOM      7  N   UNL     1      12.706   3.648   0.692  0.00  0.00    -0.297 N 
ATOM     20  C   UNL     1      11.420   3.916   1.156  0.00  0.00    +0.216 C 
ATOM     23  C   UNL     1      12.947   3.479  -0.741  0.00  0.00    +0.136 C 
ATOM     24  C   UNL     1      13.877   3.384   1.535  0.00  0.00    +0.136 C 
ATOM     27  C   UNL     1      14.190   4.249  -1.164  0.00  0.00    +0.179 C 
ATOM     28  C   UNL     1      15.085   4.154   1.015  0.00  0.00    +0.179 C 
ENDBRANCH  18  20
ENDBRANCH  15  18
ENDBRANCH  12  15
BRANCH   5  16
ATOM     16  C   UNL     1      10.473   9.998   8.195  0.00  0.00    +0.120 C 
BRANCH  16  19
ATOM     19  C   UNL     1       9.562  11.123   8.609  0.00  0.00    -0.033 A 
ATOM     21  C   UNL     1       9.148  12.067   7.668  0.00  0.00    +0.005 A 
ATOM     22  C   UNL     1       9.133  11.222   9.932  0.00  0.00    +0.005 A 
ATOM     25  C   UNL     1       8.304  13.110   8.052  0.00  0.00    +0.000 A 
ATOM     26  C   UNL     1       8.289  12.265  10.315  0.00  0.00    +0.000 A 
ATOM     29  C   UNL     1       7.875  13.209   9.375  0.00  0.00    +0.000 A 
ENDBRANCH  16  19
ENDBRANCH   5  16
TORSDOF 5
ENDMDL
MODEL 8
REMARK VINA RESULT:      -6.4     29.340     32.431
REMARK  Name = 45361080
REMARK  6 active torsions:
REMARK  status: ('A' for Active; 'I' for Inactive)
REMARK    1  A    between atoms: N_4  and  C_17
REMARK    2  A    between atoms: N_5  and  C_16
REMARK    3  A    between atoms: C_12  and  C_15
REMARK    4  A    between atoms: C_15  and  C_18
REMARK    5  A    between atoms: C_16  and  C_19
REMARK    6  A    between atoms: C_18  and  C_20
REMARK                            x       y       z     vdW  Elec       q    Type
REMARK                         _______ _______ _______ _____ _____    ______ ____
ROOT
ATOM      1  O   UNL     1      -8.925  -9.244  14.823  0.00  0.00    -0.274 OA
ATOM      4  N   UNL     1      -7.243 -11.723  17.276  0.00  0.00    -0.296 NA
ATOM      5  N   UNL     1      -9.785  -9.092  17.379  0.00  0.00    -0.286 NA
ATOM      6  N   UNL     1      -6.735  -9.618  15.370  0.00  0.00    -0.312 N 
ATOM      8  C   UNL     1      -8.042 -10.678  17.956  0.00  0.00    +0.084 C 
ATOM      9  C   UNL     1      -8.348  -9.361  17.186  0.00  0.00    +0.161 C 
ATOM     10  C   UNL     1      -9.449 -11.140  18.376  0.00  0.00    +0.036 C 
ATOM     11  C   UNL     1     -10.206  -9.841  18.558  0.00  0.00    +0.087 C 
ATOM     12  C   UNL     1      -5.851 -11.315  16.942  0.00  0.00    +0.074 C 
ATOM     13  C   UNL     1      -8.064  -9.409  15.686  0.00  0.00    +0.232 C 
ATOM     14  C   UNL     1      -5.712  -9.896  16.359  0.00  0.00    +0.123 C 
ATOM     17  C   UNL     1      -7.237 -12.969  18.061  0.00  0.00    +0.105 C 
ATOM     30  H   UNL     1      -6.467  -9.582  14.391  0.00  0.00    +0.149 HD
ENDROOT
BRANCH  12  15
ATOM     15  C   UNL     1      -5.230 -12.298  15.926  0.00  0.00    +0.029 C 
BRANCH  15  18
ATOM     18  C   UNL     1      -3.759 -12.016  15.690  0.00  0.00    +0.097 C 
BRANCH  18  20
ATOM      2  O   UNL     1      -2.990 -13.934  14.530  0.00  0.00    -0.276 OA
ATOM      3  O   UNL     1      -3.556 -10.718  10.815  0.00  0.00    -0.377 OA
ATOM      7  N   UNL     1      -3.130 -11.967  13.305  0.00  0.00    -0.297 N 
ATOM     20  C   UNL     1      -3.257 -12.732  14.463  0.00  0.00    +0.216 C 
ATOM     23  C   UNL     1      -2.654 -12.584  12.068  0.00  0.00    +0.136 C 
ATOM     24  C   UNL     1      -3.315 -10.514  13.221  0.00  0.00    +0.136 C 
ATOM     27  C   UNL     1      -3.514 -12.146  10.891  0.00  0.00    +0.179 C 
ATOM     28  C   UNL     1      -4.144 -10.158  11.993  0.00  0.00    +0.179 C 
ENDBRANCH  18  20
ENDBRANCH  15  18
ENDBRANCH  12  15
BRANCH   5  16
ATOM     16  C   UNL     1     -10.098  -7.672  17.491  0.00  0.00    +0.120 C 
BRANCH  16  19
ATOM     19  C   UNL     1     -11.174  -7.258  16.524  0.00  0.00    -0.033 A 
ATOM     21  C   UNL     1     -12.338  -8.019  16.408  0.00  0.00    +0.005 A 
ATOM     22  C   UNL     1     -11.008  -6.114  15.744  0.00  0.00    +0.005 A 
ATOM     25  C   UNL     1     -13.335  -7.635  15.512  0.00  0.00    +0.000 A 
ATOM     26  C   UNL     1     -12.006  -5.730  14.848  0.00  0.00    +0.000 A 
ATOM     29  C   UNL     1     -13.170  -6.491  14.732  0.00  0.00    +0.000 A 
ENDBRANCH  16  19
ENDBRANCH   5  16
TORSDOF 5
ENDMDL
MODEL 9
REMARK VINA RESULT:      -6.3      2.129      2.783
REMARK  Name = 45361080
REMARK  6 active torsions:
REMARK  status: ('A' for Active; 'I' for Inactive)
REMARK    1  A    between atoms: N_4  and  C_17
REMARK    2  A    between atoms: N_5  and  C_16
REMARK    3  A    between atoms: C_12  and  C_15
REMARK    4  A    between atoms: C_15  and  C_18
REMARK    5  A    between atoms: C_16  and  C_19
REMARK    6  A    between atoms: C_18  and  C_20
REMARK                            x       y       z     vdW  Elec       q    Type
REMARK                         _______ _______ _______ _____ _____    ______ ____
ROOT
ATOM      1  O   UNL     1      20.635   6.274  24.265  0.00  0.00    -0.274 OA
ATOM      4  N   UNL     1      18.933   6.292  20.787  0.00  0.00    -0.296 NA
ATOM      5  N   UNL     1      22.262   5.700  22.188  0.00  0.00    -0.286 NA
ATOM      6  N   UNL     1      19.437   7.872  23.148  0.00  0.00    -0.312 N 
ATOM      8  C   UNL     1      20.411   6.242  20.715  0.00  0.00    +0.084 C 
ATOM      9  C   UNL     1      21.229   6.725  21.948  0.00  0.00    +0.161 C 
ATOM     10  C   UNL     1      20.979   4.830  20.486  0.00  0.00    +0.036 C 
ATOM     11  C   UNL     1      22.417   4.949  20.947  0.00  0.00    +0.087 C 
ATOM     12  C   UNL     1      18.368   7.663  20.924  0.00  0.00    +0.074 C 
ATOM     13  C   UNL     1      20.420   6.904  23.231  0.00  0.00    +0.232 C 
ATOM     14  C   UNL     1      19.107   8.573  21.922  0.00  0.00    +0.123 C 
ATOM     17  C   UNL     1      18.330   5.602  19.635  0.00  0.00    +0.105 C 
ATOM     30  H   UNL     1      18.916   8.095  23.990  0.00  0.00    +0.149 HD
ENDROOT
BRANCH  12  15
ATOM     15  C   UNL     1      16.890   7.596  21.363  0.00  0.00    +0.029 C 
BRANCH  15  18
ATOM     18  C   UNL     1      15.967   8.243  20.349  0.00  0.00    +0.097 C 
BRANCH  18  20
ATOM      2  O   UNL     1      15.106   6.269  19.360  0.00  0.00    -0.276 OA
ATOM      3  O   UNL     1      11.090   8.042  21.638  0.00  0.00    -0.377 OA
ATOM      7  N   UNL     1      13.559   7.708  20.321  0.00  0.00    -0.297 N 
ATOM     20  C   UNL     1      14.846   7.314  19.960  0.00  0.00    +0.216 C 
ATOM     23  C   UNL     1      12.413   6.863  19.987  0.00  0.00    +0.136 C 
ATOM     24  C   UNL     1      13.201   8.999  20.920  0.00  0.00    +0.136 C 
ATOM     27  C   UNL     1      11.477   6.743  21.181  0.00  0.00    +0.179 C 
ATOM     28  C   UNL     1      12.227   8.792  22.074  0.00  0.00    +0.179 C 
ENDBRANCH  18  20
ENDBRANCH  15  18
ENDBRANCH  12  15
BRANCH   5  16
ATOM     16  C   UNL     1      23.527   6.252  22.655  0.00  0.00    +0.120 C 
BRANCH  16  19
ATOM     19  C   UNL     1      23.948   5.653  23.970  0.00  0.00    -0.033 A 
ATOM     21  C   UNL     1      24.134   6.474  25.083  0.00  0.00    +0.005 A 
ATOM     22  C   UNL     1      24.154   4.278  24.077  0.00  0.00    +0.005 A 
ATOM     25  C   UNL     1      24.525   5.920  26.302  0.00  0.00    +0.000 A 
ATOM     26  C   UNL     1      24.545   3.723  25.296  0.00  0.00    +0.000 A 
ATOM     29  C   UNL     1      24.730   4.545  26.408  0.00  0.00    +0.000 A 
ENDBRANCH  16  19
ENDBRANCH   5  16
TORSDOF 5
ENDMDL
MODEL 10
REMARK VINA RESULT:      -6.3     29.174     31.593
REMARK  Name = 45361080
REMARK  6 active torsions:
REMARK  status: ('A' for Active; 'I' for Inactive)
REMARK    1  A    between atoms: N_4  and  C_17
REMARK    2  A    between atoms: N_5  and  C_16
REMARK    3  A    between atoms: C_12  and  C_15
REMARK    4  A    between atoms: C_15  and  C_18
REMARK    5  A    between atoms: C_16  and  C_19
REMARK    6  A    between atoms: C_18  and  C_20
REMARK                            x       y       z     vdW  Elec       q    Type
REMARK                         _______ _______ _______ _____ _____    ______ ____
ROOT
ATOM      1  O   UNL     1      -7.686 -12.338  16.109  0.00  0.00    -0.274 OA
ATOM      4  N   UNL     1      -4.081 -11.302  15.148  0.00  0.00    -0.296 NA
ATOM      5  N   UNL     1      -6.265 -11.160  18.081  0.00  0.00    -0.286 NA
ATOM      6  N   UNL     1      -6.863 -11.004  14.443  0.00  0.00    -0.312 N 
ATOM      8  C   UNL     1      -4.527 -10.737  16.441  0.00  0.00    +0.084 C 
ATOM      9  C   UNL     1      -6.056 -10.636  16.718  0.00  0.00    +0.161 C 
ATOM     10  C   UNL     1      -4.028 -11.518  17.670  0.00  0.00    +0.036 C 
ATOM     11  C   UNL     1      -4.981 -11.093  18.768  0.00  0.00    +0.087 C 
ATOM     12  C   UNL     1      -4.486 -10.507  13.955  0.00  0.00    +0.074 C 
ATOM     13  C   UNL     1      -6.940 -11.426  15.756  0.00  0.00    +0.232 C 
ATOM     14  C   UNL     1      -5.936  -9.988  13.983  0.00  0.00    +0.123 C 
ATOM     17  C   UNL     1      -2.625 -11.520  15.147  0.00  0.00    +0.105 C 
ATOM     30  H   UNL     1      -7.485 -11.435  13.766  0.00  0.00    +0.149 HD
ENDROOT
BRANCH  12  15
ATOM     15  C   UNL     1      -4.316 -11.341  12.668  0.00  0.00    +0.029 C 
BRANCH  15  18
ATOM     18  C   UNL     1      -3.496 -10.610  11.623  0.00  0.00    +0.097 C 
BRANCH  18  20
ATOM      2  O   UNL     1      -3.543 -12.185   9.852  0.00  0.00    -0.276 OA
ATOM      3  O   UNL     1      -6.577  -8.687   8.115  0.00  0.00    -0.377 OA
ATOM      7  N   UNL     1      -4.564 -10.140   9.449  0.00  0.00    -0.297 N 
ATOM     20  C   UNL     1      -3.864 -11.056  10.230  0.00  0.00    +0.216 C 
ATOM     23  C   UNL     1      -4.965 -10.494   8.087  0.00  0.00    +0.136 C 
ATOM     24  C   UNL     1      -4.850  -8.749   9.819  0.00  0.00    +0.136 C 
ATOM     27  C   UNL     1      -6.407 -10.079   7.834  0.00  0.00    +0.179 C 
ATOM     28  C   UNL     1      -6.297  -8.402   9.489  0.00  0.00    +0.179 C 
ENDBRANCH  18  20
ENDBRANCH  15  18
ENDBRANCH  12  15
BRANCH   5  16
ATOM     16  C   UNL     1      -7.316 -10.464  18.813  0.00  0.00    +0.120 C 
BRANCH  16  19
ATOM     19  C   UNL     1      -8.320 -11.421  19.398  0.00  0.00    -0.033 A 
ATOM     21  C   UNL     1      -9.624 -10.995  19.649  0.00  0.00    +0.005 A 
ATOM     22  C   UNL     1      -7.946 -12.732  19.690  0.00  0.00    +0.005 A 
ATOM     25  C   UNL     1     -10.555 -11.881  20.192  0.00  0.00    +0.000 A 
ATOM     26  C   UNL     1      -8.877 -13.619  20.232  0.00  0.00    +0.000 A 
ATOM     29  C   UNL     1     -10.182 -13.193  20.484  0.00  0.00    +0.000 A 
ENDBRANCH  16  19
ENDBRANCH   5  16
TORSDOF 5
ENDMDL
