MODEL 1
REMARK VINA RESULT:      -7.4      0.000      0.000
REMARK  Name = 75536048
REMARK  10 active torsions:
REMARK  status: ('A' for Active; 'I' for Inactive)
REMARK    1  A    between atoms: O_1  and  C_14
REMARK    2  A    between atoms: N_3  and  C_9
REMARK    3  A    between atoms: N_3  and  C_19
REMARK    4  A    between atoms: N_4  and  C_28
REMARK    5  A    between atoms: C_6  and  C_13
REMARK    6  A    between atoms: C_8  and  C_16
REMARK    7  A    between atoms: C_8  and  C_17
REMARK    8  A    between atoms: C_13  and  C_18
REMARK    9  A    between atoms: C_14  and  C_20
REMARK   10  A    between atoms: C_18  and  C_23
REMARK                            x       y       z     vdW  Elec       q    Type
REMARK                         _______ _______ _______ _____ _____    ______ ____
ROOT
ATOM      6  C   UNL     1      13.987   9.141  20.056  0.00  0.00    -0.010 C 
ATOM      7  C   UNL     1      13.181   8.151  19.149  0.00  0.00    +0.005 C 
ATOM      8  C   UNL     1      12.976   8.917  17.783  0.00  0.00    -0.030 C 
ATOM      9  C   UNL     1      13.331  10.483  19.654  0.00  0.00    +0.061 C 
ATOM     10  C   UNL     1      13.246  10.410  18.121  0.00  0.00    +0.026 C 
ATOM     11  C   UNL     1      13.901   8.826  21.569  0.00  0.00    +0.011 C 
ATOM     12  C   UNL     1      11.842   7.700  19.784  0.00  0.00    +0.039 C 
ATOM     14  C   UNL     1      11.957   7.254  21.242  0.00  0.00    +0.064 C 
ATOM     15  C   UNL     1      12.526   8.406  22.072  0.00  0.00    +0.035 C 
ATOM     16  C   UNL     1      11.578   8.780  17.147  0.00  0.00    +0.011 C 
ATOM     17  C   UNL     1      13.976   8.406  16.724  0.00  0.00    +0.011 C 
ATOM     20  C   UNL     1      10.592   6.824  21.782  0.00  0.00    +0.041 C 
ENDROOT
BRANCH  14   1
ATOM      1  O   UNL     1      12.830   6.126  21.306  0.00  0.00    -0.389 OA
ATOM     32  H   UNL     1      13.702   6.436  21.607  0.00  0.00    +0.210 HD
ENDBRANCH  14   1
BRANCH   9   3
ATOM      3  N   UNL     1      14.031  11.680  20.100  0.00  0.00    -0.310 NA
ATOM     31  H   UNL     1      14.930  11.438  20.512  0.00  0.00    +0.122 HD
BRANCH   3  19
ATOM      4  N   UNL     1      11.642  12.448  23.530  0.00  0.00    -0.305 NA
ATOM     19  C   UNL     1      13.231  12.420  21.073  0.00  0.00    +0.056 C 
ATOM     21  C   UNL     1      11.797  11.884  21.125  0.00  0.00    +0.034 C 
ATOM     22  C   UNL     1      13.872  12.334  22.460  0.00  0.00    +0.034 C 
ATOM     24  C   UNL     1      10.989  12.584  22.220  0.00  0.00    +0.085 C 
ATOM     25  C   UNL     1      12.996  13.019  23.512  0.00  0.00    +0.085 C 
ATOM     28  C   UNL     1      10.834  13.078  24.574  0.00  0.00    +0.104 C 
ENDBRANCH   3  19
ENDBRANCH   9   3
BRANCH   6  13
ATOM     13  C   UNL     1      15.500   9.125  19.715  0.00  0.00    +0.018 C 
BRANCH  13  18
ATOM     18  C   UNL     1      16.295   8.338  20.733  0.00  0.00    +0.096 C 
BRANCH  18  23
ATOM      2  O   UNL     1      16.356   6.510  19.207  0.00  0.00    -0.276 OA
ATOM      5  N   UNL     1      18.160   6.757  20.630  0.00  0.00    -0.301 N 
ATOM     23  C   UNL     1      16.930   7.119  20.111  0.00  0.00    +0.216 C 
ATOM     26  C   UNL     1      18.899   5.603  20.142  0.00  0.00    +0.108 C 
ATOM     27  C   UNL     1      18.893   7.436  21.694  0.00  0.00    +0.108 C 
ATOM     29  C   UNL     1      20.292   5.765  20.732  0.00  0.00    +0.020 C 
ATOM     30  C   UNL     1      20.019   6.478  22.051  0.00  0.00    +0.020 C 
ENDBRANCH  18  23
ENDBRANCH  13  18
ENDBRANCH   6  13
TORSDOF 6
ENDMDL
MODEL 2
REMARK VINA RESULT:      -6.6      2.181      4.500
REMARK  Name = 75536048
REMARK  10 active torsions:
REMARK  status: ('A' for Active; 'I' for Inactive)
REMARK    1  A    between atoms: O_1  and  C_14
REMARK    2  A    between atoms: N_3  and  C_9
REMARK    3  A    between atoms: N_3  and  C_19
REMARK    4  A    between atoms: N_4  and  C_28
REMARK    5  A    between atoms: C_6  and  C_13
REMARK    6  A    between atoms: C_8  and  C_16
REMARK    7  A    between atoms: C_8  and  C_17
REMARK    8  A    between atoms: C_13  and  C_18
REMARK    9  A    between atoms: C_14  and  C_20
REMARK   10  A    between atoms: C_18  and  C_23
REMARK                            x       y       z     vdW  Elec       q    Type
REMARK                         _______ _______ _______ _____ _____    ______ ____
ROOT
ATOM      6  C   UNL     1      14.276   8.685  20.338  0.00  0.00    -0.010 C 
ATOM      7  C   UNL     1      13.195   8.509  21.457  0.00  0.00    +0.005 C 
ATOM      8  C   UNL     1      11.962   7.833  20.738  0.00  0.00    -0.030 C 
ATOM      9  C   UNL     1      13.376   9.069  19.140  0.00  0.00    +0.061 C 
ATOM     10  C   UNL     1      12.205   8.077  19.222  0.00  0.00    +0.026 C 
ATOM     11  C   UNL     1      15.365   9.733  20.669  0.00  0.00    +0.011 C 
ATOM     12  C   UNL     1      12.820   9.842  22.152  0.00  0.00    +0.039 C 
ATOM     14  C   UNL     1      14.020  10.690  22.574  0.00  0.00    +0.064 C 
ATOM     15  C   UNL     1      14.866  11.006  21.339  0.00  0.00    +0.035 C 
ATOM     16  C   UNL     1      10.578   8.387  21.130  0.00  0.00    +0.011 C 
ATOM     17  C   UNL     1      11.920   6.322  21.050  0.00  0.00    +0.011 C 
ATOM     20  C   UNL     1      13.555  11.980  23.253  0.00  0.00    +0.041 C 
ENDROOT
BRANCH  14   1
ATOM      1  O   UNL     1      14.792   9.949  23.519  0.00  0.00    -0.389 OA
ATOM     32  H   UNL     1      14.291   9.909  24.352  0.00  0.00    +0.210 HD
ENDBRANCH  14   1
BRANCH   9   3
ATOM      3  N   UNL     1      14.022   9.035  17.835  0.00  0.00    -0.310 NA
ATOM     31  H   UNL     1      15.023   8.880  17.934  0.00  0.00    +0.122 HD
BRANCH   3  19
ATOM      4  N   UNL     1      14.780  12.375  15.318  0.00  0.00    -0.305 NA
ATOM     19  C   UNL     1      13.791  10.281  17.106  0.00  0.00    +0.056 C 
ATOM     21  C   UNL     1      14.745  11.381  17.584  0.00  0.00    +0.034 C 
ATOM     22  C   UNL     1      13.966  10.055  15.603  0.00  0.00    +0.034 C 
ATOM     24  C   UNL     1      14.579  12.651  16.747  0.00  0.00    +0.085 C 
ATOM     25  C   UNL     1      13.826  11.369  14.831  0.00  0.00    +0.085 C 
ATOM     28  C   UNL     1      14.669  13.607  14.537  0.00  0.00    +0.104 C 
ENDBRANCH   3  19
ENDBRANCH   9   3
BRANCH   6  13
ATOM     13  C   UNL     1      15.041   7.363  20.070  0.00  0.00    +0.018 C 
BRANCH  13  18
ATOM     18  C   UNL     1      16.536   7.540  20.222  0.00  0.00    +0.096 C 
BRANCH  18  23
ATOM      2  O   UNL     1      16.799   5.608  18.854  0.00  0.00    -0.276 OA
ATOM      5  N   UNL     1      18.517   6.108  20.316  0.00  0.00    -0.301 N 
ATOM     23  C   UNL     1      17.287   6.331  19.726  0.00  0.00    +0.216 C 
ATOM     26  C   UNL     1      19.361   4.980  19.951  0.00  0.00    +0.108 C 
ATOM     27  C   UNL     1      19.151   6.925  21.347  0.00  0.00    +0.108 C 
ATOM     29  C   UNL     1      20.711   5.297  20.577  0.00  0.00    +0.020 C 
ATOM     30  C   UNL     1      20.330   6.088  21.821  0.00  0.00    +0.020 C 
ENDBRANCH  18  23
ENDBRANCH  13  18
ENDBRANCH   6  13
TORSDOF 6
ENDMDL
MODEL 3
REMARK VINA RESULT:      -6.4      1.726      2.770
REMARK  Name = 75536048
REMARK  10 active torsions:
REMARK  status: ('A' for Active; 'I' for Inactive)
REMARK    1  A    between atoms: O_1  and  C_14
REMARK    2  A    between atoms: N_3  and  C_9
REMARK    3  A    between atoms: N_3  and  C_19
REMARK    4  A    between atoms: N_4  and  C_28
REMARK    5  A    between atoms: C_6  and  C_13
REMARK    6  A    between atoms: C_8  and  C_16
REMARK    7  A    between atoms: C_8  and  C_17
REMARK    8  A    between atoms: C_13  and  C_18
REMARK    9  A    between atoms: C_14  and  C_20
REMARK   10  A    between atoms: C_18  and  C_23
REMARK                            x       y       z     vdW  Elec       q    Type
REMARK                         _______ _______ _______ _____ _____    ______ ____
ROOT
ATOM      6  C   UNL     1      14.077   9.418  19.245  0.00  0.00    -0.010 C 
ATOM      7  C   UNL     1      14.271  10.280  17.952  0.00  0.00    +0.005 C 
ATOM      8  C   UNL     1      14.677  11.716  18.471  0.00  0.00    -0.030 C 
ATOM      9  C   UNL     1      13.418  10.460  20.178  0.00  0.00    +0.061 C 
ATOM     10  C   UNL     1      14.255  11.731  19.966  0.00  0.00    +0.026 C 
ATOM     11  C   UNL     1      13.233   8.139  19.032  0.00  0.00    +0.011 C 
ATOM     12  C   UNL     1      13.012  10.309  17.049  0.00  0.00    +0.039 C 
ATOM     14  C   UNL     1      12.391   8.935  16.794  0.00  0.00    +0.064 C 
ATOM     15  C   UNL     1      12.014   8.302  18.133  0.00  0.00    +0.035 C 
ATOM     16  C   UNL     1      14.013  12.899  17.739  0.00  0.00    +0.011 C 
ATOM     17  C   UNL     1      16.199  11.928  18.328  0.00  0.00    +0.011 C 
ATOM     20  C   UNL     1      11.161   9.060  15.892  0.00  0.00    +0.041 C 
ENDROOT
BRANCH  14   1
ATOM      1  O   UNL     1      13.349   8.120  16.119  0.00  0.00    -0.389 OA
ATOM     32  H   UNL     1      14.215   8.262  16.537  0.00  0.00    +0.210 HD
ENDBRANCH  14   1
BRANCH   9   3
ATOM      3  N   UNL     1      13.349  10.086  21.584  0.00  0.00    -0.310 NA
ATOM     31  H   UNL     1      12.845   9.209  21.699  0.00  0.00    +0.122 HD
BRANCH   3  19
ATOM      4  N   UNL     1      11.480  12.004  24.885  0.00  0.00    -0.305 NA
ATOM     19  C   UNL     1      12.694  11.131  22.370  0.00  0.00    +0.056 C 
ATOM     21  C   UNL     1      11.286  10.698  22.791  0.00  0.00    +0.034 C 
ATOM     22  C   UNL     1      13.530  11.464  23.608  0.00  0.00    +0.034 C 
ATOM     24  C   UNL     1      10.642  11.743  23.705  0.00  0.00    +0.085 C 
ATOM     25  C   UNL     1      12.813  12.484  24.496  0.00  0.00    +0.085 C 
ATOM     28  C   UNL     1      10.828  12.967  25.773  0.00  0.00    +0.104 C 
ENDBRANCH   3  19
ENDBRANCH   9   3
BRANCH   6  13
ATOM     13  C   UNL     1      15.435   8.928  19.813  0.00  0.00    +0.018 C 
BRANCH  13  18
ATOM     18  C   UNL     1      15.342   7.514  20.344  0.00  0.00    +0.096 C 
BRANCH  18  23
ATOM      2  O   UNL     1      16.133   5.973  18.710  0.00  0.00    -0.276 OA
ATOM      5  N   UNL     1      17.610   6.598  20.373  0.00  0.00    -0.301 N 
ATOM     23  C   UNL     1      16.389   6.624  19.725  0.00  0.00    +0.216 C 
ATOM     26  C   UNL     1      18.722   5.784  19.904  0.00  0.00    +0.108 C 
ATOM     27  C   UNL     1      17.977   7.345  21.573  0.00  0.00    +0.108 C 
ATOM     29  C   UNL     1      19.923   6.295  20.685  0.00  0.00    +0.020 C 
ATOM     30  C   UNL     1      19.306   6.740  22.004  0.00  0.00    +0.020 C 
ENDBRANCH  18  23
ENDBRANCH  13  18
ENDBRANCH   6  13
TORSDOF 6
ENDMDL
MODEL 4
REMARK VINA RESULT:      -6.3      2.566      6.177
REMARK  Name = 75536048
REMARK  10 active torsions:
REMARK  status: ('A' for Active; 'I' for Inactive)
REMARK    1  A    between atoms: O_1  and  C_14
REMARK    2  A    between atoms: N_3  and  C_9
REMARK    3  A    between atoms: N_3  and  C_19
REMARK    4  A    between atoms: N_4  and  C_28
REMARK    5  A    between atoms: C_6  and  C_13
REMARK    6  A    between atoms: C_8  and  C_16
REMARK    7  A    between atoms: C_8  and  C_17
REMARK    8  A    between atoms: C_13  and  C_18
REMARK    9  A    between atoms: C_14  and  C_20
REMARK   10  A    between atoms: C_18  and  C_23
REMARK                            x       y       z     vdW  Elec       q    Type
REMARK                         _______ _______ _______ _____ _____    ______ ____
ROOT
ATOM      6  C   UNL     1      13.302   9.794  19.671  0.00  0.00    -0.010 C 
ATOM      7  C   UNL     1      12.137  10.415  20.514  0.00  0.00    +0.005 C 
ATOM      8  C   UNL     1      12.777  11.659  21.248  0.00  0.00    -0.030 C 
ATOM      9  C   UNL     1      14.485   9.985  20.649  0.00  0.00    +0.061 C 
ATOM     10  C   UNL     1      14.310  11.421  21.167  0.00  0.00    +0.026 C 
ATOM     11  C   UNL     1      13.064   8.324  19.250  0.00  0.00    +0.011 C 
ATOM     12  C   UNL     1      11.499   9.406  21.501  0.00  0.00    +0.039 C 
ATOM     14  C   UNL     1      11.164   8.048  20.883  0.00  0.00    +0.064 C 
ATOM     15  C   UNL     1      12.442   7.430  20.315  0.00  0.00    +0.035 C 
ATOM     16  C   UNL     1      12.364  11.846  22.721  0.00  0.00    +0.011 C 
ATOM     17  C   UNL     1      12.386  12.967  20.528  0.00  0.00    +0.011 C 
ATOM     20  C   UNL     1      10.536   7.122  21.927  0.00  0.00    +0.041 C 
ENDROOT
BRANCH  14   1
ATOM      1  O   UNL     1      10.210   8.245  19.840  0.00  0.00    -0.389 OA
ATOM     32  H   UNL     1      10.418   9.085  19.395  0.00  0.00    +0.210 HD
ENDBRANCH  14   1
BRANCH   9   3
ATOM      3  N   UNL     1      15.809   9.773  20.080  0.00  0.00    -0.310 NA
ATOM     31  H   UNL     1      15.739   9.339  19.161  0.00  0.00    +0.122 HD
BRANCH   3  19
ATOM      4  N   UNL     1      19.044   7.345  21.383  0.00  0.00    -0.305 NA
ATOM     19  C   UNL     1      16.626   8.935  20.955  0.00  0.00    +0.056 C 
ATOM     21  C   UNL     1      16.795   7.530  20.367  0.00  0.00    +0.034 C 
ATOM     22  C   UNL     1      17.997   9.578  21.175  0.00  0.00    +0.034 C 
ATOM     24  C   UNL     1      17.739   6.686  21.227  0.00  0.00    +0.085 C 
ATOM     25  C   UNL     1      18.902   8.667  22.008  0.00  0.00    +0.085 C 
ATOM     28  C   UNL     1      19.952   6.503  22.164  0.00  0.00    +0.104 C 
ENDBRANCH   3  19
ENDBRANCH   9   3
BRANCH   6  13
ATOM     13  C   UNL     1      13.529  10.572  18.349  0.00  0.00    +0.018 C 
BRANCH  13  18
ATOM     18  C   UNL     1      13.983   9.658  17.232  0.00  0.00    +0.096 C 
BRANCH  18  23
ATOM      2  O   UNL     1      12.687   9.884  15.247  0.00  0.00    -0.276 OA
ATOM      5  N   UNL     1      14.579  11.197  15.426  0.00  0.00    -0.301 N 
ATOM     23  C   UNL     1      13.679  10.250  15.879  0.00  0.00    +0.216 C 
ATOM     26  C   UNL     1      14.430  11.857  14.138  0.00  0.00    +0.108 C 
ATOM     27  C   UNL     1      15.767  11.676  16.125  0.00  0.00    +0.108 C 
ATOM     29  C   UNL     1      15.412  13.018  14.189  0.00  0.00    +0.020 C 
ATOM     30  C   UNL     1      16.525  12.480  15.079  0.00  0.00    +0.020 C 
ENDBRANCH  18  23
ENDBRANCH  13  18
ENDBRANCH   6  13
TORSDOF 6
ENDMDL
MODEL 5
REMARK VINA RESULT:      -6.3     14.769     17.654
REMARK  Name = 75536048
REMARK  10 active torsions:
REMARK  status: ('A' for Active; 'I' for Inactive)
REMARK    1  A    between atoms: O_1  and  C_14
REMARK    2  A    between atoms: N_3  and  C_9
REMARK    3  A    between atoms: N_3  and  C_19
REMARK    4  A    between atoms: N_4  and  C_28
REMARK    5  A    between atoms: C_6  and  C_13
REMARK    6  A    between atoms: C_8  and  C_16
REMARK    7  A    between atoms: C_8  and  C_17
REMARK    8  A    between atoms: C_13  and  C_18
REMARK    9  A    between atoms: C_14  and  C_20
REMARK   10  A    between atoms: C_18  and  C_23
REMARK                            x       y       z     vdW  Elec       q    Type
REMARK                         _______ _______ _______ _____ _____    ______ ____
ROOT
ATOM      6  C   UNL     1      10.392   6.654   4.408  0.00  0.00    -0.010 C 
ATOM      7  C   UNL     1      11.016   5.986   5.680  0.00  0.00    +0.005 C 
ATOM      8  C   UNL     1       9.786   5.425   6.497  0.00  0.00    -0.030 C 
ATOM      9  C   UNL     1       9.119   7.283   5.021  0.00  0.00    +0.061 C 
ATOM     10  C   UNL     1       8.553   6.174   5.922  0.00  0.00    +0.026 C 
ATOM     11  C   UNL     1      11.322   7.671   3.706  0.00  0.00    +0.011 C 
ATOM     12  C   UNL     1      11.886   6.962   6.512  0.00  0.00    +0.039 C 
ATOM     14  C   UNL     1      12.880   7.777   5.684  0.00  0.00    +0.064 C 
ATOM     15  C   UNL     1      12.114   8.583   4.634  0.00  0.00    +0.035 C 
ATOM     16  C   UNL     1       9.850   5.637   8.023  0.00  0.00    +0.011 C 
ATOM     17  C   UNL     1       9.651   3.902   6.285  0.00  0.00    +0.011 C 
ATOM     20  C   UNL     1      13.696   8.707   6.586  0.00  0.00    +0.041 C 
ENDROOT
BRANCH  14   1
ATOM      1  O   UNL     1      13.787   6.878   5.046  0.00  0.00    -0.389 OA
ATOM     32  H   UNL     1      14.115   7.304   4.235  0.00  0.00    +0.210 HD
ENDBRANCH  14   1
BRANCH   9   3
ATOM      3  N   UNL     1       8.131   7.758   4.062  0.00  0.00    -0.310 NA
ATOM     31  H   UNL     1       8.329   7.394   3.133  0.00  0.00    +0.122 HD
BRANCH   3  19
ATOM      4  N   UNL     1       7.088  11.752   5.073  0.00  0.00    -0.305 NA
ATOM     19  C   UNL     1       8.104   9.219   4.020  0.00  0.00    +0.056 C 
ATOM     21  C   UNL     1       6.696   9.732   3.698  0.00  0.00    +0.034 C 
ATOM     22  C   UNL     1       8.578   9.796   5.356  0.00  0.00    +0.034 C 
ATOM     24  C   UNL     1       6.643  11.260   3.761  0.00  0.00    +0.085 C 
ATOM     25  C   UNL     1       8.462  11.322   5.365  0.00  0.00    +0.085 C 
ATOM     28  C   UNL     1       6.982  13.210   5.136  0.00  0.00    +0.104 C 
ENDBRANCH   3  19
ENDBRANCH   9   3
BRANCH   6  13
ATOM     13  C   UNL     1      10.037   5.600   3.326  0.00  0.00    +0.018 C 
BRANCH  13  18
ATOM     18  C   UNL     1      11.194   4.663   3.058  0.00  0.00    +0.096 C 
BRANCH  18  23
ATOM      2  O   UNL     1      10.102   3.881   1.091  0.00  0.00    -0.276 OA
ATOM      5  N   UNL     1      12.407   4.022   1.033  0.00  0.00    -0.301 N 
ATOM     23  C   UNL     1      11.172   4.155   1.638  0.00  0.00    +0.216 C 
ATOM     26  C   UNL     1      12.556   3.539  -0.332  0.00  0.00    +0.108 C 
ATOM     27  C   UNL     1      13.706   4.332   1.623  0.00  0.00    +0.108 C 
ATOM     29  C   UNL     1      13.999   3.858  -0.694  0.00  0.00    +0.020 C 
ATOM     30  C   UNL     1      14.716   3.748   0.645  0.00  0.00    +0.020 C 
ENDBRANCH  18  23
ENDBRANCH  13  18
ENDBRANCH   6  13
TORSDOF 6
ENDMDL
MODEL 6
REMARK VINA RESULT:      -6.3      2.164      3.148
REMARK  Name = 75536048
REMARK  10 active torsions:
REMARK  status: ('A' for Active; 'I' for Inactive)
REMARK    1  A    between atoms: O_1  and  C_14
REMARK    2  A    between atoms: N_3  and  C_9
REMARK    3  A    between atoms: N_3  and  C_19
REMARK    4  A    between atoms: N_4  and  C_28
REMARK    5  A    between atoms: C_6  and  C_13
REMARK    6  A    between atoms: C_8  and  C_16
REMARK    7  A    between atoms: C_8  and  C_17
REMARK    8  A    between atoms: C_13  and  C_18
REMARK    9  A    between atoms: C_14  and  C_20
REMARK   10  A    between atoms: C_18  and  C_23
REMARK                            x       y       z     vdW  Elec       q    Type
REMARK                         _______ _______ _______ _____ _____    ______ ____
ROOT
ATOM      6  C   UNL     1      14.326   8.611  20.066  0.00  0.00    -0.010 C 
ATOM      7  C   UNL     1      13.289   7.847  19.176  0.00  0.00    +0.005 C 
ATOM      8  C   UNL     1      13.305   8.600  17.786  0.00  0.00    -0.030 C 
ATOM      9  C   UNL     1      14.059  10.067  19.619  0.00  0.00    +0.061 C 
ATOM     10  C   UNL     1      13.965   9.974  18.088  0.00  0.00    +0.026 C 
ATOM     11  C   UNL     1      14.150   8.376  21.585  0.00  0.00    +0.011 C 
ATOM     12  C   UNL     1      11.874   7.793  19.805  0.00  0.00    +0.039 C 
ATOM     14  C   UNL     1      11.857   7.376  21.276  0.00  0.00    +0.064 C 
ATOM     15  C   UNL     1      12.710   8.356  22.082  0.00  0.00    +0.035 C 
ATOM     16  C   UNL     1      11.925   8.825  17.137  0.00  0.00    +0.011 C 
ATOM     17  C   UNL     1      14.136   7.807  16.756  0.00  0.00    +0.011 C 
ATOM     20  C   UNL     1      10.423   7.345  21.810  0.00  0.00    +0.041 C 
ENDROOT
BRANCH  14   1
ATOM      1  O   UNL     1      12.394   6.057  21.382  0.00  0.00    -0.389 OA
ATOM     32  H   UNL     1      12.664   5.915  22.306  0.00  0.00    +0.210 HD
ENDBRANCH  14   1
BRANCH   9   3
ATOM      3  N   UNL     1      15.052  11.044  20.041  0.00  0.00    -0.310 NA
ATOM     31  H   UNL     1      14.730  11.553  20.862  0.00  0.00    +0.122 HD
BRANCH   3  19
ATOM      4  N   UNL     1      16.454  14.554  18.096  0.00  0.00    -0.305 NA
ATOM     19  C   UNL     1      15.345  11.990  18.966  0.00  0.00    +0.056 C 
ATOM     21  C   UNL     1      14.609  13.316  19.186  0.00  0.00    +0.034 C 
ATOM     22  C   UNL     1      16.852  12.238  18.874  0.00  0.00    +0.034 C 
ATOM     24  C   UNL     1      14.999  14.343  18.121  0.00  0.00    +0.085 C 
ATOM     25  C   UNL     1      17.169  13.301  17.819  0.00  0.00    +0.085 C 
ATOM     28  C   UNL     1      16.806  15.575  17.109  0.00  0.00    +0.104 C 
ENDBRANCH   3  19
ENDBRANCH   9   3
BRANCH   6  13
ATOM     13  C   UNL     1      15.781   8.178  19.746  0.00  0.00    +0.018 C 
BRANCH  13  18
ATOM     18  C   UNL     1      16.223   7.017  20.609  0.00  0.00    +0.096 C 
BRANCH  18  23
ATOM      2  O   UNL     1      16.948   5.568  18.864  0.00  0.00    -0.276 OA
ATOM      5  N   UNL     1      18.489   6.104  20.499  0.00  0.00    -0.301 N 
ATOM     23  C   UNL     1      17.244   6.163  19.901  0.00  0.00    +0.216 C 
ATOM     26  C   UNL     1      19.582   5.319  19.943  0.00  0.00    +0.108 C 
ATOM     27  C   UNL     1      18.905   6.786  21.721  0.00  0.00    +0.108 C 
ATOM     29  C   UNL     1      20.813   5.789  20.701  0.00  0.00    +0.020 C 
ATOM     30  C   UNL     1      20.249   6.161  22.066  0.00  0.00    +0.020 C 
ENDBRANCH  18  23
ENDBRANCH  13  18
ENDBRANCH   6  13
TORSDOF 6
ENDMDL
MODEL 7
REMARK VINA RESULT:      -6.0     11.183     15.312
REMARK  Name = 75536048
REMARK  10 active torsions:
REMARK  status: ('A' for Active; 'I' for Inactive)
REMARK    1  A    between atoms: O_1  and  C_14
REMARK    2  A    between atoms: N_3  and  C_9
REMARK    3  A    between atoms: N_3  and  C_19
REMARK    4  A    between atoms: N_4  and  C_28
REMARK    5  A    between atoms: C_6  and  C_13
REMARK    6  A    between atoms: C_8  and  C_16
REMARK    7  A    between atoms: C_8  and  C_17
REMARK    8  A    between atoms: C_13  and  C_18
REMARK    9  A    between atoms: C_14  and  C_20
REMARK   10  A    between atoms: C_18  and  C_23
REMARK                            x       y       z     vdW  Elec       q    Type
REMARK                         _______ _______ _______ _____ _____    ______ ____
ROOT
ATOM      6  C   UNL     1       9.981   8.493   6.832  0.00  0.00    -0.010 C 
ATOM      7  C   UNL     1       9.052   7.284   6.474  0.00  0.00    +0.005 C 
ATOM      8  C   UNL     1       9.750   6.022   7.120  0.00  0.00    -0.030 C 
ATOM      9  C   UNL     1      11.370   7.829   6.686  0.00  0.00    +0.061 C 
ATOM     10  C   UNL     1      11.211   6.475   7.395  0.00  0.00    +0.026 C 
ATOM     11  C   UNL     1       9.778   9.734   5.931  0.00  0.00    +0.011 C 
ATOM     12  C   UNL     1       8.828   7.122   4.949  0.00  0.00    +0.039 C 
ATOM     14  C   UNL     1       8.466   8.420   4.227  0.00  0.00    +0.064 C 
ATOM     15  C   UNL     1       9.581   9.442   4.449  0.00  0.00    +0.035 C 
ATOM     16  C   UNL     1       9.762   4.750   6.249  0.00  0.00    +0.011 C 
ATOM     17  C   UNL     1       9.040   5.631   8.434  0.00  0.00    +0.011 C 
ATOM     20  C   UNL     1       8.259   8.164   2.732  0.00  0.00    +0.041 C 
ENDROOT
BRANCH  14   1
ATOM      1  O   UNL     1       7.237   8.912   4.762  0.00  0.00    -0.389 OA
ATOM     32  H   UNL     1       7.085   9.802   4.401  0.00  0.00    +0.210 HD
ENDBRANCH  14   1
BRANCH   9   3
ATOM      3  N   UNL     1      12.488   8.592   7.224  0.00  0.00    -0.310 NA
ATOM     31  H   UNL     1      12.179   9.511   7.534  0.00  0.00    +0.122 HD
BRANCH   3  19
ATOM      4  N   UNL     1      16.394   8.792   5.560  0.00  0.00    -0.305 NA
ATOM     19  C   UNL     1      13.545   8.743   6.226  0.00  0.00    +0.056 C 
ATOM     21  C   UNL     1      14.441   9.942   6.553  0.00  0.00    +0.034 C 
ATOM     22  C   UNL     1      14.387   7.467   6.150  0.00  0.00    +0.034 C 
ATOM     24  C   UNL     1      15.611  10.036   5.572  0.00  0.00    +0.085 C 
ATOM     25  C   UNL     1      15.560   7.642   5.182  0.00  0.00    +0.085 C 
ATOM     28  C   UNL     1      17.538   8.915   4.656  0.00  0.00    +0.104 C 
ENDBRANCH   3  19
ENDBRANCH   9   3
BRANCH   6  13
ATOM     13  C   UNL     1       9.739   8.989   8.281  0.00  0.00    +0.018 C 
BRANCH  13  18
ATOM     18  C   UNL     1       9.704  10.499   8.358  0.00  0.00    +0.096 C 
BRANCH  18  23
ATOM      2  O   UNL     1      11.935  10.913   9.082  0.00  0.00    -0.276 OA
ATOM      5  N   UNL     1      10.228  11.611  10.472  0.00  0.00    -0.301 N 
ATOM     23  C   UNL     1      10.733  11.024   9.327  0.00  0.00    +0.216 C 
ATOM     26  C   UNL     1      11.089  12.161  11.509  0.00  0.00    +0.108 C 
ATOM     27  C   UNL     1       8.820  11.777  10.820  0.00  0.00    +0.108 C 
ATOM     29  C   UNL     1      10.154  12.975  12.390  0.00  0.00    +0.020 C 
ATOM     30  C   UNL     1       8.838  12.216  12.278  0.00  0.00    +0.020 C 
ENDBRANCH  18  23
ENDBRANCH  13  18
ENDBRANCH   6  13
TORSDOF 6
ENDMDL
MODEL 8
REMARK VINA RESULT:      -6.0     27.647     29.692
REMARK  Name = 75536048
REMARK  10 active torsions:
REMARK  status: ('A' for Active; 'I' for Inactive)
REMARK    1  A    between atoms: O_1  and  C_14
REMARK    2  A    between atoms: N_3  and  C_9
REMARK    3  A    between atoms: N_3  and  C_19
REMARK    4  A    between atoms: N_4  and  C_28
REMARK    5  A    between atoms: C_6  and  C_13
REMARK    6  A    between atoms: C_8  and  C_16
REMARK    7  A    between atoms: C_8  and  C_17
REMARK    8  A    between atoms: C_13  and  C_18
REMARK    9  A    between atoms: C_14  and  C_20
REMARK   10  A    between atoms: C_18  and  C_23
REMARK                            x       y       z     vdW  Elec       q    Type
REMARK                         _______ _______ _______ _____ _____    ______ ____
ROOT
ATOM      6  C   UNL     1      -6.627 -10.780  16.186  0.00  0.00    -0.010 C 
ATOM      7  C   UNL     1      -6.709 -12.249  16.724  0.00  0.00    +0.005 C 
ATOM      8  C   UNL     1      -8.253 -12.538  16.901  0.00  0.00    -0.030 C 
ATOM      9  C   UNL     1      -7.767 -10.122  16.998  0.00  0.00    +0.061 C 
ATOM     10  C   UNL     1      -8.920 -11.134  16.907  0.00  0.00    +0.026 C 
ATOM     11  C   UNL     1      -5.246 -10.111  16.381  0.00  0.00    +0.011 C 
ATOM     12  C   UNL     1      -5.912 -12.459  18.035  0.00  0.00    +0.039 C 
ATOM     14  C   UNL     1      -4.495 -11.884  18.007  0.00  0.00    +0.064 C 
ATOM     15  C   UNL     1      -4.570 -10.385  17.718  0.00  0.00    +0.035 C 
ATOM     16  C   UNL     1      -8.643 -13.297  18.185  0.00  0.00    +0.011 C 
ATOM     17  C   UNL     1      -8.778 -13.390  15.726  0.00  0.00    +0.011 C 
ATOM     20  C   UNL     1      -3.783 -12.142  19.337  0.00  0.00    +0.041 C 
ENDROOT
BRANCH  14   1
ATOM      1  O   UNL     1      -3.756 -12.544  16.979  0.00  0.00    -0.389 OA
ATOM     32  H   UNL     1      -4.373 -13.103  16.475  0.00  0.00    +0.210 HD
ENDBRANCH  14   1
BRANCH   9   3
ATOM      3  N   UNL     1      -8.174  -8.798  16.547  0.00  0.00    -0.310 NA
ATOM     31  H   UNL     1      -7.947  -8.095  17.247  0.00  0.00    +0.122 HD
BRANCH   3  19
ATOM      4  N   UNL     1     -11.944  -7.303  15.275  0.00  0.00    -0.305 NA
ATOM     19  C   UNL     1      -9.607  -8.761  16.264  0.00  0.00    +0.056 C 
ATOM     21  C   UNL     1     -10.301  -7.671  17.089  0.00  0.00    +0.034 C 
ATOM     22  C   UNL     1      -9.846  -8.518  14.772  0.00  0.00    +0.034 C 
ATOM     24  C   UNL     1     -11.780  -7.558  16.713  0.00  0.00    +0.085 C 
ATOM     25  C   UNL     1     -11.341  -8.375  14.472  0.00  0.00    +0.085 C 
ATOM     28  C   UNL     1     -13.359  -7.146  14.941  0.00  0.00    +0.104 C 
ENDBRANCH   3  19
ENDBRANCH   9   3
BRANCH   6  13
ATOM     13  C   UNL     1      -6.907 -10.715  14.661  0.00  0.00    +0.018 C 
BRANCH  13  18
ATOM     18  C   UNL     1      -5.737 -10.129  13.902  0.00  0.00    +0.096 C 
BRANCH  18  23
ATOM      2  O   UNL     1      -7.335  -9.172  12.417  0.00  0.00    -0.276 OA
ATOM      5  N   UNL     1      -5.198  -9.498  11.601  0.00  0.00    -0.301 N 
ATOM     23  C   UNL     1      -6.174  -9.553  12.579  0.00  0.00    +0.216 C 
ATOM     26  C   UNL     1      -5.461  -8.975  10.268  0.00  0.00    +0.108 C 
ATOM     27  C   UNL     1      -3.809  -9.927  11.729  0.00  0.00    +0.108 C 
ATOM     29  C   UNL     1      -4.083  -8.797   9.650  0.00  0.00    +0.020 C 
ATOM     30  C   UNL     1      -3.272  -9.907  10.305  0.00  0.00    +0.020 C 
ENDBRANCH  18  23
ENDBRANCH  13  18
ENDBRANCH   6  13
TORSDOF 6
ENDMDL
MODEL 9
REMARK VINA RESULT:      -5.7     11.741     14.482
REMARK  Name = 75536048
REMARK  10 active torsions:
REMARK  status: ('A' for Active; 'I' for Inactive)
REMARK    1  A    between atoms: O_1  and  C_14
REMARK    2  A    between atoms: N_3  and  C_9
REMARK    3  A    between atoms: N_3  and  C_19
REMARK    4  A    between atoms: N_4  and  C_28
REMARK    5  A    between atoms: C_6  and  C_13
REMARK    6  A    between atoms: C_8  and  C_16
REMARK    7  A    between atoms: C_8  and  C_17
REMARK    8  A    between atoms: C_13  and  C_18
REMARK    9  A    between atoms: C_14  and  C_20
REMARK   10  A    between atoms: C_18  and  C_23
REMARK                            x       y       z     vdW  Elec       q    Type
REMARK                         _______ _______ _______ _____ _____    ______ ____
ROOT
ATOM      6  C   UNL     1      18.850  -2.871  24.866  0.00  0.00    -0.010 C 
ATOM      7  C   UNL     1      18.082  -3.128  23.525  0.00  0.00    +0.005 C 
ATOM      8  C   UNL     1      16.821  -2.178  23.584  0.00  0.00    -0.030 C 
ATOM      9  C   UNL     1      17.661  -2.706  25.841  0.00  0.00    +0.061 C 
ATOM     10  C   UNL     1      16.683  -1.794  25.083  0.00  0.00    +0.026 C 
ATOM     11  C   UNL     1      19.834  -3.999  25.257  0.00  0.00    +0.011 C 
ATOM     12  C   UNL     1      17.695  -4.615  23.324  0.00  0.00    +0.039 C 
ATOM     14  C   UNL     1      18.834  -5.601  23.587  0.00  0.00    +0.064 C 
ATOM     15  C   UNL     1      19.331  -5.418  25.022  0.00  0.00    +0.035 C 
ATOM     16  C   UNL     1      15.499  -2.797  23.089  0.00  0.00    +0.011 C 
ATOM     17  C   UNL     1      17.054  -0.923  22.716  0.00  0.00    +0.011 C 
ATOM     20  C   UNL     1      18.364  -7.039  23.360  0.00  0.00    +0.041 C 
ENDROOT
BRANCH  14   1
ATOM      1  O   UNL     1      19.891  -5.333  22.665  0.00  0.00    -0.389 OA
ATOM     32  H   UNL     1      19.674  -5.768  21.823  0.00  0.00    +0.210 HD
ENDBRANCH  14   1
BRANCH   9   3
ATOM      3  N   UNL     1      17.996  -2.168  27.152  0.00  0.00    -0.310 NA
ATOM     31  H   UNL     1      18.986  -1.934  27.202  0.00  0.00    +0.122 HD
BRANCH   3  19
ATOM      4  N   UNL     1      17.903  -3.978  30.997  0.00  0.00    -0.305 NA
ATOM     19  C   UNL     1      17.668  -3.124  28.208  0.00  0.00    +0.056 C 
ATOM     21  C   UNL     1      18.932  -3.795  28.754  0.00  0.00    +0.034 C 
ATOM     22  C   UNL     1      16.918  -2.422  29.342  0.00  0.00    +0.034 C 
ATOM     24  C   UNL     1      18.601  -4.713  29.932  0.00  0.00    +0.085 C 
ATOM     25  C   UNL     1      16.653  -3.385  30.503  0.00  0.00    +0.085 C 
ATOM     28  C   UNL     1      17.638  -4.855  32.137  0.00  0.00    +0.104 C 
ENDBRANCH   3  19
ENDBRANCH   9   3
BRANCH   6  13
ATOM     13  C   UNL     1      19.707  -1.580  24.794  0.00  0.00    +0.018 C 
BRANCH  13  18
ATOM     18  C   UNL     1      21.101  -1.803  25.339  0.00  0.00    +0.096 C 
BRANCH  18  23
ATOM      2  O   UNL     1      20.784  -0.922  27.529  0.00  0.00    -0.276 OA
ATOM      5  N   UNL     1      22.406   0.071  26.217  0.00  0.00    -0.301 N 
ATOM     23  C   UNL     1      21.408  -0.852  26.468  0.00  0.00    +0.216 C 
ATOM     26  C   UNL     1      22.815   1.061  27.202  0.00  0.00    +0.108 C 
ATOM     27  C   UNL     1      23.183   0.203  24.988  0.00  0.00    +0.108 C 
ATOM     29  C   UNL     1      24.116   1.628  26.654  0.00  0.00    +0.020 C 
ATOM     30  C   UNL     1      23.923   1.524  25.147  0.00  0.00    +0.020 C 
ENDBRANCH  18  23
ENDBRANCH  13  18
ENDBRANCH   6  13
TORSDOF 6
ENDMDL
MODEL 10
REMARK VINA RESULT:      -5.7     27.580     29.334
REMARK  Name = 75536048
REMARK  10 active torsions:
REMARK  status: ('A' for Active; 'I' for Inactive)
REMARK    1  A    between atoms: O_1  and  C_14
REMARK    2  A    between atoms: N_3  and  C_9
REMARK    3  A    between atoms: N_3  and  C_19
REMARK    4  A    between atoms: N_4  and  C_28
REMARK    5  A    between atoms: C_6  and  C_13
REMARK    6  A    between atoms: C_8  and  C_16
REMARK    7  A    between atoms: C_8  and  C_17
REMARK    8  A    between atoms: C_13  and  C_18
REMARK    9  A    between atoms: C_14  and  C_20
REMARK   10  A    between atoms: C_18  and  C_23
REMARK                            x       y       z     vdW  Elec       q    Type
REMARK                         _______ _______ _______ _____ _____    ______ ____
ROOT
ATOM      6  C   UNL     1      -4.366 -10.915  13.016  0.00  0.00    -0.010 C 
ATOM      7  C   UNL     1      -4.701 -12.317  12.404  0.00  0.00    +0.005 C 
ATOM      8  C   UNL     1      -6.276 -12.431  12.473  0.00  0.00    -0.030 C 
ATOM      9  C   UNL     1      -5.409 -10.853  14.157  0.00  0.00    +0.061 C 
ATOM     10  C   UNL     1      -6.707 -11.349  13.501  0.00  0.00    +0.026 C 
ATOM     11  C   UNL     1      -2.902 -10.766  13.493  0.00  0.00    +0.011 C 
ATOM     12  C   UNL     1      -3.989 -13.483  13.134  0.00  0.00    +0.039 C 
ATOM     14  C   UNL     1      -2.498 -13.251  13.380  0.00  0.00    +0.064 C 
ATOM     15  C   UNL     1      -2.320 -11.978  14.208  0.00  0.00    +0.035 C 
ATOM     16  C   UNL     1      -6.824 -13.804  12.913  0.00  0.00    +0.011 C 
ATOM     17  C   UNL     1      -6.896 -12.150  11.088  0.00  0.00    +0.011 C 
ATOM     20  C   UNL     1      -1.878 -14.452  14.098  0.00  0.00    +0.041 C 
ENDROOT
BRANCH  14   1
ATOM      1  O   UNL     1      -1.844 -13.110  12.118  0.00  0.00    -0.389 OA
ATOM     32  H   UNL     1      -0.901 -12.940  12.284  0.00  0.00    +0.210 HD
ENDBRANCH  14   1
BRANCH   9   3
ATOM      3  N   UNL     1      -5.582  -9.547  14.778  0.00  0.00    -0.310 NA
ATOM     31  H   UNL     1      -4.842  -8.911  14.487  0.00  0.00    +0.122 HD
BRANCH   3  19
ATOM      4  N   UNL     1      -6.225 -11.190  18.644  0.00  0.00    -0.305 NA
ATOM     19  C   UNL     1      -5.586  -9.657  16.235  0.00  0.00    +0.056 C 
ATOM     21  C   UNL     1      -7.016  -9.778  16.771  0.00  0.00    +0.034 C 
ATOM     22  C   UNL     1      -4.758 -10.867  16.676  0.00  0.00    +0.034 C 
ATOM     24  C   UNL     1      -7.017 -10.004  18.285  0.00  0.00    +0.085 C 
ATOM     25  C   UNL     1      -4.833 -11.057  18.194  0.00  0.00    +0.085 C 
ATOM     28  C   UNL     1      -6.277 -11.422  20.088  0.00  0.00    +0.104 C 
ENDBRANCH   3  19
ENDBRANCH   9   3
BRANCH   6  13
ATOM     13  C   UNL     1      -4.585  -9.775  11.987  0.00  0.00    +0.018 C 
BRANCH  13  18
ATOM     18  C   UNL     1      -3.680  -9.925  10.784  0.00  0.00    +0.096 C 
BRANCH  18  23
ATOM      2  O   UNL     1      -4.793  -8.381   9.353  0.00  0.00    -0.276 OA
ATOM      5  N   UNL     1      -4.541 -10.543   8.580  0.00  0.00    -0.301 N 
ATOM     23  C   UNL     1      -4.387  -9.534   9.512  0.00  0.00    +0.216 C 
ATOM     26  C   UNL     1      -5.207 -10.328   7.304  0.00  0.00    +0.108 C 
ATOM     27  C   UNL     1      -4.083 -11.924   8.704  0.00  0.00    +0.108 C 
ATOM     29  C   UNL     1      -4.869 -11.564   6.484  0.00  0.00    +0.020 C 
ATOM     30  C   UNL     1      -4.748 -12.651   7.545  0.00  0.00    +0.020 C 
ENDBRANCH  18  23
ENDBRANCH  13  18
ENDBRANCH   6  13
TORSDOF 6
ENDMDL
