MODEL 1
REMARK VINA RESULT:      -7.5      0.000      0.000
REMARK  Name = 45783645
REMARK  9 active torsions:
REMARK  status: ('A' for Active; 'I' for Inactive)
REMARK    1  A    between atoms: O_2  and  C_32
REMARK    2  A    between atoms: O_2  and  C_33
REMARK    3  A    between atoms: N_4  and  C_14
REMARK    4  A    between atoms: N_5  and  C_23
REMARK    5  A    between atoms: N_9  and  C_30
REMARK    6  A    between atoms: C_10  and  C_15
REMARK    7  A    between atoms: C_14  and  C_16
REMARK    8  A    between atoms: C_21  and  C_26
REMARK    9  A    between atoms: C_31  and  C_32
REMARK                            x       y       z     vdW  Elec       q    Type
REMARK                         _______ _______ _______ _____ _____    ______ ____
ROOT
ATOM      1  O   UNL     1      14.051   7.335  19.724  0.00  0.00    -0.336 OA
ATOM      6  N   UNL     1      15.365   7.053  21.515  0.00  0.00    -0.190 NA
ATOM      7  N   UNL     1      15.306   6.957  19.230  0.00  0.00    -0.056 NA
ATOM     15  C   UNL     1      14.173   7.369  21.076  0.00  0.00    +0.245 A 
ATOM     21  C   UNL     1      16.026   6.809  20.347  0.00  0.00    +0.204 A 
ENDROOT
BRANCH  21  26
ATOM      8  N   UNL     1      19.139   4.999  19.423  0.00  0.00    -0.239 NA
ATOM     26  C   UNL     1      17.407   6.420  20.329  0.00  0.00    +0.041 A 
ATOM     27  C   UNL     1      18.336   7.042  21.154  0.00  0.00    +0.016 A 
ATOM     28  C   UNL     1      17.854   5.413  19.489  0.00  0.00    +0.124 A 
ATOM     29  C   UNL     1      19.668   6.642  21.115  0.00  0.00    +0.044 A 
ATOM     30  C   UNL     1      20.015   5.626  20.240  0.00  0.00    +0.125 A 
BRANCH  30   9
ATOM      3  O   UNL     1      21.482   3.559  21.863  0.00  0.00    -0.273 OA
ATOM      9  N   UNL     1      21.358   5.232  20.209  0.00  0.00    -0.268 N 
ATOM     31  C   UNL     1      21.989   4.259  20.991  0.00  0.00    +0.244 C 
ATOM     34  H   UNL     1      21.926   5.727  19.525  0.00  0.00    +0.156 HD
BRANCH  31  32
ATOM     32  C   UNL     1      23.460   4.130  20.662  0.00  0.00    +0.255 C 
BRANCH  32   2
ATOM      2  O   UNL     1      24.029   3.144  21.498  0.00  0.00    -0.374 OA
ATOM     33  C   UNL     1      24.380   1.971  20.771  0.00  0.00    +0.194 C 
ENDBRANCH  32   2
ENDBRANCH  31  32
ENDBRANCH  30   9
ENDBRANCH  21  26
BRANCH  15  10
ATOM      4  N   UNL     1      12.455   9.113  21.525  0.00  0.00    -0.287 NA
ATOM     10  C   UNL     1      12.933   7.756  21.856  0.00  0.00    +0.146 C 
ATOM     11  C   UNL     1      11.734   6.836  21.561  0.00  0.00    +0.030 C 
ATOM     12  C   UNL     1      11.007   9.104  21.731  0.00  0.00    +0.085 C 
ATOM     13  C   UNL     1      10.614   7.770  21.128  0.00  0.00    +0.017 C 
BRANCH   4  14
ATOM     14  C   UNL     1      13.113  10.158  22.299  0.00  0.00    +0.122 C 
BRANCH  14  16
ATOM      5  N   UNL     1      11.491  13.343  21.425  0.00  0.00    -0.349 N 
ATOM     16  C   UNL     1      12.374  11.467  22.218  0.00  0.00    -0.008 A 
ATOM     17  C   UNL     1      11.705  12.130  23.285  0.00  0.00    +0.004 A 
ATOM     18  C   UNL     1      12.225  12.238  21.087  0.00  0.00    +0.091 A 
ATOM     19  C   UNL     1      11.160  13.304  22.761  0.00  0.00    +0.049 A 
ATOM     20  C   UNL     1      11.510  11.842  24.650  0.00  0.00    +0.010 A 
ATOM     22  C   UNL     1      10.427  14.208  23.537  0.00  0.00    +0.026 A 
ATOM     23  C   UNL     1      11.125  14.392  20.499  0.00  0.00    +0.149 C 
ATOM     24  C   UNL     1      10.779  12.738  25.438  0.00  0.00    +0.001 A 
ATOM     25  C   UNL     1      10.247  13.902  24.889  0.00  0.00    +0.002 A 
ENDBRANCH  14  16
ENDBRANCH   4  14
ENDBRANCH  15  10
TORSDOF 7
ENDMDL
MODEL 2
REMARK VINA RESULT:      -7.3      2.651      3.975
REMARK  Name = 45783645
REMARK  9 active torsions:
REMARK  status: ('A' for Active; 'I' for Inactive)
REMARK    1  A    between atoms: O_2  and  C_32
REMARK    2  A    between atoms: O_2  and  C_33
REMARK    3  A    between atoms: N_4  and  C_14
REMARK    4  A    between atoms: N_5  and  C_23
REMARK    5  A    between atoms: N_9  and  C_30
REMARK    6  A    between atoms: C_10  and  C_15
REMARK    7  A    between atoms: C_14  and  C_16
REMARK    8  A    between atoms: C_21  and  C_26
REMARK    9  A    between atoms: C_31  and  C_32
REMARK                            x       y       z     vdW  Elec       q    Type
REMARK                         _______ _______ _______ _____ _____    ______ ____
ROOT
ATOM      1  O   UNL     1      14.242   6.868  19.776  0.00  0.00    -0.336 OA
ATOM      6  N   UNL     1      15.594   7.362  21.492  0.00  0.00    -0.190 NA
ATOM      7  N   UNL     1      15.502   6.358  19.438  0.00  0.00    -0.056 NA
ATOM     15  C   UNL     1      14.384   7.443  20.999  0.00  0.00    +0.245 A 
ATOM     21  C   UNL     1      16.244   6.689  20.499  0.00  0.00    +0.204 A 
ENDROOT
BRANCH  21  26
ATOM      8  N   UNL     1      19.512   5.053  19.812  0.00  0.00    -0.239 NA
ATOM     26  C   UNL     1      17.638   6.362  20.598  0.00  0.00    +0.041 A 
ATOM     27  C   UNL     1      18.458   6.994  21.525  0.00  0.00    +0.016 A 
ATOM     28  C   UNL     1      18.208   5.407  19.771  0.00  0.00    +0.124 A 
ATOM     29  C   UNL     1      19.805   6.656  21.598  0.00  0.00    +0.044 A 
ATOM     30  C   UNL     1      20.279   5.688  20.727  0.00  0.00    +0.125 A 
BRANCH  30   9
ATOM      3  O   UNL     1      21.765   4.032  22.752  0.00  0.00    -0.273 OA
ATOM      9  N   UNL     1      21.636   5.356  20.808  0.00  0.00    -0.268 N 
ATOM     31  C   UNL     1      22.275   4.577  21.777  0.00  0.00    +0.244 C 
ATOM     34  H   UNL     1      22.208   5.738  20.059  0.00  0.00    +0.156 HD
BRANCH  31  32
ATOM     32  C   UNL     1      23.761   4.453  21.520  0.00  0.00    +0.255 C 
BRANCH  32   2
ATOM      2  O   UNL     1      23.973   4.308  20.132  0.00  0.00    -0.374 OA
ATOM     33  C   UNL     1      24.768   3.164  19.834  0.00  0.00    +0.194 C 
ENDBRANCH  32   2
ENDBRANCH  31  32
ENDBRANCH  30   9
ENDBRANCH  21  26
BRANCH  15  10
ATOM      4  N   UNL     1      12.590   9.150  20.746  0.00  0.00    -0.287 NA
ATOM     10  C   UNL     1      13.145   8.076  21.595  0.00  0.00    +0.146 C 
ATOM     11  C   UNL     1      11.988   7.074  21.763  0.00  0.00    +0.030 C 
ATOM     12  C   UNL     1      11.150   9.175  20.997  0.00  0.00    +0.085 C 
ATOM     13  C   UNL     1      10.811   7.697  21.026  0.00  0.00    +0.017 C 
BRANCH   4  14
ATOM     14  C   UNL     1      13.211  10.447  20.982  0.00  0.00    +0.122 C 
BRANCH  14  16
ATOM      5  N   UNL     1      15.658  11.849  18.619  0.00  0.00    -0.349 N 
ATOM     16  C   UNL     1      14.057  10.886  19.816  0.00  0.00    -0.008 A 
ATOM     17  C   UNL     1      13.848  10.556  18.448  0.00  0.00    +0.004 A 
ATOM     18  C   UNL     1      15.176  11.682  19.889  0.00  0.00    +0.091 A 
ATOM     19  C   UNL     1      14.866  11.173  17.718  0.00  0.00    +0.049 A 
ATOM     20  C   UNL     1      12.890   9.788  17.758  0.00  0.00    +0.010 A 
ATOM     22  C   UNL     1      14.974  11.060  16.327  0.00  0.00    +0.026 A 
ATOM     23  C   UNL     1      16.831  12.629  18.287  0.00  0.00    +0.149 C 
ATOM     24  C   UNL     1      12.984   9.667  16.367  0.00  0.00    +0.001 A 
ATOM     25  C   UNL     1      14.011  10.294  15.664  0.00  0.00    +0.002 A 
ENDBRANCH  14  16
ENDBRANCH   4  14
ENDBRANCH  15  10
TORSDOF 7
ENDMDL
MODEL 3
REMARK VINA RESULT:      -7.2     27.224     31.475
REMARK  Name = 45783645
REMARK  9 active torsions:
REMARK  status: ('A' for Active; 'I' for Inactive)
REMARK    1  A    between atoms: O_2  and  C_32
REMARK    2  A    between atoms: O_2  and  C_33
REMARK    3  A    between atoms: N_4  and  C_14
REMARK    4  A    between atoms: N_5  and  C_23
REMARK    5  A    between atoms: N_9  and  C_30
REMARK    6  A    between atoms: C_10  and  C_15
REMARK    7  A    between atoms: C_14  and  C_16
REMARK    8  A    between atoms: C_21  and  C_26
REMARK    9  A    between atoms: C_31  and  C_32
REMARK                            x       y       z     vdW  Elec       q    Type
REMARK                         _______ _______ _______ _____ _____    ______ ____
ROOT
ATOM      1  O   UNL     1      -5.370  -9.725  15.827  0.00  0.00    -0.336 OA
ATOM      6  N   UNL     1      -5.792 -11.344  17.316  0.00  0.00    -0.190 NA
ATOM      7  N   UNL     1      -6.606  -9.408  16.407  0.00  0.00    -0.056 NA
ATOM     15  C   UNL     1      -4.962 -10.878  16.417  0.00  0.00    +0.245 A 
ATOM     21  C   UNL     1      -6.786 -10.409  17.274  0.00  0.00    +0.204 A 
ENDROOT
BRANCH  21  26
ATOM      8  N   UNL     1      -8.994 -11.415  20.091  0.00  0.00    -0.239 NA
ATOM     26  C   UNL     1      -7.946 -10.505  18.112  0.00  0.00    +0.041 A 
ATOM     27  C   UNL     1      -9.114  -9.821  17.798  0.00  0.00    +0.016 A 
ATOM     28  C   UNL     1      -7.937 -11.282  19.260  0.00  0.00    +0.124 A 
ATOM     29  C   UNL     1     -10.224  -9.933  18.629  0.00  0.00    +0.044 A 
ATOM     30  C   UNL     1     -10.113 -10.736  19.753  0.00  0.00    +0.125 A 
BRANCH  30   9
ATOM      3  O   UNL     1     -12.658 -12.304  19.405  0.00  0.00    -0.273 OA
ATOM      9  N   UNL     1     -11.235 -10.842  20.584  0.00  0.00    -0.268 N 
ATOM     31  C   UNL     1     -12.397 -11.591  20.370  0.00  0.00    +0.244 C 
ATOM     34  H   UNL     1     -11.177 -10.299  21.442  0.00  0.00    +0.156 HD
BRANCH  31  32
ATOM     32  C   UNL     1     -13.390 -11.438  21.501  0.00  0.00    +0.255 C 
BRANCH  32   2
ATOM      2  O   UNL     1     -13.416 -12.635  22.250  0.00  0.00    -0.374 OA
ATOM     33  C   UNL     1     -13.819 -12.410  23.597  0.00  0.00    +0.194 C 
ENDBRANCH  32   2
ENDBRANCH  31  32
ENDBRANCH  30   9
ENDBRANCH  21  26
BRANCH  15  10
ATOM      4  N   UNL     1      -3.317 -11.075  14.560  0.00  0.00    -0.287 NA
ATOM     10  C   UNL     1      -3.632 -11.437  15.957  0.00  0.00    +0.146 C 
ATOM     11  C   UNL     1      -2.445 -10.899  16.778  0.00  0.00    +0.030 C 
ATOM     12  C   UNL     1      -1.859 -11.019  14.466  0.00  0.00    +0.085 C 
ATOM     13  C   UNL     1      -1.489 -10.307  15.753  0.00  0.00    +0.017 C 
BRANCH   4  14
ATOM     14  C   UNL     1      -3.895 -11.991  13.586  0.00  0.00    +0.122 C 
BRANCH  14  16
ATOM      5  N   UNL     1      -6.661 -10.570  11.620  0.00  0.00    -0.349 N 
ATOM     16  C   UNL     1      -4.818 -11.285  12.629  0.00  0.00    -0.008 A 
ATOM     17  C   UNL     1      -4.435 -10.436  11.554  0.00  0.00    +0.004 A 
ATOM     18  C   UNL     1      -6.193 -11.348  12.644  0.00  0.00    +0.091 A 
ATOM     19  C   UNL     1      -5.610 -10.000  10.937  0.00  0.00    +0.049 A 
ATOM     20  C   UNL     1      -3.198  -9.993  11.045  0.00  0.00    +0.010 A 
ATOM     22  C   UNL     1      -5.609  -9.142   9.832  0.00  0.00    +0.026 A 
ATOM     23  C   UNL     1      -8.062 -10.383  11.313  0.00  0.00    +0.149 C 
ATOM     24  C   UNL     1      -3.182  -9.135   9.940  0.00  0.00    +0.001 A 
ATOM     25  C   UNL     1      -4.371  -8.717   9.344  0.00  0.00    +0.002 A 
ENDBRANCH  14  16
ENDBRANCH   4  14
ENDBRANCH  15  10
TORSDOF 7
ENDMDL
MODEL 4
REMARK VINA RESULT:      -7.2     19.639     22.716
REMARK  Name = 45783645
REMARK  9 active torsions:
REMARK  status: ('A' for Active; 'I' for Inactive)
REMARK    1  A    between atoms: O_2  and  C_32
REMARK    2  A    between atoms: O_2  and  C_33
REMARK    3  A    between atoms: N_4  and  C_14
REMARK    4  A    between atoms: N_5  and  C_23
REMARK    5  A    between atoms: N_9  and  C_30
REMARK    6  A    between atoms: C_10  and  C_15
REMARK    7  A    between atoms: C_14  and  C_16
REMARK    8  A    between atoms: C_21  and  C_26
REMARK    9  A    between atoms: C_31  and  C_32
REMARK                            x       y       z     vdW  Elec       q    Type
REMARK                         _______ _______ _______ _____ _____    ______ ____
ROOT
ATOM      1  O   UNL     1      11.392   6.530  -1.028  0.00  0.00    -0.336 OA
ATOM      6  N   UNL     1      10.137   4.966  -0.031  0.00  0.00    -0.190 NA
ATOM      7  N   UNL     1      11.324   6.890   0.324  0.00  0.00    -0.056 NA
ATOM     15  C   UNL     1      10.667   5.388  -1.151  0.00  0.00    +0.245 A 
ATOM     21  C   UNL     1      10.567   5.919   0.846  0.00  0.00    +0.204 A 
ENDROOT
BRANCH  21  26
ATOM      8  N   UNL     1       9.191   6.942   4.145  0.00  0.00    -0.239 NA
ATOM     26  C   UNL     1      10.222   5.873   2.238  0.00  0.00    +0.041 A 
ATOM     27  C   UNL     1      10.555   4.775   3.022  0.00  0.00    +0.016 A 
ATOM     28  C   UNL     1       9.546   6.922   2.841  0.00  0.00    +0.124 A 
ATOM     29  C   UNL     1      10.208   4.760   4.369  0.00  0.00    +0.044 A 
ATOM     30  C   UNL     1       9.533   5.857   4.877  0.00  0.00    +0.125 A 
BRANCH  30   9
ATOM      3  O   UNL     1      10.773   7.257   7.235  0.00  0.00    -0.273 OA
ATOM      9  N   UNL     1       9.187   5.831   6.234  0.00  0.00    -0.268 N 
ATOM     31  C   UNL     1       9.803   6.506   7.292  0.00  0.00    +0.244 C 
ATOM     34  H   UNL     1       8.387   5.243   6.453  0.00  0.00    +0.156 HD
BRANCH  31  32
ATOM     32  C   UNL     1       9.138   6.214   8.619  0.00  0.00    +0.255 C 
BRANCH  32   2
ATOM      2  O   UNL     1       9.329   4.851   8.935  0.00  0.00    -0.374 OA
ATOM     33  C   UNL     1       8.989   4.567  10.288  0.00  0.00    +0.194 C 
ENDBRANCH  32   2
ENDBRANCH  31  32
ENDBRANCH  30   9
ENDBRANCH  21  26
BRANCH  15  10
ATOM      4  N   UNL     1      10.166   3.370  -2.520  0.00  0.00    -0.287 NA
ATOM     10  C   UNL     1      10.586   4.787  -2.538  0.00  0.00    +0.146 C 
ATOM     11  C   UNL     1       9.547   5.491  -3.431  0.00  0.00    +0.030 C 
ATOM     12  C   UNL     1       9.466   3.130  -3.781  0.00  0.00    +0.085 C 
ATOM     13  C   UNL     1       8.623   4.382  -3.915  0.00  0.00    +0.017 C 
BRANCH   4  14
ATOM     14  C   UNL     1      11.276   2.446  -2.323  0.00  0.00    +0.122 C 
BRANCH  14  16
ATOM      5  N   UNL     1      14.443   4.314  -2.442  0.00  0.00    -0.349 N 
ATOM     16  C   UNL     1      12.575   3.170  -2.088  0.00  0.00    -0.008 A 
ATOM     17  C   UNL     1      13.220   3.366  -0.835  0.00  0.00    +0.004 A 
ATOM     18  C   UNL     1      13.351   3.764  -3.057  0.00  0.00    +0.091 A 
ATOM     19  C   UNL     1      14.390   4.086  -1.085  0.00  0.00    +0.049 A 
ATOM     20  C   UNL     1      12.920   3.000   0.492  0.00  0.00    +0.010 A 
ATOM     22  C   UNL     1      15.279   4.459  -0.071  0.00  0.00    +0.026 A 
ATOM     23  C   UNL     1      15.494   5.029  -3.134  0.00  0.00    +0.149 C 
ATOM     24  C   UNL     1      13.800   3.365   1.516  0.00  0.00    +0.001 A 
ATOM     25  C   UNL     1      14.961   4.084   1.238  0.00  0.00    +0.002 A 
ENDBRANCH  14  16
ENDBRANCH   4  14
ENDBRANCH  15  10
TORSDOF 7
ENDMDL
MODEL 5
REMARK VINA RESULT:      -7.1      1.874      2.756
REMARK  Name = 45783645
REMARK  9 active torsions:
REMARK  status: ('A' for Active; 'I' for Inactive)
REMARK    1  A    between atoms: O_2  and  C_32
REMARK    2  A    between atoms: O_2  and  C_33
REMARK    3  A    between atoms: N_4  and  C_14
REMARK    4  A    between atoms: N_5  and  C_23
REMARK    5  A    between atoms: N_9  and  C_30
REMARK    6  A    between atoms: C_10  and  C_15
REMARK    7  A    between atoms: C_14  and  C_16
REMARK    8  A    between atoms: C_21  and  C_26
REMARK    9  A    between atoms: C_31  and  C_32
REMARK                            x       y       z     vdW  Elec       q    Type
REMARK                         _______ _______ _______ _____ _____    ______ ____
ROOT
ATOM      1  O   UNL     1      15.576   6.251  18.591  0.00  0.00    -0.336 OA
ATOM      6  N   UNL     1      16.371   7.114  20.499  0.00  0.00    -0.190 NA
ATOM      7  N   UNL     1      16.872   5.739  18.740  0.00  0.00    -0.056 NA
ATOM     15  C   UNL     1      15.361   7.051  19.668  0.00  0.00    +0.245 A 
ATOM     21  C   UNL     1      17.274   6.294  19.888  0.00  0.00    +0.204 A 
ENDROOT
BRANCH  21  26
ATOM      8  N   UNL     1      20.622   4.771  20.431  0.00  0.00    -0.239 NA
ATOM     26  C   UNL     1      18.571   6.050  20.450  0.00  0.00    +0.041 A 
ATOM     27  C   UNL     1      19.044   6.808  21.514  0.00  0.00    +0.016 A 
ATOM     28  C   UNL     1      19.391   5.052  19.948  0.00  0.00    +0.124 A 
ATOM     29  C   UNL     1      20.306   6.548  22.039  0.00  0.00    +0.044 A 
ATOM     30  C   UNL     1      21.048   5.528  21.467  0.00  0.00    +0.125 A 
BRANCH  30   9
ATOM      3  O   UNL     1      22.010   3.292  23.236  0.00  0.00    -0.273 OA
ATOM      9  N   UNL     1      22.317   5.275  22.002  0.00  0.00    -0.268 N 
ATOM     31  C   UNL     1      22.709   4.213  22.823  0.00  0.00    +0.244 C 
ATOM     34  H   UNL     1      23.025   5.960  21.749  0.00  0.00    +0.156 HD
BRANCH  31  32
ATOM     32  C   UNL     1      24.172   4.295  23.201  0.00  0.00    +0.255 C 
BRANCH  32   2
ATOM      2  O   UNL     1      24.954   4.060  22.049  0.00  0.00    -0.374 OA
ATOM     33  C   UNL     1      26.055   4.959  21.963  0.00  0.00    +0.194 C 
ENDBRANCH  32   2
ENDBRANCH  31  32
ENDBRANCH  30   9
ENDBRANCH  21  26
BRANCH  15  10
ATOM      4  N   UNL     1      14.002   9.050  19.075  0.00  0.00    -0.287 NA
ATOM     10  C   UNL     1      14.011   7.732  19.743  0.00  0.00    +0.146 C 
ATOM     11  C   UNL     1      12.901   6.930  19.040  0.00  0.00    +0.030 C 
ATOM     12  C   UNL     1      12.637   9.261  18.595  0.00  0.00    +0.085 C 
ATOM     13  C   UNL     1      12.286   7.896  18.037  0.00  0.00    +0.017 C 
BRANCH   4  14
ATOM     14  C   UNL     1      14.455  10.134  19.937  0.00  0.00    +0.122 C 
BRANCH  14  16
ATOM      5  N   UNL     1      11.753  10.913  22.310  0.00  0.00    -0.349 N 
ATOM     16  C   UNL     1      13.332  10.700  20.765  0.00  0.00    -0.008 A 
ATOM     17  C   UNL     1      12.714  11.971  20.597  0.00  0.00    +0.004 A 
ATOM     18  C   UNL     1      12.719  10.073  21.825  0.00  0.00    +0.091 A 
ATOM     19  C   UNL     1      11.727  12.079  21.579  0.00  0.00    +0.049 A 
ATOM     20  C   UNL     1      12.901  13.043  19.702  0.00  0.00    +0.010 A 
ATOM     22  C   UNL     1      10.914  13.211  21.711  0.00  0.00    +0.026 A 
ATOM     23  C   UNL     1      10.891  10.604  23.430  0.00  0.00    +0.149 C 
ATOM     24  C   UNL     1      12.096  14.180  19.822  0.00  0.00    +0.001 A 
ATOM     25  C   UNL     1      11.118  14.261  20.812  0.00  0.00    +0.002 A 
ENDBRANCH  14  16
ENDBRANCH   4  14
ENDBRANCH  15  10
TORSDOF 7
ENDMDL
MODEL 6
REMARK VINA RESULT:      -7.0     28.072     30.676
REMARK  Name = 45783645
REMARK  9 active torsions:
REMARK  status: ('A' for Active; 'I' for Inactive)
REMARK    1  A    between atoms: O_2  and  C_32
REMARK    2  A    between atoms: O_2  and  C_33
REMARK    3  A    between atoms: N_4  and  C_14
REMARK    4  A    between atoms: N_5  and  C_23
REMARK    5  A    between atoms: N_9  and  C_30
REMARK    6  A    between atoms: C_10  and  C_15
REMARK    7  A    between atoms: C_14  and  C_16
REMARK    8  A    between atoms: C_21  and  C_26
REMARK    9  A    between atoms: C_31  and  C_32
REMARK                            x       y       z     vdW  Elec       q    Type
REMARK                         _______ _______ _______ _____ _____    ______ ____
ROOT
ATOM      1  O   UNL     1      -2.188  -9.960  11.409  0.00  0.00    -0.336 OA
ATOM      6  N   UNL     1      -4.222 -10.896  11.333  0.00  0.00    -0.190 NA
ATOM      7  N   UNL     1      -2.888  -9.289  10.397  0.00  0.00    -0.056 NA
ATOM     15  C   UNL     1      -3.045 -10.890  11.906  0.00  0.00    +0.245 A 
ATOM     21  C   UNL     1      -4.078  -9.898  10.414  0.00  0.00    +0.204 A 
ENDROOT
BRANCH  21  26
ATOM      8  N   UNL     1      -6.585 -10.127   7.677  0.00  0.00    -0.239 NA
ATOM     26  C   UNL     1      -5.144  -9.534   9.525  0.00  0.00    +0.041 A 
ATOM     27  C   UNL     1      -5.764  -8.293   9.621  0.00  0.00    +0.016 A 
ATOM     28  C   UNL     1      -5.588 -10.407   8.545  0.00  0.00    +0.124 A 
ATOM     29  C   UNL     1      -6.794  -7.968   8.745  0.00  0.00    +0.044 A 
ATOM     30  C   UNL     1      -7.164  -8.911   7.800  0.00  0.00    +0.125 A 
BRANCH  30   9
ATOM      3  O   UNL     1      -7.088  -8.107   4.901  0.00  0.00    -0.273 OA
ATOM      9  N   UNL     1      -8.202  -8.573   6.924  0.00  0.00    -0.268 N 
ATOM     31  C   UNL     1      -8.107  -8.206   5.578  0.00  0.00    +0.244 C 
ATOM     34  H   UNL     1      -9.130  -8.606   7.338  0.00  0.00    +0.156 HD
BRANCH  31  32
ATOM     32  C   UNL     1      -9.461  -7.907   4.972  0.00  0.00    +0.255 C 
BRANCH  32   2
ATOM      2  O   UNL     1      -9.307  -6.921   3.974  0.00  0.00    -0.374 OA
ATOM     33  C   UNL     1     -10.476  -6.793   3.170  0.00  0.00    +0.194 C 
ENDBRANCH  32   2
ENDBRANCH  31  32
ENDBRANCH  30   9
ENDBRANCH  21  26
BRANCH  15  10
ATOM      4  N   UNL     1      -3.450 -11.834  14.173  0.00  0.00    -0.287 NA
ATOM     10  C   UNL     1      -2.519 -11.759  13.029  0.00  0.00    +0.146 C 
ATOM     11  C   UNL     1      -2.308 -13.223  12.599  0.00  0.00    +0.030 C 
ATOM     12  C   UNL     1      -3.231 -13.137  14.800  0.00  0.00    +0.085 C 
ATOM     13  C   UNL     1      -3.110 -14.049  13.595  0.00  0.00    +0.017 C 
BRANCH   4  14
ATOM     14  C   UNL     1      -3.288 -10.736  15.118  0.00  0.00    +0.122 C 
BRANCH  14  16
ATOM      5  N   UNL     1      -6.569  -9.847  16.525  0.00  0.00    -0.349 N 
ATOM     16  C   UNL     1      -4.535 -10.505  15.929  0.00  0.00    -0.008 A 
ATOM     17  C   UNL     1      -4.765 -10.927  17.268  0.00  0.00    +0.004 A 
ATOM     18  C   UNL     1      -5.663  -9.843  15.499  0.00  0.00    +0.091 A 
ATOM     19  C   UNL     1      -6.048 -10.502  17.618  0.00  0.00    +0.049 A 
ATOM     20  C   UNL     1      -4.002 -11.634  18.219  0.00  0.00    +0.010 A 
ATOM     22  C   UNL     1      -6.609 -10.748  18.876  0.00  0.00    +0.026 A 
ATOM     23  C   UNL     1      -7.883  -9.244  16.454  0.00  0.00    +0.149 C 
ATOM     24  C   UNL     1      -4.550 -11.887  19.482  0.00  0.00    +0.001 A 
ATOM     25  C   UNL     1      -5.833 -11.450  19.803  0.00  0.00    +0.002 A 
ENDBRANCH  14  16
ENDBRANCH   4  14
ENDBRANCH  15  10
TORSDOF 7
ENDMDL
MODEL 7
REMARK VINA RESULT:      -7.0      4.256     10.288
REMARK  Name = 45783645
REMARK  9 active torsions:
REMARK  status: ('A' for Active; 'I' for Inactive)
REMARK    1  A    between atoms: O_2  and  C_32
REMARK    2  A    between atoms: O_2  and  C_33
REMARK    3  A    between atoms: N_4  and  C_14
REMARK    4  A    between atoms: N_5  and  C_23
REMARK    5  A    between atoms: N_9  and  C_30
REMARK    6  A    between atoms: C_10  and  C_15
REMARK    7  A    between atoms: C_14  and  C_16
REMARK    8  A    between atoms: C_21  and  C_26
REMARK    9  A    between atoms: C_31  and  C_32
REMARK                            x       y       z     vdW  Elec       q    Type
REMARK                         _______ _______ _______ _____ _____    ______ ____
ROOT
ATOM      1  O   UNL     1      20.301   6.184  22.185  0.00  0.00    -0.336 OA
ATOM      6  N   UNL     1      19.497   5.728  20.145  0.00  0.00    -0.190 NA
ATOM      7  N   UNL     1      19.053   6.817  22.108  0.00  0.00    -0.056 NA
ATOM     15  C   UNL     1      20.485   5.568  20.989  0.00  0.00    +0.245 A 
ATOM     21  C   UNL     1      18.642   6.501  20.876  0.00  0.00    +0.204 A 
ENDROOT
BRANCH  21  26
ATOM      8  N   UNL     1      15.585   8.555  20.370  0.00  0.00    -0.239 NA
ATOM     26  C   UNL     1      17.384   6.942  20.345  0.00  0.00    +0.041 A 
ATOM     27  C   UNL     1      16.747   6.234  19.332  0.00  0.00    +0.016 A 
ATOM     28  C   UNL     1      16.768   8.085  20.826  0.00  0.00    +0.124 A 
ATOM     29  C   UNL     1      15.528   6.686  18.837  0.00  0.00    +0.044 A 
ATOM     30  C   UNL     1      14.994   7.841  19.385  0.00  0.00    +0.125 A 
BRANCH  30   9
ATOM      3  O   UNL     1      12.272   6.560  19.456  0.00  0.00    -0.273 OA
ATOM      9  N   UNL     1      13.767   8.287  18.880  0.00  0.00    -0.268 N 
ATOM     31  C   UNL     1      12.526   7.646  18.942  0.00  0.00    +0.244 C 
ATOM     34  H   UNL     1      13.807   9.191  18.415  0.00  0.00    +0.156 HD
BRANCH  31  32
ATOM     32  C   UNL     1      11.435   8.451  18.270  0.00  0.00    +0.255 C 
BRANCH  32   2
ATOM      2  O   UNL     1      11.189   7.907  16.991  0.00  0.00    -0.374 OA
ATOM     33  C   UNL     1      10.781   8.905  16.060  0.00  0.00    +0.194 C 
ENDBRANCH  32   2
ENDBRANCH  31  32
ENDBRANCH  30   9
ENDBRANCH  21  26
BRANCH  15  10
ATOM      4  N   UNL     1      22.884   5.365  21.622  0.00  0.00    -0.287 NA
ATOM     10  C   UNL     1      21.780   4.802  20.817  0.00  0.00    +0.146 C 
ATOM     11  C   UNL     1      21.669   3.337  21.277  0.00  0.00    +0.030 C 
ATOM     12  C   UNL     1      23.773   4.249  21.942  0.00  0.00    +0.085 C 
ATOM     13  C   UNL     1      22.787   3.153  22.294  0.00  0.00    +0.017 C 
BRANCH   4  14
ATOM     14  C   UNL     1      23.586   6.452  20.951  0.00  0.00    +0.122 C 
BRANCH  14  16
ATOM      5  N   UNL     1      24.111   9.245  23.287  0.00  0.00    -0.349 N 
ATOM     16  C   UNL     1      23.579   7.715  21.771  0.00  0.00    -0.008 A 
ATOM     17  C   UNL     1      22.689   8.815  21.623  0.00  0.00    +0.004 A 
ATOM     18  C   UNL     1      24.441   8.009  22.803  0.00  0.00    +0.091 A 
ATOM     19  C   UNL     1      23.044   9.762  22.586  0.00  0.00    +0.049 A 
ATOM     20  C   UNL     1      21.613   9.099  20.758  0.00  0.00    +0.010 A 
ATOM     22  C   UNL     1      22.374  10.982  22.729  0.00  0.00    +0.026 A 
ATOM     23  C   UNL     1      24.794   9.901  24.381  0.00  0.00    +0.149 C 
ATOM     24  C   UNL     1      20.934  10.314  20.890  0.00  0.00    +0.001 A 
ATOM     25  C   UNL     1      21.310  11.240  21.861  0.00  0.00    +0.002 A 
ENDBRANCH  14  16
ENDBRANCH   4  14
ENDBRANCH  15  10
TORSDOF 7
ENDMDL
MODEL 8
REMARK VINA RESULT:      -6.9      3.289      4.322
REMARK  Name = 45783645
REMARK  9 active torsions:
REMARK  status: ('A' for Active; 'I' for Inactive)
REMARK    1  A    between atoms: O_2  and  C_32
REMARK    2  A    between atoms: O_2  and  C_33
REMARK    3  A    between atoms: N_4  and  C_14
REMARK    4  A    between atoms: N_5  and  C_23
REMARK    5  A    between atoms: N_9  and  C_30
REMARK    6  A    between atoms: C_10  and  C_15
REMARK    7  A    between atoms: C_14  and  C_16
REMARK    8  A    between atoms: C_21  and  C_26
REMARK    9  A    between atoms: C_31  and  C_32
REMARK                            x       y       z     vdW  Elec       q    Type
REMARK                         _______ _______ _______ _____ _____    ______ ____
ROOT
ATOM      1  O   UNL     1      15.521   6.281  18.756  0.00  0.00    -0.336 OA
ATOM      6  N   UNL     1      16.362   7.015  20.697  0.00  0.00    -0.190 NA
ATOM      7  N   UNL     1      16.829   5.785  18.825  0.00  0.00    -0.056 NA
ATOM     15  C   UNL     1      15.327   6.994  19.896  0.00  0.00    +0.245 A 
ATOM     21  C   UNL     1      17.259   6.261  19.999  0.00  0.00    +0.204 A 
ENDROOT
BRANCH  21  26
ATOM      8  N   UNL     1      20.626   4.726  20.358  0.00  0.00    -0.239 NA
ATOM     26  C   UNL     1      18.578   6.001  20.500  0.00  0.00    +0.041 A 
ATOM     27  C   UNL     1      19.093   6.727  21.568  0.00  0.00    +0.016 A 
ATOM     28  C   UNL     1      19.377   5.020  19.935  0.00  0.00    +0.124 A 
ATOM     29  C   UNL     1      20.375   6.452  22.032  0.00  0.00    +0.044 A 
ATOM     30  C   UNL     1      21.094   5.452  21.399  0.00  0.00    +0.125 A 
BRANCH  30   9
ATOM      3  O   UNL     1      22.066   3.364  23.336  0.00  0.00    -0.273 OA
ATOM      9  N   UNL     1      22.383   5.184  21.874  0.00  0.00    -0.268 N 
ATOM     31  C   UNL     1      22.779   4.194  22.779  0.00  0.00    +0.244 C 
ATOM     34  H   UNL     1      23.105   5.796  21.502  0.00  0.00    +0.156 HD
BRANCH  31  32
ATOM     32  C   UNL     1      24.268   4.230  23.049  0.00  0.00    +0.255 C 
BRANCH  32   2
ATOM      2  O   UNL     1      24.957   4.034  21.832  0.00  0.00    -0.374 OA
ATOM     33  C   UNL     1      25.027   2.656  21.479  0.00  0.00    +0.194 C 
ENDBRANCH  32   2
ENDBRANCH  31  32
ENDBRANCH  30   9
ENDBRANCH  21  26
BRANCH  15  10
ATOM      4  N   UNL     1      13.934   9.029  19.558  0.00  0.00    -0.287 NA
ATOM     10  C   UNL     1      13.969   7.641  20.064  0.00  0.00    +0.146 C 
ATOM     11  C   UNL     1      12.862   6.912  19.281  0.00  0.00    +0.030 C 
ATOM     12  C   UNL     1      12.561   9.275  19.120  0.00  0.00    +0.085 C 
ATOM     13  C   UNL     1      12.223   7.981  18.406  0.00  0.00    +0.017 C 
BRANCH   4  14
ATOM     14  C   UNL     1      14.381  10.009  20.539  0.00  0.00    +0.122 C 
BRANCH  14  16
ATOM      5  N   UNL     1      16.557  12.415  18.803  0.00  0.00    -0.349 N 
ATOM     16  C   UNL     1      15.478  10.886  19.996  0.00  0.00    -0.008 A 
ATOM     17  C   UNL     1      16.841  10.889  20.406  0.00  0.00    +0.004 A 
ATOM     18  C   UNL     1      15.335  11.834  19.009  0.00  0.00    +0.091 A 
ATOM     19  C   UNL     1      17.496  11.857  19.642  0.00  0.00    +0.049 A 
ATOM     20  C   UNL     1      17.582  10.160  21.357  0.00  0.00    +0.010 A 
ATOM     22  C   UNL     1      18.861  12.133  19.781  0.00  0.00    +0.026 A 
ATOM     23  C   UNL     1      16.810  13.462  17.837  0.00  0.00    +0.149 C 
ATOM     24  C   UNL     1      18.947  10.425  21.507  0.00  0.00    +0.001 A 
ATOM     25  C   UNL     1      19.576  11.396  20.730  0.00  0.00    +0.002 A 
ENDBRANCH  14  16
ENDBRANCH   4  14
ENDBRANCH  15  10
TORSDOF 7
ENDMDL
MODEL 9
REMARK VINA RESULT:      -6.9     27.035     30.319
REMARK  Name = 45783645
REMARK  9 active torsions:
REMARK  status: ('A' for Active; 'I' for Inactive)
REMARK    1  A    between atoms: O_2  and  C_32
REMARK    2  A    between atoms: O_2  and  C_33
REMARK    3  A    between atoms: N_4  and  C_14
REMARK    4  A    between atoms: N_5  and  C_23
REMARK    5  A    between atoms: N_9  and  C_30
REMARK    6  A    between atoms: C_10  and  C_15
REMARK    7  A    between atoms: C_14  and  C_16
REMARK    8  A    between atoms: C_21  and  C_26
REMARK    9  A    between atoms: C_31  and  C_32
REMARK                            x       y       z     vdW  Elec       q    Type
REMARK                         _______ _______ _______ _____ _____    ______ ____
ROOT
ATOM      1  O   UNL     1     -12.663  10.167  19.286  0.00  0.00    -0.336 OA
ATOM      6  N   UNL     1     -11.793   8.134  19.640  0.00  0.00    -0.190 NA
ATOM      7  N   UNL     1     -13.450   9.574  20.282  0.00  0.00    -0.056 NA
ATOM     15  C   UNL     1     -11.712   9.252  18.963  0.00  0.00    +0.245 A 
ATOM     21  C   UNL     1     -12.874   8.378  20.435  0.00  0.00    +0.204 A 
ENDROOT
BRANCH  21  26
ATOM      8  N   UNL     1     -14.912   6.820  23.127  0.00  0.00    -0.239 NA
ATOM     26  C   UNL     1     -13.354   7.404  21.373  0.00  0.00    +0.041 A 
ATOM     27  C   UNL     1     -12.773   6.145  21.458  0.00  0.00    +0.016 A 
ATOM     28  C   UNL     1     -14.412   7.691  22.221  0.00  0.00    +0.124 A 
ATOM     29  C   UNL     1     -13.260   5.222  22.378  0.00  0.00    +0.044 A 
ATOM     30  C   UNL     1     -14.321   5.605  23.182  0.00  0.00    +0.125 A 
BRANCH  30   9
ATOM      3  O   UNL     1     -16.262   3.334  22.823  0.00  0.00    -0.273 OA
ATOM      9  N   UNL     1     -14.804   4.669  24.104  0.00  0.00    -0.268 N 
ATOM     31  C   UNL     1     -15.711   3.628  23.879  0.00  0.00    +0.244 C 
ATOM     34  H   UNL     1     -14.437   4.778  25.046  0.00  0.00    +0.156 HD
BRANCH  31  32
ATOM     32  C   UNL     1     -15.989   2.834  25.137  0.00  0.00    +0.255 C 
BRANCH  32   2
ATOM      2  O   UNL     1     -16.340   1.515  24.775  0.00  0.00    -0.374 OA
ATOM     33  C   UNL     1     -17.384   1.000  25.597  0.00  0.00    +0.194 C 
ENDBRANCH  32   2
ENDBRANCH  31  32
ENDBRANCH  30   9
ENDBRANCH  21  26
BRANCH  15  10
ATOM      4  N   UNL     1     -11.336   9.750  16.554  0.00  0.00    -0.287 NA
ATOM     10  C   UNL     1     -10.720   9.658  17.894  0.00  0.00    +0.146 C 
ATOM     11  C   UNL     1     -10.116  11.053  18.143  0.00  0.00    +0.030 C 
ATOM     12  C   UNL     1     -10.576  10.760  15.818  0.00  0.00    +0.085 C 
ATOM     13  C   UNL     1     -10.388  11.837  16.867  0.00  0.00    +0.017 C 
BRANCH   4  14
ATOM     14  C   UNL     1     -11.376   8.473  15.852  0.00  0.00    +0.122 C 
BRANCH  14  16
ATOM      5  N   UNL     1     -14.120   8.048  13.439  0.00  0.00    -0.349 N 
ATOM     16  C   UNL     1     -12.665   8.288  15.098  0.00  0.00    -0.008 A 
ATOM     17  C   UNL     1     -13.964   8.146  15.662  0.00  0.00    +0.004 A 
ATOM     18  C   UNL     1     -12.794   8.224  13.729  0.00  0.00    +0.091 A 
ATOM     19  C   UNL     1     -14.858   7.997  14.600  0.00  0.00    +0.049 A 
ATOM     20  C   UNL     1     -14.466   8.128  16.978  0.00  0.00    +0.010 A 
ATOM     22  C   UNL     1     -16.235   7.832  14.789  0.00  0.00    +0.026 A 
ATOM     23  C   UNL     1     -14.653   7.935  12.099  0.00  0.00    +0.149 C 
ATOM     24  C   UNL     1     -15.840   7.964  17.183  0.00  0.00    +0.001 A 
ATOM     25  C   UNL     1     -16.709   7.818  16.104  0.00  0.00    +0.002 A 
ENDBRANCH  14  16
ENDBRANCH   4  14
ENDBRANCH  15  10
TORSDOF 7
ENDMDL
MODEL 10
REMARK VINA RESULT:      -6.8     27.014     31.107
REMARK  Name = 45783645
REMARK  9 active torsions:
REMARK  status: ('A' for Active; 'I' for Inactive)
REMARK    1  A    between atoms: O_2  and  C_32
REMARK    2  A    between atoms: O_2  and  C_33
REMARK    3  A    between atoms: N_4  and  C_14
REMARK    4  A    between atoms: N_5  and  C_23
REMARK    5  A    between atoms: N_9  and  C_30
REMARK    6  A    between atoms: C_10  and  C_15
REMARK    7  A    between atoms: C_14  and  C_16
REMARK    8  A    between atoms: C_21  and  C_26
REMARK    9  A    between atoms: C_31  and  C_32
REMARK                            x       y       z     vdW  Elec       q    Type
REMARK                         _______ _______ _______ _____ _____    ______ ____
ROOT
ATOM      1  O   UNL     1      -4.767 -10.903  17.797  0.00  0.00    -0.336 OA
ATOM      6  N   UNL     1      -5.734 -10.425  15.834  0.00  0.00    -0.190 NA
ATOM      7  N   UNL     1      -6.032 -10.385  18.103  0.00  0.00    -0.056 NA
ATOM     15  C   UNL     1      -4.672 -10.891  16.442  0.00  0.00    +0.245 A 
ATOM     21  C   UNL     1      -6.541 -10.127  16.894  0.00  0.00    +0.204 A 
ENDROOT
BRANCH  21  26
ATOM      8  N   UNL     1      -9.590  -8.839  15.200  0.00  0.00    -0.239 NA
ATOM     26  C   UNL     1      -7.852  -9.572  16.710  0.00  0.00    +0.041 A 
ATOM     27  C   UNL     1      -8.644  -9.233  17.801  0.00  0.00    +0.016 A 
ATOM     28  C   UNL     1      -8.365  -9.358  15.442  0.00  0.00    +0.124 A 
ATOM     29  C   UNL     1      -9.910  -8.696  17.592  0.00  0.00    +0.044 A 
ATOM     30  C   UNL     1     -10.332  -8.521  16.284  0.00  0.00    +0.125 A 
BRANCH  30   9
ATOM      3  O   UNL     1     -11.172  -5.748  15.472  0.00  0.00    -0.273 OA
ATOM      9  N   UNL     1     -11.608  -7.980  16.085  0.00  0.00    -0.268 N 
ATOM     31  C   UNL     1     -11.941  -6.676  15.705  0.00  0.00    +0.244 C 
ATOM     34  H   UNL     1     -12.372  -8.633  16.241  0.00  0.00    +0.156 HD
BRANCH  31  32
ATOM     32  C   UNL     1     -13.437  -6.476  15.602  0.00  0.00    +0.255 C 
BRANCH  32   2
ATOM      2  O   UNL     1     -14.086  -7.628  16.099  0.00  0.00    -0.374 OA
ATOM     33  C   UNL     1     -15.437  -7.361  16.461  0.00  0.00    +0.194 C 
ENDBRANCH  32   2
ENDBRANCH  31  32
ENDBRANCH  30   9
ENDBRANCH  21  26
BRANCH  15  10
ATOM      4  N   UNL     1      -3.231 -11.074  14.420  0.00  0.00    -0.287 NA
ATOM     10  C   UNL     1      -3.379 -11.410  15.851  0.00  0.00    +0.146 C 
ATOM     11  C   UNL     1      -2.133 -10.806  16.525  0.00  0.00    +0.030 C 
ATOM     12  C   UNL     1      -1.795 -10.965  14.167  0.00  0.00    +0.085 C 
ATOM     13  C   UNL     1      -1.318 -10.206  15.389  0.00  0.00    +0.017 C 
BRANCH   4  14
ATOM     14  C   UNL     1      -3.874 -12.037  13.536  0.00  0.00    +0.122 C 
BRANCH  14  16
ATOM      5  N   UNL     1      -6.647 -10.732  11.500  0.00  0.00    -0.349 N 
ATOM     16  C   UNL     1      -4.802 -11.367  12.557  0.00  0.00    -0.008 A 
ATOM     17  C   UNL     1      -4.429 -10.495  11.497  0.00  0.00    +0.004 A 
ATOM     18  C   UNL     1      -6.172 -11.494  12.533  0.00  0.00    +0.091 A 
ATOM     19  C   UNL     1      -5.605 -10.111  10.849  0.00  0.00    +0.049 A 
ATOM     20  C   UNL     1      -3.200  -9.992  11.025  0.00  0.00    +0.010 A 
ATOM     22  C   UNL     1      -5.613  -9.246   9.749  0.00  0.00    +0.026 A 
ATOM     23  C   UNL     1      -8.047 -10.609  11.154  0.00  0.00    +0.149 C 
ATOM     24  C   UNL     1      -3.193  -9.128   9.925  0.00  0.00    +0.001 A 
ATOM     25  C   UNL     1      -4.382  -8.761   9.298  0.00  0.00    +0.002 A 
ENDBRANCH  14  16
ENDBRANCH   4  14
ENDBRANCH  15  10
TORSDOF 7
ENDMDL
