MODEL 1
REMARK VINA RESULT:      -7.8      0.000      0.000
REMARK  Name = 26745086
REMARK  9 active torsions:
REMARK  status: ('A' for Active; 'I' for Inactive)
REMARK    1  A    between atoms: O_3  and  C_24
REMARK    2  A    between atoms: C_11  and  C_13
REMARK    3  A    between atoms: C_11  and  C_19
REMARK    4  A    between atoms: C_11  and  C_20
REMARK    5  A    between atoms: C_11  and  C_21
REMARK    6  A    between atoms: C_12  and  C_22
REMARK    7  A    between atoms: C_13  and  C_16
REMARK    8  A    between atoms: C_19  and  C_24
REMARK    9  A    between atoms: C_25  and  C_26
REMARK                            x       y       z     vdW  Elec       q    Type
REMARK                         _______ _______ _______ _____ _____    ______ ____
ROOT
ATOM      1  O   UNL     1      12.939   7.261  21.825  0.00  0.00    -0.276 OA
ATOM      5  N   UNL     1      13.964   8.324  20.021  0.00  0.00    -0.284 N 
ATOM      6  N   UNL     1      14.421  10.431  16.977  0.00  0.00    -0.347 N 
ATOM      7  N   UNL     1      13.928   8.554  15.870  0.00  0.00    -0.240 NA
ATOM     12  C   UNL     1      14.287   7.027  19.334  0.00  0.00    +0.171 C 
ATOM     14  C   UNL     1      13.751   7.010  17.870  0.00  0.00    +0.089 C 
ATOM     15  C   UNL     1      14.432   9.585  19.380  0.00  0.00    +0.163 C 
ATOM     16  C   UNL     1      13.335   8.291  21.274  0.00  0.00    +0.217 C 
ATOM     17  C   UNL     1      14.280   9.456  17.918  0.00  0.00    +0.056 A 
ATOM     18  C   UNL     1      13.982   8.316  17.214  0.00  0.00    +0.066 A 
ATOM     23  C   UNL     1      14.198   9.839  15.759  0.00  0.00    +0.197 A 
ATOM     31  H   UNL     1      14.646  11.405  17.140  0.00  0.00    +0.167 HD
ENDROOT
BRANCH  12  22
ATOM      2  O   UNL     1      16.320   5.884  18.566  0.00  0.00    -0.336 OA
ATOM      8  N   UNL     1      16.578   7.003  20.489  0.00  0.00    -0.190 NA
ATOM      9  N   UNL     1      17.652   5.691  18.953  0.00  0.00    -0.056 NA
ATOM     22  C   UNL     1      15.759   6.667  19.524  0.00  0.00    +0.249 A 
ATOM     25  C   UNL     1      17.727   6.381  20.095  0.00  0.00    +0.202 A 
BRANCH  25  26
ATOM     10  N   UNL     1      21.285   6.647  22.366  0.00  0.00    -0.263 NA
ATOM     26  C   UNL     1      18.933   6.471  20.864  0.00  0.00    +0.025 A 
ATOM     27  C   UNL     1      19.039   7.405  21.890  0.00  0.00    +0.031 A 
ATOM     28  C   UNL     1      20.002   5.625  20.589  0.00  0.00    +0.031 A 
ATOM     29  C   UNL     1      20.226   7.452  22.604  0.00  0.00    +0.111 A 
ATOM     30  C   UNL     1      21.145   5.752  21.362  0.00  0.00    +0.111 A 
ENDBRANCH  25  26
ENDBRANCH  12  22
BRANCH  16  13
ATOM     13  C   UNL     1      13.143   9.617  21.967  0.00  0.00    +0.103 C 
BRANCH  13  11
ATOM     11  C   UNL     1      11.705  10.156  21.839  0.00  0.00    -0.017 C 
ATOM     20  C   UNL     1      10.987   9.326  20.754  0.00  0.00    +0.012 C 
ATOM     21  C   UNL     1      11.730  11.624  21.362  0.00  0.00    +0.012 C 
BRANCH  11  19
ATOM     19  C   UNL     1      10.916  10.097  23.169  0.00  0.00    +0.127 C 
BRANCH  19  24
ATOM      4  O   UNL     1      12.144  11.516  24.697  0.00  0.00    -0.251 OA
ATOM     24  C   UNL     1      11.114  11.292  24.075  0.00  0.00    +0.305 C 
BRANCH  24   3
ATOM      3  O   UNL     1      10.022  12.093  24.138  0.00  0.00    -0.481 OA
ATOM     32  H   UNL     1       9.833  12.522  23.277  0.00  0.00    +0.295 HD
ENDBRANCH  24   3
ENDBRANCH  19  24
ENDBRANCH  11  19
ENDBRANCH  13  11
ENDBRANCH  16  13
TORSDOF 7
ENDMDL
MODEL 2
REMARK VINA RESULT:      -7.3      1.121      1.705
REMARK  Name = 26745086
REMARK  9 active torsions:
REMARK  status: ('A' for Active; 'I' for Inactive)
REMARK    1  A    between atoms: O_3  and  C_24
REMARK    2  A    between atoms: C_11  and  C_13
REMARK    3  A    between atoms: C_11  and  C_19
REMARK    4  A    between atoms: C_11  and  C_20
REMARK    5  A    between atoms: C_11  and  C_21
REMARK    6  A    between atoms: C_12  and  C_22
REMARK    7  A    between atoms: C_13  and  C_16
REMARK    8  A    between atoms: C_19  and  C_24
REMARK    9  A    between atoms: C_25  and  C_26
REMARK                            x       y       z     vdW  Elec       q    Type
REMARK                         _______ _______ _______ _____ _____    ______ ____
ROOT
ATOM      1  O   UNL     1      13.261   9.018  22.332  0.00  0.00    -0.276 OA
ATOM      5  N   UNL     1      13.881   9.325  20.106  0.00  0.00    -0.284 N 
ATOM      6  N   UNL     1      13.797  10.471  16.557  0.00  0.00    -0.347 N 
ATOM      7  N   UNL     1      12.648   8.587  16.204  0.00  0.00    -0.240 NA
ATOM     12  C   UNL     1      13.731   7.865  19.777  0.00  0.00    +0.171 C 
ATOM     14  C   UNL     1      12.788   7.652  18.554  0.00  0.00    +0.089 C 
ATOM     15  C   UNL     1      14.367  10.232  19.029  0.00  0.00    +0.163 C 
ATOM     16  C   UNL     1      13.662   9.750  21.423  0.00  0.00    +0.217 C 
ATOM     17  C   UNL     1      13.762   9.813  17.750  0.00  0.00    +0.056 A 
ATOM     18  C   UNL     1      13.055   8.661  17.506  0.00  0.00    +0.066 A 
ATOM     23  C   UNL     1      13.111   9.693  15.657  0.00  0.00    +0.197 A 
ATOM     31  H   UNL     1      14.241  11.360  16.366  0.00  0.00    +0.167 HD
ENDROOT
BRANCH  12  22
ATOM      2  O   UNL     1      15.309   6.353  18.656  0.00  0.00    -0.336 OA
ATOM      8  N   UNL     1      16.110   7.276  20.533  0.00  0.00    -0.190 NA
ATOM      9  N   UNL     1      16.608   5.853  18.812  0.00  0.00    -0.056 NA
ATOM     22  C   UNL     1      15.095   7.183  19.711  0.00  0.00    +0.249 A 
ATOM     25  C   UNL     1      17.014   6.443  19.940  0.00  0.00    +0.202 A 
BRANCH  25  26
ATOM     10  N   UNL     1      20.854   5.795  21.589  0.00  0.00    -0.263 NA
ATOM     26  C   UNL     1      18.316   6.223  20.499  0.00  0.00    +0.025 A 
ATOM     27  C   UNL     1      19.166   5.276  19.938  0.00  0.00    +0.031 A 
ATOM     28  C   UNL     1      18.734   6.956  21.604  0.00  0.00    +0.031 A 
ATOM     29  C   UNL     1      20.414   5.102  20.516  0.00  0.00    +0.111 A 
ATOM     30  C   UNL     1      20.001   6.707  22.106  0.00  0.00    +0.111 A 
ENDBRANCH  25  26
ENDBRANCH  12  22
BRANCH  16  13
ATOM     13  C   UNL     1      13.942  11.202  21.718  0.00  0.00    +0.103 C 
BRANCH  13  11
ATOM     11  C   UNL     1      12.662  12.058  21.778  0.00  0.00    -0.017 C 
ATOM     20  C   UNL     1      12.461  12.701  20.390  0.00  0.00    +0.012 C 
ATOM     21  C   UNL     1      12.837  13.202  22.801  0.00  0.00    +0.012 C 
BRANCH  11  19
ATOM     19  C   UNL     1      11.408  11.243  22.179  0.00  0.00    +0.127 C 
BRANCH  19  24
ATOM      4  O   UNL     1      10.148  12.010  24.097  0.00  0.00    -0.251 OA
ATOM     24  C   UNL     1      11.050  11.316  23.647  0.00  0.00    +0.305 C 
BRANCH  24   3
ATOM      3  O   UNL     1      11.841  10.535  24.422  0.00  0.00    -0.481 OA
ATOM     32  H   UNL     1      12.656  11.004  24.703  0.00  0.00    +0.295 HD
ENDBRANCH  24   3
ENDBRANCH  19  24
ENDBRANCH  11  19
ENDBRANCH  13  11
ENDBRANCH  16  13
TORSDOF 7
ENDMDL
MODEL 3
REMARK VINA RESULT:      -6.8      2.143      2.744
REMARK  Name = 26745086
REMARK  9 active torsions:
REMARK  status: ('A' for Active; 'I' for Inactive)
REMARK    1  A    between atoms: O_3  and  C_24
REMARK    2  A    between atoms: C_11  and  C_13
REMARK    3  A    between atoms: C_11  and  C_19
REMARK    4  A    between atoms: C_11  and  C_20
REMARK    5  A    between atoms: C_11  and  C_21
REMARK    6  A    between atoms: C_12  and  C_22
REMARK    7  A    between atoms: C_13  and  C_16
REMARK    8  A    between atoms: C_19  and  C_24
REMARK    9  A    between atoms: C_25  and  C_26
REMARK                            x       y       z     vdW  Elec       q    Type
REMARK                         _______ _______ _______ _____ _____    ______ ____
ROOT
ATOM      1  O   UNL     1      14.255  10.748  23.691  0.00  0.00    -0.276 OA
ATOM      5  N   UNL     1      14.178   9.911  21.517  0.00  0.00    -0.284 N 
ATOM      6  N   UNL     1      12.825   8.775  18.231  0.00  0.00    -0.347 N 
ATOM      7  N   UNL     1      12.656   6.786  19.235  0.00  0.00    -0.240 NA
ATOM     12  C   UNL     1      14.669   8.553  21.934  0.00  0.00    +0.171 C 
ATOM     14  C   UNL     1      13.707   7.426  21.449  0.00  0.00    +0.089 C 
ATOM     15  C   UNL     1      13.941  10.148  20.065  0.00  0.00    +0.163 C 
ATOM     16  C   UNL     1      14.064  10.919  22.484  0.00  0.00    +0.217 C 
ATOM     17  C   UNL     1      13.354   8.928  19.478  0.00  0.00    +0.056 A 
ATOM     18  C   UNL     1      13.241   7.694  20.071  0.00  0.00    +0.066 A 
ATOM     23  C   UNL     1      12.417   7.468  18.133  0.00  0.00    +0.197 A 
ATOM     31  H   UNL     1      12.746   9.484  17.513  0.00  0.00    +0.167 HD
ENDROOT
BRANCH  12  22
ATOM      2  O   UNL     1      16.869   9.525  21.438  0.00  0.00    -0.336 OA
ATOM      8  N   UNL     1      16.836   7.285  21.405  0.00  0.00    -0.190 NA
ATOM      9  N   UNL     1      18.173   9.121  21.126  0.00  0.00    -0.056 NA
ATOM     22  C   UNL     1      16.146   8.383  21.587  0.00  0.00    +0.249 A 
ATOM     25  C   UNL     1      18.073   7.788  21.124  0.00  0.00    +0.202 A 
BRANCH  25  26
ATOM     10  N   UNL     1      21.367   5.262  20.315  0.00  0.00    -0.263 NA
ATOM     26  C   UNL     1      19.190   6.932  20.850  0.00  0.00    +0.025 A 
ATOM     27  C   UNL     1      20.488   7.395  21.035  0.00  0.00    +0.031 A 
ATOM     28  C   UNL     1      18.980   5.634  20.397  0.00  0.00    +0.031 A 
ATOM     29  C   UNL     1      21.532   6.529  20.756  0.00  0.00    +0.111 A 
ATOM     30  C   UNL     1      20.092   4.846  20.147  0.00  0.00    +0.111 A 
ENDBRANCH  25  26
ENDBRANCH  12  22
BRANCH  16  13
ATOM     13  C   UNL     1      13.679  12.290  21.987  0.00  0.00    +0.103 C 
BRANCH  13  11
ATOM     11  C   UNL     1      12.302  12.750  22.503  0.00  0.00    -0.017 C 
ATOM     20  C   UNL     1      11.274  11.662  22.129  0.00  0.00    +0.012 C 
ATOM     21  C   UNL     1      11.879  14.054  21.795  0.00  0.00    +0.012 C 
BRANCH  11  19
ATOM     19  C   UNL     1      12.282  13.004  24.030  0.00  0.00    +0.127 C 
BRANCH  19  24
ATOM      4  O   UNL     1      10.083  12.521  24.916  0.00  0.00    -0.251 OA
ATOM     24  C   UNL     1      11.256  12.196  24.793  0.00  0.00    +0.305 C 
BRANCH  24   3
ATOM      3  O   UNL     1      11.775  11.069  25.341  0.00  0.00    -0.481 OA
ATOM     32  H   UNL     1      11.164  10.666  25.994  0.00  0.00    +0.295 HD
ENDBRANCH  24   3
ENDBRANCH  19  24
ENDBRANCH  11  19
ENDBRANCH  13  11
ENDBRANCH  16  13
TORSDOF 7
ENDMDL
MODEL 4
REMARK VINA RESULT:      -6.7      1.779      2.335
REMARK  Name = 26745086
REMARK  9 active torsions:
REMARK  status: ('A' for Active; 'I' for Inactive)
REMARK    1  A    between atoms: O_3  and  C_24
REMARK    2  A    between atoms: C_11  and  C_13
REMARK    3  A    between atoms: C_11  and  C_19
REMARK    4  A    between atoms: C_11  and  C_20
REMARK    5  A    between atoms: C_11  and  C_21
REMARK    6  A    between atoms: C_12  and  C_22
REMARK    7  A    between atoms: C_13  and  C_16
REMARK    8  A    between atoms: C_19  and  C_24
REMARK    9  A    between atoms: C_25  and  C_26
REMARK                            x       y       z     vdW  Elec       q    Type
REMARK                         _______ _______ _______ _____ _____    ______ ____
ROOT
ATOM      1  O   UNL     1      11.654   8.466  22.325  0.00  0.00    -0.276 OA
ATOM      5  N   UNL     1      12.682   9.180  20.358  0.00  0.00    -0.284 N 
ATOM      6  N   UNL     1      13.122  10.328  16.836  0.00  0.00    -0.347 N 
ATOM      7  N   UNL     1      13.256   8.147  16.372  0.00  0.00    -0.240 NA
ATOM     12  C   UNL     1      13.399   7.873  20.162  0.00  0.00    +0.171 C 
ATOM     14  C   UNL     1      13.121   7.279  18.748  0.00  0.00    +0.089 C 
ATOM     15  C   UNL     1      12.944  10.270  19.378  0.00  0.00    +0.163 C 
ATOM     16  C   UNL     1      11.886   9.353  21.500  0.00  0.00    +0.217 C 
ATOM     17  C   UNL     1      13.060   9.677  18.032  0.00  0.00    +0.056 A 
ATOM     18  C   UNL     1      13.148   8.342  17.719  0.00  0.00    +0.066 A 
ATOM     23  C   UNL     1      13.238   9.364  15.867  0.00  0.00    +0.197 A 
ATOM     31  H   UNL     1      13.088  11.329  16.687  0.00  0.00    +0.167 HD
ENDROOT
BRANCH  12  22
ATOM      2  O   UNL     1      15.190   9.064  21.348  0.00  0.00    -0.336 OA
ATOM      8  N   UNL     1      15.876   7.214  20.287  0.00  0.00    -0.190 NA
ATOM      9  N   UNL     1      16.565   8.963  21.591  0.00  0.00    -0.056 NA
ATOM     22  C   UNL     1      14.865   7.996  20.573  0.00  0.00    +0.249 A 
ATOM     25  C   UNL     1      16.897   7.849  20.933  0.00  0.00    +0.202 A 
BRANCH  25  26
ATOM     10  N   UNL     1      20.851   6.351  20.846  0.00  0.00    -0.263 NA
ATOM     26  C   UNL     1      18.237   7.341  20.903  0.00  0.00    +0.025 A 
ATOM     27  C   UNL     1      19.297   8.141  21.316  0.00  0.00    +0.031 A 
ATOM     28  C   UNL     1      18.484   6.045  20.462  0.00  0.00    +0.031 A 
ATOM     29  C   UNL     1      20.573   7.604  21.268  0.00  0.00    +0.111 A 
ATOM     30  C   UNL     1      19.796   5.601  20.453  0.00  0.00    +0.111 A 
ENDBRANCH  25  26
ENDBRANCH  12  22
BRANCH  16  13
ATOM     13  C   UNL     1      11.287  10.722  21.702  0.00  0.00    +0.103 C 
BRANCH  13  11
ATOM     11  C   UNL     1      11.880  11.461  22.918  0.00  0.00    -0.017 C 
ATOM     20  C   UNL     1      10.918  11.257  24.106  0.00  0.00    +0.012 C 
ATOM     21  C   UNL     1      11.953  12.977  22.632  0.00  0.00    +0.012 C 
BRANCH  11  19
ATOM     19  C   UNL     1      13.301  10.973  23.288  0.00  0.00    +0.127 C 
BRANCH  19  24
ATOM      4  O   UNL     1      14.738  12.850  23.804  0.00  0.00    -0.251 OA
ATOM     24  C   UNL     1      14.403  11.974  23.019  0.00  0.00    +0.305 C 
BRANCH  24   3
ATOM      3  O   UNL     1      14.983  11.806  21.805  0.00  0.00    -0.481 OA
ATOM     32  H   UNL     1      15.522  12.583  21.546  0.00  0.00    +0.295 HD
ENDBRANCH  24   3
ENDBRANCH  19  24
ENDBRANCH  11  19
ENDBRANCH  13  11
ENDBRANCH  16  13
TORSDOF 7
ENDMDL
MODEL 5
REMARK VINA RESULT:      -6.7      2.588      7.320
REMARK  Name = 26745086
REMARK  9 active torsions:
REMARK  status: ('A' for Active; 'I' for Inactive)
REMARK    1  A    between atoms: O_3  and  C_24
REMARK    2  A    between atoms: C_11  and  C_13
REMARK    3  A    between atoms: C_11  and  C_19
REMARK    4  A    between atoms: C_11  and  C_20
REMARK    5  A    between atoms: C_11  and  C_21
REMARK    6  A    between atoms: C_12  and  C_22
REMARK    7  A    between atoms: C_13  and  C_16
REMARK    8  A    between atoms: C_19  and  C_24
REMARK    9  A    between atoms: C_25  and  C_26
REMARK                            x       y       z     vdW  Elec       q    Type
REMARK                         _______ _______ _______ _____ _____    ______ ____
ROOT
ATOM      1  O   UNL     1      12.459   6.964  17.499  0.00  0.00    -0.276 OA
ATOM      5  N   UNL     1      14.062   7.821  18.958  0.00  0.00    -0.284 N 
ATOM      6  N   UNL     1      17.371   8.510  20.536  0.00  0.00    -0.347 N 
ATOM      7  N   UNL     1      16.929   6.685  21.747  0.00  0.00    -0.240 NA
ATOM     12  C   UNL     1      13.506   7.074  20.139  0.00  0.00    +0.171 C 
ATOM     14  C   UNL     1      14.607   6.227  20.846  0.00  0.00    +0.089 C 
ATOM     15  C   UNL     1      15.216   8.732  19.195  0.00  0.00    +0.163 C 
ATOM     16  C   UNL     1      13.415   7.711  17.719  0.00  0.00    +0.217 C 
ATOM     17  C   UNL     1      16.122   8.103  20.175  0.00  0.00    +0.056 A 
ATOM     18  C   UNL     1      15.874   6.985  20.934  0.00  0.00    +0.066 A 
ATOM     23  C   UNL     1      17.817   7.624  21.485  0.00  0.00    +0.197 A 
ATOM     31  H   UNL     1      17.877   9.310  20.178  0.00  0.00    +0.167 HD
ENDROOT
BRANCH  12  22
ATOM      2  O   UNL     1      11.850   7.413  21.921  0.00  0.00    -0.336 OA
ATOM      8  N   UNL     1      12.664   9.315  21.063  0.00  0.00    -0.190 NA
ATOM      9  N   UNL     1      11.216   8.454  22.611  0.00  0.00    -0.056 NA
ATOM     22  C   UNL     1      12.686   8.006  21.029  0.00  0.00    +0.249 A 
ATOM     25  C   UNL     1      11.748   9.543  22.048  0.00  0.00    +0.202 A 
BRANCH  25  26
ATOM     10  N   UNL     1      10.686  13.463  23.228  0.00  0.00    -0.263 NA
ATOM     26  C   UNL     1      11.388  10.872  22.449  0.00  0.00    +0.025 A 
ATOM     27  C   UNL     1      11.462  11.920  21.537  0.00  0.00    +0.031 A 
ATOM     28  C   UNL     1      10.963  11.119  23.749  0.00  0.00    +0.031 A 
ATOM     29  C   UNL     1      11.103  13.186  21.974  0.00  0.00    +0.111 A 
ATOM     30  C   UNL     1      10.625  12.420  24.086  0.00  0.00    +0.111 A 
ENDBRANCH  25  26
ENDBRANCH  12  22
BRANCH  16  13
ATOM     13  C   UNL     1      13.949   8.573  16.602  0.00  0.00    +0.103 C 
BRANCH  13  11
ATOM     11  C   UNL     1      13.066   9.805  16.324  0.00  0.00    -0.017 C 
ATOM     20  C   UNL     1      12.965  10.616  17.632  0.00  0.00    +0.012 C 
ATOM     21  C   UNL     1      11.639   9.359  15.940  0.00  0.00    +0.012 C 
BRANCH  11  19
ATOM     19  C   UNL     1      13.614  10.696  15.182  0.00  0.00    +0.127 C 
BRANCH  19  24
ATOM      4  O   UNL     1      15.847  11.367  15.827  0.00  0.00    -0.251 OA
ATOM     24  C   UNL     1      15.122  10.730  15.075  0.00  0.00    +0.305 C 
BRANCH  24   3
ATOM      3  O   UNL     1      15.595   9.985  14.046  0.00  0.00    -0.481 OA
ATOM     32  H   UNL     1      16.470   9.591  14.250  0.00  0.00    +0.295 HD
ENDBRANCH  24   3
ENDBRANCH  19  24
ENDBRANCH  11  19
ENDBRANCH  13  11
ENDBRANCH  16  13
TORSDOF 7
ENDMDL
MODEL 6
REMARK VINA RESULT:      -6.7     13.534     16.648
REMARK  Name = 26745086
REMARK  9 active torsions:
REMARK  status: ('A' for Active; 'I' for Inactive)
REMARK    1  A    between atoms: O_3  and  C_24
REMARK    2  A    between atoms: C_11  and  C_13
REMARK    3  A    between atoms: C_11  and  C_19
REMARK    4  A    between atoms: C_11  and  C_20
REMARK    5  A    between atoms: C_11  and  C_21
REMARK    6  A    between atoms: C_12  and  C_22
REMARK    7  A    between atoms: C_13  and  C_16
REMARK    8  A    between atoms: C_19  and  C_24
REMARK    9  A    between atoms: C_25  and  C_26
REMARK                            x       y       z     vdW  Elec       q    Type
REMARK                         _______ _______ _______ _____ _____    ______ ____
ROOT
ATOM      1  O   UNL     1       9.144   7.298   3.656  0.00  0.00    -0.276 OA
ATOM      5  N   UNL     1       9.925   6.315   5.620  0.00  0.00    -0.284 N 
ATOM      6  N   UNL     1      10.161   4.023   8.554  0.00  0.00    -0.347 N 
ATOM      7  N   UNL     1       8.877   5.544   9.569  0.00  0.00    -0.240 NA
ATOM     12  C   UNL     1       9.669   7.551   6.438  0.00  0.00    +0.171 C 
ATOM     14  C   UNL     1       8.788   7.234   7.685  0.00  0.00    +0.089 C 
ATOM     15  C   UNL     1      10.553   5.150   6.302  0.00  0.00    +0.163 C 
ATOM     16  C   UNL     1       9.663   6.345   4.243  0.00  0.00    +0.217 C 
ATOM     17  C   UNL     1       9.995   5.041   7.664  0.00  0.00    +0.056 A 
ATOM     18  C   UNL     1       9.207   5.961   8.312  0.00  0.00    +0.066 A 
ATOM     23  C   UNL     1       9.467   4.372   9.686  0.00  0.00    +0.197 A 
ATOM     31  H   UNL     1      10.692   3.173   8.413  0.00  0.00    +0.167 HD
ENDROOT
BRANCH  12  22
ATOM      2  O   UNL     1      10.917   9.313   7.608  0.00  0.00    -0.336 OA
ATOM      8  N   UNL     1      12.153   8.130   6.162  0.00  0.00    -0.190 NA
ATOM      9  N   UNL     1      12.209   9.848   7.672  0.00  0.00    -0.056 NA
ATOM     22  C   UNL     1      10.970   8.306   6.697  0.00  0.00    +0.249 A 
ATOM     25  C   UNL     1      12.880   9.099   6.792  0.00  0.00    +0.202 A 
BRANCH  25  26
ATOM     10  N   UNL     1      16.994   9.662   5.990  0.00  0.00    -0.263 NA
ATOM     26  C   UNL     1      14.274   9.290   6.521  0.00  0.00    +0.025 A 
ATOM     27  C   UNL     1      15.080   8.201   6.209  0.00  0.00    +0.031 A 
ATOM     28  C   UNL     1      14.826  10.565   6.567  0.00  0.00    +0.031 A 
ATOM     29  C   UNL     1      16.422   8.438   5.955  0.00  0.00    +0.111 A 
ATOM     30  C   UNL     1      16.179  10.697   6.295  0.00  0.00    +0.111 A 
ENDBRANCH  25  26
ENDBRANCH  12  22
BRANCH  16  13
ATOM     13  C   UNL     1      10.049   5.118   3.457  0.00  0.00    +0.103 C 
BRANCH  13  11
ATOM     11  C   UNL     1      11.160   5.394   2.424  0.00  0.00    -0.017 C 
ATOM     20  C   UNL     1      12.207   6.308   3.094  0.00  0.00    +0.012 C 
ATOM     21  C   UNL     1      10.580   6.157   1.214  0.00  0.00    +0.012 C 
BRANCH  11  19
ATOM     19  C   UNL     1      11.832   4.102   1.900  0.00  0.00    +0.127 C 
BRANCH  19  24
ATOM      4  O   UNL     1      13.503   4.886   0.335  0.00  0.00    -0.251 OA
ATOM     24  C   UNL     1      13.236   4.290   1.370  0.00  0.00    +0.305 C 
BRANCH  24   3
ATOM      3  O   UNL     1      14.179   3.717   2.159  0.00  0.00    -0.481 OA
ATOM     32  H   UNL     1      14.855   4.365   2.451  0.00  0.00    +0.295 HD
ENDBRANCH  24   3
ENDBRANCH  19  24
ENDBRANCH  11  19
ENDBRANCH  13  11
ENDBRANCH  16  13
TORSDOF 7
ENDMDL
MODEL 7
REMARK VINA RESULT:      -6.6     27.514     29.159
REMARK  Name = 26745086
REMARK  9 active torsions:
REMARK  status: ('A' for Active; 'I' for Inactive)
REMARK    1  A    between atoms: O_3  and  C_24
REMARK    2  A    between atoms: C_11  and  C_13
REMARK    3  A    between atoms: C_11  and  C_19
REMARK    4  A    between atoms: C_11  and  C_20
REMARK    5  A    between atoms: C_11  and  C_21
REMARK    6  A    between atoms: C_12  and  C_22
REMARK    7  A    between atoms: C_13  and  C_16
REMARK    8  A    between atoms: C_19  and  C_24
REMARK    9  A    between atoms: C_25  and  C_26
REMARK                            x       y       z     vdW  Elec       q    Type
REMARK                         _______ _______ _______ _____ _____    ______ ____
ROOT
ATOM      1  O   UNL     1      -3.835 -10.335  17.415  0.00  0.00    -0.276 OA
ATOM      5  N   UNL     1      -3.876 -12.044  15.831  0.00  0.00    -0.284 N 
ATOM      6  N   UNL     1      -3.228 -15.326  14.180  0.00  0.00    -0.347 N 
ATOM      7  N   UNL     1      -1.422 -14.305  13.350  0.00  0.00    -0.240 NA
ATOM     12  C   UNL     1      -3.118 -11.234  14.816  0.00  0.00    +0.171 C 
ATOM     14  C   UNL     1      -1.861 -11.999  14.301  0.00  0.00    +0.089 C 
ATOM     15  C   UNL     1      -4.338 -13.402  15.430  0.00  0.00    +0.163 C 
ATOM     16  C   UNL     1      -4.204 -11.457  17.061  0.00  0.00    +0.217 C 
ATOM     17  C   UNL     1      -3.290 -14.032  14.602  0.00  0.00    +0.056 A 
ATOM     18  C   UNL     1      -2.174 -13.428  14.078  0.00  0.00    +0.066 A 
ATOM     23  C   UNL     1      -2.085 -15.442  13.430  0.00  0.00    +0.197 A 
ATOM     31  H   UNL     1      -3.894 -16.062  14.378  0.00  0.00    +0.167 HD
ENDROOT
BRANCH  12  22
ATOM      2  O   UNL     1      -5.250 -10.187  14.192  0.00  0.00    -0.336 OA
ATOM      8  N   UNL     1      -3.903 -10.613  12.454  0.00  0.00    -0.190 NA
ATOM      9  N   UNL     1      -5.934  -9.748  13.052  0.00  0.00    -0.056 NA
ATOM     22  C   UNL     1      -4.063 -10.682  13.751  0.00  0.00    +0.249 A 
ATOM     25  C   UNL     1      -5.077 -10.033  12.068  0.00  0.00    +0.202 A 
BRANCH  25  26
ATOM     10  N   UNL     1      -5.912  -9.197   8.007  0.00  0.00    -0.263 NA
ATOM     26  C   UNL     1      -5.360  -9.750  10.691  0.00  0.00    +0.025 A 
ATOM     27  C   UNL     1      -6.480  -9.001  10.349  0.00  0.00    +0.031 A 
ATOM     28  C   UNL     1      -4.516 -10.223   9.693  0.00  0.00    +0.031 A 
ATOM     29  C   UNL     1      -6.710  -8.754   9.005  0.00  0.00    +0.111 A 
ATOM     30  C   UNL     1      -4.832  -9.921   8.378  0.00  0.00    +0.111 A 
ENDBRANCH  25  26
ENDBRANCH  12  22
BRANCH  16  13
ATOM     13  C   UNL     1      -5.065 -12.276  17.990  0.00  0.00    +0.103 C 
BRANCH  13  11
ATOM     11  C   UNL     1      -6.442 -11.634  18.252  0.00  0.00    -0.017 C 
ATOM     20  C   UNL     1      -6.243 -10.496  19.273  0.00  0.00    +0.012 C 
ATOM     21  C   UNL     1      -7.397 -12.668  18.886  0.00  0.00    +0.012 C 
BRANCH  11  19
ATOM     19  C   UNL     1      -7.110 -11.090  16.965  0.00  0.00    +0.127 C 
BRANCH  19  24
ATOM      4  O   UNL     1      -8.297  -9.037  17.444  0.00  0.00    -0.251 OA
ATOM     24  C   UNL     1      -7.326  -9.593  16.950  0.00  0.00    +0.305 C 
BRANCH  24   3
ATOM      3  O   UNL     1      -6.330  -8.923  16.319  0.00  0.00    -0.481 OA
ATOM     32  H   UNL     1      -5.444  -9.209  16.627  0.00  0.00    +0.295 HD
ENDBRANCH  24   3
ENDBRANCH  19  24
ENDBRANCH  11  19
ENDBRANCH  13  11
ENDBRANCH  16  13
TORSDOF 7
ENDMDL
MODEL 8
REMARK VINA RESULT:      -6.5     27.554     29.826
REMARK  Name = 26745086
REMARK  9 active torsions:
REMARK  status: ('A' for Active; 'I' for Inactive)
REMARK    1  A    between atoms: O_3  and  C_24
REMARK    2  A    between atoms: C_11  and  C_13
REMARK    3  A    between atoms: C_11  and  C_19
REMARK    4  A    between atoms: C_11  and  C_20
REMARK    5  A    between atoms: C_11  and  C_21
REMARK    6  A    between atoms: C_12  and  C_22
REMARK    7  A    between atoms: C_13  and  C_16
REMARK    8  A    between atoms: C_19  and  C_24
REMARK    9  A    between atoms: C_25  and  C_26
REMARK                            x       y       z     vdW  Elec       q    Type
REMARK                         _______ _______ _______ _____ _____    ______ ____
ROOT
ATOM      1  O   UNL     1      -9.191 -12.123  16.511  0.00  0.00    -0.276 OA
ATOM      5  N   UNL     1      -9.317  -9.855  15.990  0.00  0.00    -0.284 N 
ATOM      6  N   UNL     1     -10.402  -6.286  16.054  0.00  0.00    -0.347 N 
ATOM      7  N   UNL     1     -11.902  -6.942  14.534  0.00  0.00    -0.240 NA
ATOM     12  C   UNL     1      -9.814 -10.119  14.595  0.00  0.00    +0.171 C 
ATOM     14  C   UNL     1     -11.136  -9.345  14.307  0.00  0.00    +0.089 C 
ATOM     15  C   UNL     1      -9.079  -8.439  16.385  0.00  0.00    +0.163 C 
ATOM     16  C   UNL     1      -9.003 -10.943  16.816  0.00  0.00    +0.217 C 
ATOM     17  C   UNL     1     -10.142  -7.599  15.800  0.00  0.00    +0.056 A 
ATOM     18  C   UNL     1     -11.073  -7.976  14.863  0.00  0.00    +0.066 A 
ATOM     23  C   UNL     1     -11.472  -5.936  15.269  0.00  0.00    +0.197 A 
ATOM     31  H   UNL     1      -9.905  -5.682  16.697  0.00  0.00    +0.167 HD
ENDROOT
BRANCH  12  22
ATOM      2  O   UNL     1      -9.049  -9.522  12.340  0.00  0.00    -0.336 OA
ATOM      8  N   UNL     1      -7.401 -10.146  13.723  0.00  0.00    -0.190 NA
ATOM      9  N   UNL     1      -7.864  -9.439  11.597  0.00  0.00    -0.056 NA
ATOM     22  C   UNL     1      -8.687  -9.944  13.580  0.00  0.00    +0.249 A 
ATOM     25  C   UNL     1      -6.938  -9.823  12.480  0.00  0.00    +0.202 A 
BRANCH  25  26
ATOM     10  N   UNL     1      -2.824 -10.027  11.521  0.00  0.00    -0.263 NA
ATOM     26  C   UNL     1      -5.544  -9.891  12.155  0.00  0.00    +0.025 A 
ATOM     27  C   UNL     1      -4.650 -10.488  13.038  0.00  0.00    +0.031 A 
ATOM     28  C   UNL     1      -5.079  -9.363  10.956  0.00  0.00    +0.031 A 
ATOM     29  C   UNL     1      -3.312 -10.529  12.677  0.00  0.00    +0.111 A 
ATOM     30  C   UNL     1      -3.723  -9.456  10.688  0.00  0.00    +0.111 A 
ENDBRANCH  25  26
ENDBRANCH  12  22
BRANCH  16  13
ATOM     13  C   UNL     1      -8.400 -10.617  18.160  0.00  0.00    +0.103 C 
BRANCH  13  11
ATOM     11  C   UNL     1      -6.977 -11.184  18.330  0.00  0.00    -0.017 C 
ATOM     20  C   UNL     1      -7.098 -12.549  19.039  0.00  0.00    +0.012 C 
ATOM     21  C   UNL     1      -6.143 -10.258  19.241  0.00  0.00    +0.012 C 
BRANCH  11  19
ATOM     19  C   UNL     1      -6.224 -11.342  16.987  0.00  0.00    +0.127 C 
BRANCH  19  24
ATOM      4  O   UNL     1      -4.022 -10.337  16.974  0.00  0.00    -0.251 OA
ATOM     24  C   UNL     1      -5.212 -10.256  16.698  0.00  0.00    +0.305 C 
BRANCH  24   3
ATOM      3  O   UNL     1      -5.761  -9.167  16.105  0.00  0.00    -0.481 OA
ATOM     32  H   UNL     1      -6.724  -9.278  15.957  0.00  0.00    +0.295 HD
ENDBRANCH  24   3
ENDBRANCH  19  24
ENDBRANCH  11  19
ENDBRANCH  13  11
ENDBRANCH  16  13
TORSDOF 7
ENDMDL
MODEL 9
REMARK VINA RESULT:      -6.3     27.930     29.968
REMARK  Name = 26745086
REMARK  9 active torsions:
REMARK  status: ('A' for Active; 'I' for Inactive)
REMARK    1  A    between atoms: O_3  and  C_24
REMARK    2  A    between atoms: C_11  and  C_13
REMARK    3  A    between atoms: C_11  and  C_19
REMARK    4  A    between atoms: C_11  and  C_20
REMARK    5  A    between atoms: C_11  and  C_21
REMARK    6  A    between atoms: C_12  and  C_22
REMARK    7  A    between atoms: C_13  and  C_16
REMARK    8  A    between atoms: C_19  and  C_24
REMARK    9  A    between atoms: C_25  and  C_26
REMARK                            x       y       z     vdW  Elec       q    Type
REMARK                         _______ _______ _______ _____ _____    ______ ____
ROOT
ATOM      1  O   UNL     1      -8.915  -8.024  17.485  0.00  0.00    -0.276 OA
ATOM      5  N   UNL     1      -8.819 -10.349  17.353  0.00  0.00    -0.284 N 
ATOM      6  N   UNL     1      -9.858 -13.928  17.523  0.00  0.00    -0.347 N 
ATOM      7  N   UNL     1      -9.166 -13.802  19.644  0.00  0.00    -0.240 NA
ATOM     12  C   UNL     1      -7.808 -10.452  18.462  0.00  0.00    +0.171 C 
ATOM     14  C   UNL     1      -8.289 -11.427  19.580  0.00  0.00    +0.089 C 
ATOM     15  C   UNL     1      -9.234 -11.608  16.674  0.00  0.00    +0.163 C 
ATOM     16  C   UNL     1      -9.245  -9.079  16.939  0.00  0.00    +0.217 C 
ATOM     17  C   UNL     1      -9.341 -12.677  17.685  0.00  0.00    +0.056 A 
ATOM     18  C   UNL     1      -8.921 -12.627  18.991  0.00  0.00    +0.066 A 
ATOM     23  C   UNL     1      -9.731 -14.567  18.731  0.00  0.00    +0.197 A 
ATOM     31  H   UNL     1     -10.259 -14.315  16.678  0.00  0.00    +0.167 HD
ENDROOT
BRANCH  12  22
ATOM      2  O   UNL     1      -5.550 -11.390  18.691  0.00  0.00    -0.336 OA
ATOM      8  N   UNL     1      -5.905 -10.338  16.745  0.00  0.00    -0.190 NA
ATOM      9  N   UNL     1      -4.353 -11.488  17.971  0.00  0.00    -0.056 NA
ATOM     22  C   UNL     1      -6.411 -10.699  17.898  0.00  0.00    +0.249 A 
ATOM     25  C   UNL     1      -4.641 -10.845  16.836  0.00  0.00    +0.202 A 
BRANCH  25  26
ATOM     10  N   UNL     1      -1.838 -10.396  13.701  0.00  0.00    -0.263 NA
ATOM     26  C   UNL     1      -3.691 -10.692  15.773  0.00  0.00    +0.025 A 
ATOM     27  C   UNL     1      -2.337 -10.561  16.061  0.00  0.00    +0.031 A 
ATOM     28  C   UNL     1      -4.119 -10.676  14.450  0.00  0.00    +0.031 A 
ATOM     29  C   UNL     1      -1.459 -10.416  14.998  0.00  0.00    +0.111 A 
ATOM     30  C   UNL     1      -3.162 -10.528  13.460  0.00  0.00    +0.111 A 
ENDBRANCH  25  26
ENDBRANCH  12  22
BRANCH  16  13
ATOM     13  C   UNL     1     -10.168  -9.035  15.747  0.00  0.00    +0.103 C 
BRANCH  13  11
ATOM     11  C   UNL     1     -11.576  -8.516  16.099  0.00  0.00    -0.017 C 
ATOM     20  C   UNL     1     -12.082  -9.322  17.313  0.00  0.00    +0.012 C 
ATOM     21  C   UNL     1     -12.546  -8.780  14.927  0.00  0.00    +0.012 C 
BRANCH  11  19
ATOM     19  C   UNL     1     -11.601  -7.000  16.412  0.00  0.00    +0.127 C 
BRANCH  19  24
ATOM      4  O   UNL     1     -11.702  -5.750  14.343  0.00  0.00    -0.251 OA
ATOM     24  C   UNL     1     -11.053  -6.118  15.312  0.00  0.00    +0.305 C 
BRANCH  24   3
ATOM      3  O   UNL     1      -9.754  -5.781  15.506  0.00  0.00    -0.481 OA
ATOM     32  H   UNL     1      -9.305  -6.394  16.125  0.00  0.00    +0.295 HD
ENDBRANCH  24   3
ENDBRANCH  19  24
ENDBRANCH  11  19
ENDBRANCH  13  11
ENDBRANCH  16  13
TORSDOF 7
ENDMDL
MODEL 10
REMARK VINA RESULT:      -6.3     26.004     28.265
REMARK  Name = 26745086
REMARK  9 active torsions:
REMARK  status: ('A' for Active; 'I' for Inactive)
REMARK    1  A    between atoms: O_3  and  C_24
REMARK    2  A    between atoms: C_11  and  C_13
REMARK    3  A    between atoms: C_11  and  C_19
REMARK    4  A    between atoms: C_11  and  C_20
REMARK    5  A    between atoms: C_11  and  C_21
REMARK    6  A    between atoms: C_12  and  C_22
REMARK    7  A    between atoms: C_13  and  C_16
REMARK    8  A    between atoms: C_19  and  C_24
REMARK    9  A    between atoms: C_25  and  C_26
REMARK                            x       y       z     vdW  Elec       q    Type
REMARK                         _______ _______ _______ _____ _____    ______ ____
ROOT
ATOM      1  O   UNL     1     -13.844  10.667  19.075  0.00  0.00    -0.276 OA
ATOM      5  N   UNL     1     -13.278   8.913  20.504  0.00  0.00    -0.284 N 
ATOM      6  N   UNL     1     -13.001   5.467  21.904  0.00  0.00    -0.347 N 
ATOM      7  N   UNL     1     -14.930   5.959  22.918  0.00  0.00    -0.240 NA
ATOM     12  C   UNL     1     -14.129   9.444  21.625  0.00  0.00    +0.171 C 
ATOM     14  C   UNL     1     -15.125   8.362  22.143  0.00  0.00    +0.089 C 
ATOM     15  C   UNL     1     -12.478   7.684  20.761  0.00  0.00    +0.163 C 
ATOM     16  C   UNL     1     -13.193   9.647  19.312  0.00  0.00    +0.217 C 
ATOM     17  C   UNL     1     -13.280   6.763  21.590  0.00  0.00    +0.056 A 
ATOM     18  C   UNL     1     -14.466   7.040  22.226  0.00  0.00    +0.066 A 
ATOM     23  C   UNL     1     -14.025   5.025  22.704  0.00  0.00    +0.197 A 
ATOM     31  H   UNL     1     -12.196   4.930  21.606  0.00  0.00    +0.167 HD
ENDROOT
BRANCH  12  22
ATOM      2  O   UNL     1     -12.280  10.948  22.215  0.00  0.00    -0.336 OA
ATOM      8  N   UNL     1     -13.326  10.057  23.984  0.00  0.00    -0.190 NA
ATOM      9  N   UNL     1     -11.633  11.457  23.348  0.00  0.00    -0.056 NA
ATOM     22  C   UNL     1     -13.264  10.133  22.678  0.00  0.00    +0.249 A 
ATOM     25  C   UNL     1     -12.306  10.886  24.350  0.00  0.00    +0.202 A 
BRANCH  25  26
ATOM     10  N   UNL     1     -11.366  11.586  28.414  0.00  0.00    -0.263 NA
ATOM     26  C   UNL     1     -11.987  11.123  25.728  0.00  0.00    +0.025 A 
ATOM     27  C   UNL     1     -12.611  12.155  26.421  0.00  0.00    +0.031 A 
ATOM     28  C   UNL     1     -11.053  10.322  26.377  0.00  0.00    +0.031 A 
ATOM     29  C   UNL     1     -12.268  12.343  27.751  0.00  0.00    +0.111 A 
ATOM     30  C   UNL     1     -10.781  10.592  27.708  0.00  0.00    +0.111 A 
ENDBRANCH  25  26
ENDBRANCH  12  22
BRANCH  16  13
ATOM     13  C   UNL     1     -12.234   9.127  18.269  0.00  0.00    +0.103 C 
BRANCH  13  11
ATOM     11  C   UNL     1     -10.931   9.948  18.192  0.00  0.00    -0.017 C 
ATOM     20  C   UNL     1     -10.066   9.569  19.412  0.00  0.00    +0.012 C 
ATOM     21  C   UNL     1     -11.248  11.455  18.294  0.00  0.00    +0.012 C 
BRANCH  11  19
ATOM     19  C   UNL     1     -10.144   9.710  16.881  0.00  0.00    +0.127 C 
BRANCH  19  24
ATOM      4  O   UNL     1     -11.346   8.603  15.097  0.00  0.00    -0.251 OA
ATOM     24  C   UNL     1     -10.609   8.521  16.070  0.00  0.00    +0.305 C 
BRANCH  24   3
ATOM      3  O   UNL     1     -10.132   7.342  16.541  0.00  0.00    -0.481 OA
ATOM     32  H   UNL     1     -10.854   6.725  16.783  0.00  0.00    +0.295 HD
ENDBRANCH  24   3
ENDBRANCH  19  24
ENDBRANCH  11  19
ENDBRANCH  13  11
ENDBRANCH  16  13
TORSDOF 7
ENDMDL
