MODEL 1
REMARK VINA RESULT:      -8.2      0.000      0.000
REMARK  Name = 11885159
REMARK  2 active torsions:
REMARK  status: ('A' for Active; 'I' for Inactive)
REMARK    1  A    between atoms: C_13  and  C_14
REMARK    2  A    between atoms: C_22  and  C_24
REMARK                            x       y       z     vdW  Elec       q    Type
REMARK                         _______ _______ _______ _____ _____    ______ ____
ROOT
ATOM      2  O   UNL     1      11.758   7.658  17.837  0.00  0.00    -0.275 OA
ATOM      3  O   UNL     1      15.321   6.226  21.559  0.00  0.00    -0.267 OA
ATOM      4  N   UNL     1      11.674   9.104  19.654  0.00  0.00    -0.300 N 
ATOM      5  N   UNL     1      13.987   8.137  21.631  0.00  0.00    -0.311 N 
ATOM      6  C   UNL     1      11.443   8.033  21.899  0.00  0.00    +0.027 C 
ATOM      7  C   UNL     1      12.562  10.214  21.696  0.00  0.00    +0.054 C 
ATOM      8  C   UNL     1      11.595   9.400  22.554  0.00  0.00    +0.018 C 
ATOM      9  C   UNL     1      10.887   8.179  20.471  0.00  0.00    +0.113 C 
ATOM     10  C   UNL     1      11.969  10.399  20.285  0.00  0.00    +0.117 C 
ATOM     11  C   UNL     1      12.801   7.321  21.918  0.00  0.00    +0.130 C 
ATOM     12  C   UNL     1      13.914   9.532  21.600  0.00  0.00    +0.027 A 
ATOM     14  C   UNL     1      12.015   8.752  18.348  0.00  0.00    +0.219 C 
ATOM     17  C   UNL     1      15.032  10.262  21.456  0.00  0.00    +0.022 A 
ATOM     20  C   UNL     1      15.211   7.452  21.502  0.00  0.00    +0.259 A 
ATOM     22  C   UNL     1      16.441   8.296  21.304  0.00  0.00    +0.047 A 
ATOM     23  C   UNL     1      16.311   9.631  21.301  0.00  0.00    +0.015 A 
ENDROOT
BRANCH  22  24
ATOM      1 CL   UNL     1      21.824   5.800  20.520  0.00  0.00    -0.084 Cl
ATOM     24  C   UNL     1      17.766   7.682  21.110  0.00  0.00    -0.013 A 
ATOM     25  C   UNL     1      17.903   6.561  20.291  0.00  0.00    +0.010 A 
ATOM     26  C   UNL     1      18.885   8.220  21.747  0.00  0.00    +0.010 A 
ATOM     27  C   UNL     1      19.158   5.979  20.108  0.00  0.00    +0.020 A 
ATOM     28  C   UNL     1      20.140   7.637  21.565  0.00  0.00    +0.020 A 
ATOM     29  C   UNL     1      20.276   6.517  20.745  0.00  0.00    +0.041 A 
ENDBRANCH  22  24
BRANCH  14  13
ATOM     13  C   UNL     1      12.746   9.784  17.542  0.00  0.00    +0.075 C 
ATOM     15  C   UNL     1      12.530   9.529  16.049  0.00  0.00    +0.013 C 
ATOM     16  C   UNL     1      14.234   9.769  17.903  0.00  0.00    +0.013 C 
ATOM     18  C   UNL     1      13.334  10.501  15.189  0.00  0.00    +0.001 C 
ATOM     19  C   UNL     1      15.032  10.741  17.038  0.00  0.00    +0.001 C 
ATOM     21  C   UNL     1      14.815  10.481  15.550  0.00  0.00    +0.000 C 
ENDBRANCH  14  13
TORSDOF 2
ENDMDL
MODEL 2
REMARK VINA RESULT:      -7.8      3.723      6.967
REMARK  Name = 11885159
REMARK  2 active torsions:
REMARK  status: ('A' for Active; 'I' for Inactive)
REMARK    1  A    between atoms: C_13  and  C_14
REMARK    2  A    between atoms: C_22  and  C_24
REMARK                            x       y       z     vdW  Elec       q    Type
REMARK                         _______ _______ _______ _____ _____    ______ ____
ROOT
ATOM      2  O   UNL     1      15.127   6.737  21.093  0.00  0.00    -0.275 OA
ATOM      3  O   UNL     1      10.803   9.706  22.134  0.00  0.00    -0.267 OA
ATOM      4  N   UNL     1      14.450   7.894  19.196  0.00  0.00    -0.300 N 
ATOM      5  N   UNL     1      11.983   9.697  20.122  0.00  0.00    -0.311 N 
ATOM      6  C   UNL     1      12.043   7.662  18.570  0.00  0.00    +0.027 C 
ATOM      7  C   UNL     1      13.272   9.702  17.957  0.00  0.00    +0.054 C 
ATOM      8  C   UNL     1      12.244   8.688  17.461  0.00  0.00    +0.018 C 
ATOM      9  C   UNL     1      13.370   6.953  18.895  0.00  0.00    +0.113 C 
ATOM     10  C   UNL     1      14.611   8.990  18.228  0.00  0.00    +0.117 C 
ATOM     11  C   UNL     1      11.451   8.368  19.796  0.00  0.00    +0.130 C 
ATOM     12  C   UNL     1      12.793  10.392  19.221  0.00  0.00    +0.027 A 
ATOM     14  C   UNL     1      15.281   7.663  20.292  0.00  0.00    +0.219 C 
ATOM     17  C   UNL     1      13.168  11.654  19.488  0.00  0.00    +0.022 A 
ATOM     20  C   UNL     1      11.546  10.274  21.331  0.00  0.00    +0.259 A 
ATOM     22  C   UNL     1      12.014  11.675  21.619  0.00  0.00    +0.047 A 
ATOM     23  C   UNL     1      12.774  12.299  20.708  0.00  0.00    +0.015 A 
ENDROOT
BRANCH  22  24
ATOM      1 CL   UNL     1      10.556  14.443  26.721  0.00  0.00    -0.084 Cl
ATOM     24  C   UNL     1      11.655  12.357  22.875  0.00  0.00    -0.013 A 
ATOM     25  C   UNL     1      12.416  12.147  24.025  0.00  0.00    +0.010 A 
ATOM     26  C   UNL     1      10.554  13.212  22.916  0.00  0.00    +0.010 A 
ATOM     27  C   UNL     1      12.077  12.792  25.215  0.00  0.00    +0.020 A 
ATOM     28  C   UNL     1      10.214  13.857  24.105  0.00  0.00    +0.020 A 
ATOM     29  C   UNL     1      10.975  13.647  25.255  0.00  0.00    +0.041 A 
ENDBRANCH  22  24
BRANCH  14  13
ATOM     13  C   UNL     1      16.418   8.620  20.487  0.00  0.00    +0.075 C 
ATOM     15  C   UNL     1      17.647   7.871  21.007  0.00  0.00    +0.013 C 
ATOM     16  C   UNL     1      15.999   9.740  21.443  0.00  0.00    +0.013 C 
ATOM     18  C   UNL     1      18.802   8.823  21.310  0.00  0.00    +0.001 C 
ATOM     19  C   UNL     1      17.158  10.687  21.744  0.00  0.00    +0.001 C 
ATOM     21  C   UNL     1      18.380   9.934  22.265  0.00  0.00    +0.000 C 
ENDBRANCH  14  13
TORSDOF 2
ENDMDL
MODEL 3
REMARK VINA RESULT:      -7.5      2.784      6.215
REMARK  Name = 11885159
REMARK  2 active torsions:
REMARK  status: ('A' for Active; 'I' for Inactive)
REMARK    1  A    between atoms: C_13  and  C_14
REMARK    2  A    between atoms: C_22  and  C_24
REMARK                            x       y       z     vdW  Elec       q    Type
REMARK                         _______ _______ _______ _____ _____    ______ ____
ROOT
ATOM      2  O   UNL     1      15.521   9.005  22.358  0.00  0.00    -0.275 OA
ATOM      3  O   UNL     1      13.431  11.900  18.377  0.00  0.00    -0.267 OA
ATOM      4  N   UNL     1      13.504   8.094  21.651  0.00  0.00    -0.300 N 
ATOM      5  N   UNL     1      12.564   9.892  19.186  0.00  0.00    -0.311 N 
ATOM      6  C   UNL     1      11.569   9.669  21.535  0.00  0.00    +0.027 C 
ATOM      7  C   UNL     1      11.641   7.712  20.048  0.00  0.00    +0.054 C 
ATOM      8  C   UNL     1      10.721   8.563  20.920  0.00  0.00    +0.018 C 
ATOM      9  C   UNL     1      12.700   9.068  22.390  0.00  0.00    +0.113 C 
ATOM     10  C   UNL     1      12.736   7.073  20.923  0.00  0.00    +0.117 C 
ATOM     11  C   UNL     1      12.109  10.562  20.412  0.00  0.00    +0.130 C 
ATOM     12  C   UNL     1      12.280   8.545  18.952  0.00  0.00    +0.027 A 
ATOM     14  C   UNL     1      14.896   8.138  21.742  0.00  0.00    +0.219 C 
ATOM     17  C   UNL     1      12.599   7.984  17.774  0.00  0.00    +0.022 A 
ATOM     20  C   UNL     1      13.196  10.700  18.221  0.00  0.00    +0.259 A 
ATOM     22  C   UNL     1      13.575  10.034  16.926  0.00  0.00    +0.047 A 
ATOM     23  C   UNL     1      13.260   8.743  16.751  0.00  0.00    +0.015 A 
ENDROOT
BRANCH  22  24
ATOM      1 CL   UNL     1      16.451  13.035  12.620  0.00  0.00    -0.084 Cl
ATOM     24  C   UNL     1      14.283  10.773  15.866  0.00  0.00    -0.013 A 
ATOM     25  C   UNL     1      13.564  11.356  14.821  0.00  0.00    +0.010 A 
ATOM     26  C   UNL     1      15.673  10.891  15.905  0.00  0.00    +0.010 A 
ATOM     27  C   UNL     1      14.234  12.056  13.818  0.00  0.00    +0.020 A 
ATOM     28  C   UNL     1      16.343  11.590  14.901  0.00  0.00    +0.020 A 
ATOM     29  C   UNL     1      15.624  12.172  13.857  0.00  0.00    +0.041 A 
ENDBRANCH  22  24
BRANCH  14  13
ATOM     13  C   UNL     1      15.651   7.056  21.029  0.00  0.00    +0.075 C 
ATOM     15  C   UNL     1      17.099   7.020  21.521  0.00  0.00    +0.013 C 
ATOM     16  C   UNL     1      15.579   7.280  19.516  0.00  0.00    +0.013 C 
ATOM     18  C   UNL     1      17.930   5.994  20.754  0.00  0.00    +0.001 C 
ATOM     19  C   UNL     1      16.413   6.253  18.755  0.00  0.00    +0.001 C 
ATOM     21  C   UNL     1      17.857   6.223  19.248  0.00  0.00    +0.000 C 
ENDBRANCH  14  13
TORSDOF 2
ENDMDL
MODEL 4
REMARK VINA RESULT:      -7.3     17.166     20.706
REMARK  Name = 11885159
REMARK  2 active torsions:
REMARK  status: ('A' for Active; 'I' for Inactive)
REMARK    1  A    between atoms: C_13  and  C_14
REMARK    2  A    between atoms: C_22  and  C_24
REMARK                            x       y       z     vdW  Elec       q    Type
REMARK                         _______ _______ _______ _____ _____    ______ ____
ROOT
ATOM      2  O   UNL     1      12.984   5.911  -2.401  0.00  0.00    -0.275 OA
ATOM      3  O   UNL     1      12.145   7.847   2.513  0.00  0.00    -0.267 OA
ATOM      4  N   UNL     1      13.415   4.289  -0.795  0.00  0.00    -0.300 N 
ATOM      5  N   UNL     1      12.684   5.635   2.007  0.00  0.00    -0.311 N 
ATOM      6  C   UNL     1      14.960   4.956   1.052  0.00  0.00    +0.027 C 
ATOM      7  C   UNL     1      13.243   3.241   1.456  0.00  0.00    +0.054 C 
ATOM      8  C   UNL     1      14.694   3.622   1.739  0.00  0.00    +0.018 C 
ATOM      9  C   UNL     1      14.733   4.833  -0.466  0.00  0.00    +0.113 C 
ATOM     10  C   UNL     1      13.043   3.069  -0.063  0.00  0.00    +0.117 C 
ATOM     11  C   UNL     1      14.062   6.026   1.683  0.00  0.00    +0.130 C 
ATOM     12  C   UNL     1      12.288   4.295   1.984  0.00  0.00    +0.027 A 
ATOM     14  C   UNL     1      12.653   4.886  -1.799  0.00  0.00    +0.219 C 
ATOM     17  C   UNL     1      11.059   3.949   2.399  0.00  0.00    +0.022 A 
ATOM     20  C   UNL     1      11.822   6.660   2.445  0.00  0.00    +0.259 A 
ATOM     22  C   UNL     1      10.439   6.244   2.868  0.00  0.00    +0.047 A 
ATOM     23  C   UNL     1      10.122   4.941   2.842  0.00  0.00    +0.015 A 
ENDROOT
BRANCH  22  24
ATOM      1 CL   UNL     1       6.388  10.286   4.620  0.00  0.00    -0.084 Cl
ATOM     24  C   UNL     1       9.441   7.239   3.299  0.00  0.00    -0.013 A 
ATOM     25  C   UNL     1       8.782   8.023   2.352  0.00  0.00    +0.010 A 
ATOM     26  C   UNL     1       9.155   7.399   4.656  0.00  0.00    +0.010 A 
ATOM     27  C   UNL     1       7.837   8.965   2.760  0.00  0.00    +0.020 A 
ATOM     28  C   UNL     1       8.211   8.341   5.064  0.00  0.00    +0.020 A 
ATOM     29  C   UNL     1       7.552   9.125   4.117  0.00  0.00    +0.041 A 
ENDBRANCH  22  24
BRANCH  14  13
ATOM     13  C   UNL     1      11.353   4.222  -2.141  0.00  0.00    +0.075 C 
ATOM     15  C   UNL     1      11.596   3.064  -3.110  0.00  0.00    +0.013 C 
ATOM     16  C   UNL     1      10.382   5.249  -2.729  0.00  0.00    +0.013 C 
ATOM     18  C   UNL     1      10.288   2.418  -3.559  0.00  0.00    +0.001 C 
ATOM     19  C   UNL     1       9.076   4.598  -3.177  0.00  0.00    +0.001 C 
ATOM     21  C   UNL     1       9.326   3.445  -4.146  0.00  0.00    +0.000 C 
ENDBRANCH  14  13
TORSDOF 2
ENDMDL
MODEL 5
REMARK VINA RESULT:      -7.2     25.683     28.202
REMARK  Name = 11885159
REMARK  2 active torsions:
REMARK  status: ('A' for Active; 'I' for Inactive)
REMARK    1  A    between atoms: C_13  and  C_14
REMARK    2  A    between atoms: C_22  and  C_24
REMARK                            x       y       z     vdW  Elec       q    Type
REMARK                         _______ _______ _______ _____ _____    ______ ____
ROOT
ATOM      2  O   UNL     1     -14.453  12.071  16.010  0.00  0.00    -0.275 OA
ATOM      3  O   UNL     1     -12.822   9.955  20.643  0.00  0.00    -0.267 OA
ATOM      4  N   UNL     1     -12.169  11.648  15.961  0.00  0.00    -0.300 N 
ATOM      5  N   UNL     1     -11.492  10.249  18.750  0.00  0.00    -0.311 N 
ATOM      6  C   UNL     1     -10.842  12.563  17.869  0.00  0.00    +0.027 C 
ATOM      7  C   UNL     1     -10.063  10.546  16.696  0.00  0.00    +0.054 C 
ATOM      8  C   UNL     1      -9.604  11.857  17.331  0.00  0.00    +0.018 C 
ATOM      9  C   UNL     1     -11.837  12.848  16.729  0.00  0.00    +0.113 C 
ATOM     10  C   UNL     1     -11.016  10.847  15.523  0.00  0.00    +0.117 C 
ATOM     11  C   UNL     1     -11.463  11.700  18.973  0.00  0.00    +0.130 C 
ATOM     12  C   UNL     1     -10.762   9.663  17.713  0.00  0.00    +0.027 A 
ATOM     14  C   UNL     1     -13.499  11.386  15.631  0.00  0.00    +0.219 C 
ATOM     17  C   UNL     1     -10.706   8.326  17.601  0.00  0.00    +0.022 A 
ATOM     20  C   UNL     1     -12.197   9.477  19.695  0.00  0.00    +0.259 A 
ATOM     22  C   UNL     1     -12.145   7.983  19.520  0.00  0.00    +0.047 A 
ATOM     23  C   UNL     1     -11.413   7.478  18.517  0.00  0.00    +0.015 A 
ENDROOT
BRANCH  22  24
ATOM      1 CL   UNL     1     -15.148   4.328  23.186  0.00  0.00    -0.084 Cl
ATOM     24  C   UNL     1     -12.884   7.083  20.423  0.00  0.00    -0.013 A 
ATOM     25  C   UNL     1     -12.190   6.236  21.288  0.00  0.00    +0.010 A 
ATOM     26  C   UNL     1     -14.280   7.077  20.415  0.00  0.00    +0.010 A 
ATOM     27  C   UNL     1     -12.890   5.384  22.142  0.00  0.00    +0.020 A 
ATOM     28  C   UNL     1     -14.979   6.225  21.269  0.00  0.00    +0.020 A 
ATOM     29  C   UNL     1     -14.285   5.378  22.132  0.00  0.00    +0.041 A 
ENDBRANCH  22  24
BRANCH  14  13
ATOM     13  C   UNL     1     -13.755  10.186  14.769  0.00  0.00    +0.075 C 
ATOM     15  C   UNL     1     -14.968  10.437  13.871  0.00  0.00    +0.013 C 
ATOM     16  C   UNL     1     -13.955   8.947  15.646  0.00  0.00    +0.013 C 
ATOM     18  C   UNL     1     -15.322   9.205  13.043  0.00  0.00    +0.001 C 
ATOM     19  C   UNL     1     -14.310   7.719  14.813  0.00  0.00    +0.001 C 
ATOM     21  C   UNL     1     -15.523   7.975  13.921  0.00  0.00    +0.000 C 
ENDBRANCH  14  13
TORSDOF 2
ENDMDL
MODEL 6
REMARK VINA RESULT:      -7.2      1.983      2.889
REMARK  Name = 11885159
REMARK  2 active torsions:
REMARK  status: ('A' for Active; 'I' for Inactive)
REMARK    1  A    between atoms: C_13  and  C_14
REMARK    2  A    between atoms: C_22  and  C_24
REMARK                            x       y       z     vdW  Elec       q    Type
REMARK                         _______ _______ _______ _____ _____    ______ ____
ROOT
ATOM      2  O   UNL     1      14.464  10.593  16.051  0.00  0.00    -0.275 OA
ATOM      3  O   UNL     1      15.926   6.202  18.731  0.00  0.00    -0.267 OA
ATOM      4  N   UNL     1      13.160  10.320  17.954  0.00  0.00    -0.300 N 
ATOM      5  N   UNL     1      14.335   7.752  19.443  0.00  0.00    -0.311 N 
ATOM      6  C   UNL     1      12.097   8.078  18.244  0.00  0.00    +0.027 C 
ATOM      7  C   UNL     1      12.633   9.439  20.221  0.00  0.00    +0.054 C 
ATOM      8  C   UNL     1      11.585   8.511  19.612  0.00  0.00    +0.018 C 
ATOM      9  C   UNL     1      12.308   9.304  17.336  0.00  0.00    +0.113 C 
ATOM     10  C   UNL     1      12.796  10.687  19.331  0.00  0.00    +0.117 C 
ATOM     11  C   UNL     1      13.387   7.271  18.430  0.00  0.00    +0.130 C 
ATOM     12  C   UNL     1      13.969   8.735  20.366  0.00  0.00    +0.027 A 
ATOM     14  C   UNL     1      14.175  10.917  17.206  0.00  0.00    +0.219 C 
ATOM     17  C   UNL     1      14.809   9.072  21.358  0.00  0.00    +0.022 A 
ATOM     20  C   UNL     1      15.581   7.097  19.505  0.00  0.00    +0.259 A 
ATOM     22  C   UNL     1      16.515   7.524  20.605  0.00  0.00    +0.047 A 
ATOM     23  C   UNL     1      16.102   8.459  21.473  0.00  0.00    +0.015 A 
ENDROOT
BRANCH  22  24
ATOM      1 CL   UNL     1      21.983   5.148  21.126  0.00  0.00    -0.084 Cl
ATOM     24  C   UNL     1      17.861   6.939  20.734  0.00  0.00    -0.013 A 
ATOM     25  C   UNL     1      18.783   7.495  21.622  0.00  0.00    +0.010 A 
ATOM     26  C   UNL     1      18.216   5.828  19.967  0.00  0.00    +0.010 A 
ATOM     27  C   UNL     1      20.057   6.941  21.743  0.00  0.00    +0.020 A 
ATOM     28  C   UNL     1      19.491   5.275  20.089  0.00  0.00    +0.020 A 
ATOM     29  C   UNL     1      20.411   5.831  20.976  0.00  0.00    +0.041 A 
ENDBRANCH  22  24
BRANCH  14  13
ATOM     13  C   UNL     1      14.951  12.011  17.877  0.00  0.00    +0.075 C 
ATOM     15  C   UNL     1      15.568  12.934  16.825  0.00  0.00    +0.013 C 
ATOM     16  C   UNL     1      16.022  11.407  18.790  0.00  0.00    +0.013 C 
ATOM     18  C   UNL     1      16.445  14.009  17.462  0.00  0.00    +0.001 C 
ATOM     19  C   UNL     1      16.897  12.486  19.422  0.00  0.00    +0.001 C 
ATOM     21  C   UNL     1      17.512  13.402  18.367  0.00  0.00    +0.000 C 
ENDBRANCH  14  13
TORSDOF 2
ENDMDL
MODEL 7
REMARK VINA RESULT:      -7.2      3.496      6.418
REMARK  Name = 11885159
REMARK  2 active torsions:
REMARK  status: ('A' for Active; 'I' for Inactive)
REMARK    1  A    between atoms: C_13  and  C_14
REMARK    2  A    between atoms: C_22  and  C_24
REMARK                            x       y       z     vdW  Elec       q    Type
REMARK                         _______ _______ _______ _____ _____    ______ ____
ROOT
ATOM      2  O   UNL     1      10.872   8.727  21.269  0.00  0.00    -0.275 OA
ATOM      3  O   UNL     1      13.832   9.169  16.837  0.00  0.00    -0.267 OA
ATOM      4  N   UNL     1      13.112   8.321  21.733  0.00  0.00    -0.300 N 
ATOM      5  N   UNL     1      14.664   8.808  18.986  0.00  0.00    -0.311 N 
ATOM      6  C   UNL     1      14.247   6.638  20.278  0.00  0.00    +0.027 C 
ATOM      7  C   UNL     1      15.561   8.442  21.311  0.00  0.00    +0.054 C 
ATOM      8  C   UNL     1      15.570   6.955  20.963  0.00  0.00    +0.018 C 
ATOM      9  C   UNL     1      13.067   6.953  21.214  0.00  0.00    +0.113 C 
ATOM     10  C   UNL     1      14.408   8.735  22.291  0.00  0.00    +0.117 C 
ATOM     11  C   UNL     1      14.168   7.426  18.965  0.00  0.00    +0.130 C 
ATOM     12  C   UNL     1      15.405   9.294  20.066  0.00  0.00    +0.027 A 
ATOM     14  C   UNL     1      11.950   9.093  21.743  0.00  0.00    +0.219 C 
ATOM     17  C   UNL     1      15.951  10.519  20.010  0.00  0.00    +0.022 A 
ATOM     20  C   UNL     1      14.450   9.574  17.823  0.00  0.00    +0.259 A 
ATOM     22  C   UNL     1      15.043  10.958  17.806  0.00  0.00    +0.047 A 
ATOM     23  C   UNL     1      15.761  11.362  18.864  0.00  0.00    +0.015 A 
ENDROOT
BRANCH  22  24
ATOM      1 CL   UNL     1      14.224  14.630  13.152  0.00  0.00    -0.084 Cl
ATOM     24  C   UNL     1      14.841  11.861  16.660  0.00  0.00    -0.013 A 
ATOM     25  C   UNL     1      15.379  11.540  15.414  0.00  0.00    +0.010 A 
ATOM     26  C   UNL     1      14.112  13.040  16.820  0.00  0.00    +0.010 A 
ATOM     27  C   UNL     1      15.188  12.395  14.329  0.00  0.00    +0.020 A 
ATOM     28  C   UNL     1      13.921  13.896  15.736  0.00  0.00    +0.020 A 
ATOM     29  C   UNL     1      14.459  13.574  14.490  0.00  0.00    +0.041 A 
ENDBRANCH  22  24
BRANCH  14  13
ATOM     13  C   UNL     1      12.052  10.452  22.369  0.00  0.00    +0.075 C 
ATOM     15  C   UNL     1      10.909  10.655  23.365  0.00  0.00    +0.013 C 
ATOM     16  C   UNL     1      12.043  11.529  21.281  0.00  0.00    +0.013 C 
ATOM     18  C   UNL     1      10.919  12.061  23.958  0.00  0.00    +0.001 C 
ATOM     19  C   UNL     1      12.051  12.934  21.879  0.00  0.00    +0.001 C 
ATOM     21  C   UNL     1      10.907  13.130  22.870  0.00  0.00    +0.000 C 
ENDBRANCH  14  13
TORSDOF 2
ENDMDL
MODEL 8
REMARK VINA RESULT:      -7.1     22.509     25.896
REMARK  Name = 11885159
REMARK  2 active torsions:
REMARK  status: ('A' for Active; 'I' for Inactive)
REMARK    1  A    between atoms: C_13  and  C_14
REMARK    2  A    between atoms: C_22  and  C_24
REMARK                            x       y       z     vdW  Elec       q    Type
REMARK                         _______ _______ _______ _____ _____    ______ ____
ROOT
ATOM      2  O   UNL     1      -3.189  12.155   2.709  0.00  0.00    -0.275 OA
ATOM      3  O   UNL     1      -6.654   9.557   5.847  0.00  0.00    -0.267 OA
ATOM      4  N   UNL     1      -2.067  10.793   4.221  0.00  0.00    -0.300 N 
ATOM      5  N   UNL     1      -4.342   9.247   5.841  0.00  0.00    -0.311 N 
ATOM      6  C   UNL     1      -2.708  11.056   6.620  0.00  0.00    +0.027 C 
ATOM      7  C   UNL     1      -1.847   8.897   5.817  0.00  0.00    +0.054 C 
ATOM      8  C   UNL     1      -1.800   9.886   6.979  0.00  0.00    +0.018 C 
ATOM      9  C   UNL     1      -2.223  11.737   5.328  0.00  0.00    +0.113 C 
ATOM     10  C   UNL     1      -1.309   9.574   4.541  0.00  0.00    +0.117 C 
ATOM     11  C   UNL     1      -4.148  10.546   6.497  0.00  0.00    +0.130 C 
ATOM     12  C   UNL     1      -3.262   8.402   5.578  0.00  0.00    +0.027 A 
ATOM     14  C   UNL     1      -2.554  11.126   2.957  0.00  0.00    +0.219 C 
ATOM     17  C   UNL     1      -3.474   7.169   5.089  0.00  0.00    +0.022 A 
ATOM     20  C   UNL     1      -5.673   8.854   5.596  0.00  0.00    +0.259 A 
ATOM     22  C   UNL     1      -5.876   7.482   5.013  0.00  0.00    +0.047 A 
ATOM     23  C   UNL     1      -4.802   6.709   4.799  0.00  0.00    +0.015 A 
ENDROOT
BRANCH  22  24
ATOM      1 CL   UNL     1     -11.345   5.478   3.636  0.00  0.00    -0.084 Cl
ATOM     24  C   UNL     1      -7.223   6.989   4.673  0.00  0.00    -0.013 A 
ATOM     25  C   UNL     1      -7.894   7.498   3.561  0.00  0.00    +0.010 A 
ATOM     26  C   UNL     1      -7.828   6.011   5.464  0.00  0.00    +0.010 A 
ATOM     27  C   UNL     1      -9.168   7.031   3.240  0.00  0.00    +0.020 A 
ATOM     28  C   UNL     1      -9.103   5.544   5.143  0.00  0.00    +0.020 A 
ATOM     29  C   UNL     1      -9.773   6.054   4.032  0.00  0.00    +0.041 A 
ENDBRANCH  22  24
BRANCH  14  13
ATOM     13  C   UNL     1      -2.282  10.148   1.852  0.00  0.00    +0.075 C 
ATOM     15  C   UNL     1      -0.959  10.492   1.166  0.00  0.00    +0.013 C 
ATOM     16  C   UNL     1      -3.445  10.148   0.857  0.00  0.00    +0.013 C 
ATOM     18  C   UNL     1      -0.687   9.578  -0.026  0.00  0.00    +0.001 C 
ATOM     19  C   UNL     1      -3.167   9.235  -0.334  0.00  0.00    +0.001 C 
ATOM     21  C   UNL     1      -1.847   9.585  -1.016  0.00  0.00    +0.000 C 
ENDBRANCH  14  13
TORSDOF 2
ENDMDL
MODEL 9
REMARK VINA RESULT:      -7.1     27.007     29.772
REMARK  Name = 11885159
REMARK  2 active torsions:
REMARK  status: ('A' for Active; 'I' for Inactive)
REMARK    1  A    between atoms: C_13  and  C_14
REMARK    2  A    between atoms: C_22  and  C_24
REMARK                            x       y       z     vdW  Elec       q    Type
REMARK                         _______ _______ _______ _____ _____    ______ ____
ROOT
ATOM      2  O   UNL     1      -4.134 -14.681  12.591  0.00  0.00    -0.275 OA
ATOM      3  O   UNL     1      -6.724 -10.239  14.060  0.00  0.00    -0.267 OA
ATOM      4  N   UNL     1      -2.631 -13.013  13.187  0.00  0.00    -0.300 N 
ATOM      5  N   UNL     1      -4.416 -10.556  14.171  0.00  0.00    -0.311 N 
ATOM      6  C   UNL     1      -2.956 -10.797  12.082  0.00  0.00    +0.027 C 
ATOM      7  C   UNL     1      -1.925 -10.910  14.312  0.00  0.00    +0.054 C 
ATOM      8  C   UNL     1      -1.853 -10.213  12.955  0.00  0.00    +0.018 C 
ATOM      9  C   UNL     1      -2.759 -12.313  11.908  0.00  0.00    +0.113 C 
ATOM     10  C   UNL     1      -1.673 -12.419  14.131  0.00  0.00    +0.117 C 
ATOM     11  C   UNL     1      -4.314 -10.461  12.709  0.00  0.00    +0.130 C 
ATOM     12  C   UNL     1      -3.276 -10.690  14.967  0.00  0.00    +0.027 A 
ATOM     14  C   UNL     1      -3.334 -14.200  13.397  0.00  0.00    +0.219 C 
ATOM     17  C   UNL     1      -3.382 -10.653  16.306  0.00  0.00    +0.022 A 
ATOM     20  C   UNL     1      -5.700 -10.394  14.728  0.00  0.00    +0.259 A 
ATOM     22  C   UNL     1      -5.790 -10.395  16.230  0.00  0.00    +0.047 A 
ATOM     23  C   UNL     1      -4.660 -10.508  16.942  0.00  0.00    +0.015 A 
ENDROOT
BRANCH  22  24
ATOM      1 CL   UNL     1     -11.065  -9.927  19.018  0.00  0.00    -0.084 Cl
ATOM     24  C   UNL     1      -7.089 -10.280  16.917  0.00  0.00    -0.013 A 
ATOM     25  C   UNL     1      -7.608 -11.370  17.616  0.00  0.00    +0.010 A 
ATOM     26  C   UNL     1      -7.801  -9.081  16.868  0.00  0.00    +0.010 A 
ATOM     27  C   UNL     1      -8.837 -11.261  18.267  0.00  0.00    +0.020 A 
ATOM     28  C   UNL     1      -9.031  -8.972  17.518  0.00  0.00    +0.020 A 
ATOM     29  C   UNL     1      -9.549 -10.062  18.217  0.00  0.00    +0.041 A 
ENDBRANCH  22  24
BRANCH  14  13
ATOM     13  C   UNL     1      -3.087 -14.906  14.696  0.00  0.00    +0.075 C 
ATOM     15  C   UNL     1      -2.230 -16.151  14.458  0.00  0.00    +0.013 C 
ATOM     16  C   UNL     1      -4.421 -15.263  15.358  0.00  0.00    +0.013 C 
ATOM     18  C   UNL     1      -2.031 -16.954  15.742  0.00  0.00    +0.001 C 
ATOM     19  C   UNL     1      -4.216 -16.068  16.639  0.00  0.00    +0.001 C 
ATOM     21  C   UNL     1      -3.363 -17.309  16.395  0.00  0.00    +0.000 C 
ENDBRANCH  14  13
TORSDOF 2
ENDMDL
MODEL 10
REMARK VINA RESULT:      -6.9     12.100     14.458
REMARK  Name = 11885159
REMARK  2 active torsions:
REMARK  status: ('A' for Active; 'I' for Inactive)
REMARK    1  A    between atoms: C_13  and  C_14
REMARK    2  A    between atoms: C_22  and  C_24
REMARK                            x       y       z     vdW  Elec       q    Type
REMARK                         _______ _______ _______ _____ _____    ______ ____
ROOT
ATOM      2  O   UNL     1       9.020  10.919   6.443  0.00  0.00    -0.275 OA
ATOM      3  O   UNL     1      12.733   8.166   3.752  0.00  0.00    -0.267 OA
ATOM      4  N   UNL     1       8.921   8.662   6.983  0.00  0.00    -0.300 N 
ATOM      5  N   UNL     1      11.322   7.288   5.388  0.00  0.00    -0.311 N 
ATOM      6  C   UNL     1       8.792   7.077   5.056  0.00  0.00    +0.027 C 
ATOM      7  C   UNL     1       9.812   6.346   7.172  0.00  0.00    +0.054 C 
ATOM      8  C   UNL     1       8.903   5.907   6.027  0.00  0.00    +0.018 C 
ATOM      9  C   UNL     1       8.195   8.307   5.763  0.00  0.00    +0.113 C 
ATOM     10  C   UNL     1       9.177   7.544   7.904  0.00  0.00    +0.117 C 
ATOM     11  C   UNL     1      10.179   7.366   4.470  0.00  0.00    +0.130 C 
ATOM     12  C   UNL     1      11.189   6.728   6.661  0.00  0.00    +0.027 A 
ATOM     14  C   UNL     1       9.244   9.996   7.230  0.00  0.00    +0.219 C 
ATOM     17  C   UNL     1      12.271   6.556   7.437  0.00  0.00    +0.022 A 
ATOM     20  C   UNL     1      12.570   7.701   4.881  0.00  0.00    +0.259 A 
ATOM     22  C   UNL     1      13.758   7.530   5.789  0.00  0.00    +0.047 A 
ATOM     23  C   UNL     1      13.572   6.969   6.993  0.00  0.00    +0.015 A 
ENDROOT
BRANCH  22  24
ATOM      1 CL   UNL     1      19.218   9.323   4.119  0.00  0.00    -0.084 Cl
ATOM     24  C   UNL     1      15.102   7.971   5.379  0.00  0.00    -0.013 A 
ATOM     25  C   UNL     1      15.742   9.001   6.071  0.00  0.00    +0.010 A 
ATOM     26  C   UNL     1      15.738   7.361   4.296  0.00  0.00    +0.010 A 
ATOM     27  C   UNL     1      17.014   9.418   5.682  0.00  0.00    +0.020 A 
ATOM     28  C   UNL     1      17.010   7.779   3.907  0.00  0.00    +0.020 A 
ATOM     29  C   UNL     1      17.648   8.808   4.599  0.00  0.00    +0.041 A 
ENDBRANCH  22  24
BRANCH  14  13
ATOM     13  C   UNL     1       9.910  10.295   8.540  0.00  0.00    +0.075 C 
ATOM     15  C   UNL     1       9.005  11.183   9.396  0.00  0.00    +0.013 C 
ATOM     16  C   UNL     1      11.270  10.954   8.294  0.00  0.00    +0.013 C 
ATOM     18  C   UNL     1       9.683  11.589  10.701  0.00  0.00    +0.001 C 
ATOM     19  C   UNL     1      11.943  11.361   9.603  0.00  0.00    +0.001 C 
ATOM     21  C   UNL     1      11.036  12.248  10.451  0.00  0.00    +0.000 C 
ENDBRANCH  14  13
TORSDOF 2
ENDMDL
