MODEL 1
REMARK VINA RESULT:      -6.2      0.000      0.000
REMARK  Name = 75536033
REMARK  8 active torsions:
REMARK  status: ('A' for Active; 'I' for Inactive)
REMARK    1  A    between atoms: O_4  and  C_31
REMARK    2  A    between atoms: O_4  and  C_32
REMARK    3  A    between atoms: N_8  and  C_11
REMARK    4  A    between atoms: N_10  and  C_29
REMARK    5  A    between atoms: C_12  and  C_28
REMARK    6  A    between atoms: C_13  and  C_19
REMARK    7  A    between atoms: C_29  and  C_30
REMARK    8  A    between atoms: C_29  and  C_31
REMARK                            x       y       z     vdW  Elec       q    Type
REMARK                         _______ _______ _______ _____ _____    ______ ____
ROOT
ATOM      1  O   UNL     1      11.250   6.395   5.855  0.00  0.00    -0.275 OA
ATOM      2  O   UNL     1      16.979  10.940   6.332  0.00  0.00    -0.253 OA
ATOM      6  N   UNL     1      12.753   8.161   6.029  0.00  0.00    -0.298 N 
ATOM      7  N   UNL     1      15.462   9.230   5.905  0.00  0.00    -0.271 N 
ATOM      8  N   UNL     1      17.696   9.112   5.136  0.00  0.00    -0.296 N 
ATOM     12  C   UNL     1      15.166   7.855   5.473  0.00  0.00    +0.181 C 
ATOM     14  C   UNL     1      13.916   7.277   6.141  0.00  0.00    +0.139 C 
ATOM     15  C   UNL     1      13.011   9.603   6.071  0.00  0.00    +0.127 C 
ATOM     18  C   UNL     1      14.394   9.939   6.615  0.00  0.00    +0.129 C 
ATOM     19  C   UNL     1      11.480   7.607   5.893  0.00  0.00    +0.219 C 
ATOM     25  C   UNL     1      16.732   9.839   5.829  0.00  0.00    +0.303 C 
ATOM     33  H   UNL     1      17.432   8.273   4.636  0.00  0.00    +0.151 HD
ENDROOT
BRANCH  19  13
ATOM      9  N   UNL     1       7.841   7.332   6.687  0.00  0.00    -0.316 NA
ATOM     13  C   UNL     1      10.340   8.582   5.793  0.00  0.00    +0.078 C 
ATOM     22  C   UNL     1       9.276   8.078   4.815  0.00  0.00    +0.028 C 
ATOM     23  C   UNL     1       9.733   8.851   7.171  0.00  0.00    +0.028 C 
ATOM     26  C   UNL     1       8.433   6.947   5.406  0.00  0.00    +0.081 C 
ATOM     27  C   UNL     1       8.871   7.687   7.663  0.00  0.00    +0.081 C 
ATOM     34  H   UNL     1       7.288   6.556   7.049  0.00  0.00    +0.122 HD
ENDBRANCH  19  13
BRANCH   8  11
ATOM     11  C   UNL     1      19.047   9.597   4.963  0.00  0.00    +0.074 C 
ATOM     16  C   UNL     1      19.770   8.829   3.853  0.00  0.00    +0.022 C 
ATOM     17  C   UNL     1      19.827   9.533   6.281  0.00  0.00    +0.022 C 
ATOM     20  C   UNL     1      20.118   7.397   4.262  0.00  0.00    +0.002 C 
ATOM     21  C   UNL     1      20.175   8.101   6.686  0.00  0.00    +0.002 C 
ATOM     24  C   UNL     1      20.904   7.361   5.570  0.00  0.00    +0.000 C 
ENDBRANCH   8  11
BRANCH  12  28
ATOM      3  O   UNL     1      15.256   8.869   3.311  0.00  0.00    -0.274 OA
ATOM     10  N   UNL     1      14.460   6.690   3.501  0.00  0.00    -0.301 N 
ATOM     28  C   UNL     1      14.981   7.879   3.983  0.00  0.00    +0.236 C 
ATOM     35  H   UNL     1      14.246   5.941   4.155  0.00  0.00    +0.150 HD
BRANCH  10  29
ATOM     29  C   UNL     1      14.168   6.463   2.104  0.00  0.00    +0.179 C 
ATOM     30  C   UNL     1      12.756   6.927   1.784  0.00  0.00    +0.040 C 
BRANCH  29  31
ATOM      5  O   UNL     1      15.379   4.574   1.208  0.00  0.00    -0.249 OA
ATOM     31  C   UNL     1      14.346   5.004   1.713  0.00  0.00    +0.327 C 
BRANCH  31   4
ATOM      4  O   UNL     1      13.236   4.259   1.980  0.00  0.00    -0.467 OA
ATOM     32  C   UNL     1      12.962   3.199   1.058  0.00  0.00    +0.280 C 
ENDBRANCH  31   4
ENDBRANCH  29  31
ENDBRANCH  10  29
ENDBRANCH  12  28
TORSDOF 6
ENDMDL
MODEL 2
REMARK VINA RESULT:      -6.2     26.527     30.375
REMARK  Name = 75536033
REMARK  8 active torsions:
REMARK  status: ('A' for Active; 'I' for Inactive)
REMARK    1  A    between atoms: O_4  and  C_31
REMARK    2  A    between atoms: O_4  and  C_32
REMARK    3  A    between atoms: N_8  and  C_11
REMARK    4  A    between atoms: N_10  and  C_29
REMARK    5  A    between atoms: C_12  and  C_28
REMARK    6  A    between atoms: C_13  and  C_19
REMARK    7  A    between atoms: C_29  and  C_30
REMARK    8  A    between atoms: C_29  and  C_31
REMARK                            x       y       z     vdW  Elec       q    Type
REMARK                         _______ _______ _______ _____ _____    ______ ____
ROOT
ATOM      1  O   UNL     1      -9.306  -9.141  17.427  0.00  0.00    -0.275 OA
ATOM      2  O   UNL     1      -7.210 -12.457  11.237  0.00  0.00    -0.253 OA
ATOM      6  N   UNL     1      -8.913 -10.526  15.601  0.00  0.00    -0.298 N 
ATOM      7  N   UNL     1      -7.427 -11.213  13.190  0.00  0.00    -0.271 N 
ATOM      8  N   UNL     1      -5.475 -11.083  11.859  0.00  0.00    -0.296 N 
ATOM     12  C   UNL     1      -6.982 -10.125  14.074  0.00  0.00    +0.181 C 
ATOM     14  C   UNL     1      -8.124  -9.517  14.891  0.00  0.00    +0.139 C 
ATOM     15  C   UNL     1      -9.092 -11.818  14.932  0.00  0.00    +0.127 C 
ATOM     18  C   UNL     1      -8.760 -11.763  13.446  0.00  0.00    +0.129 C 
ATOM     19  C   UNL     1      -9.450 -10.223  16.853  0.00  0.00    +0.219 C 
ATOM     25  C   UNL     1      -6.738 -11.642  12.036  0.00  0.00    +0.303 C 
ATOM     33  H   UNL     1      -5.070 -10.511  12.589  0.00  0.00    +0.151 HD
ENDROOT
BRANCH  19  13
ATOM      9  N   UNL     1     -10.206 -11.000  20.427  0.00  0.00    -0.316 NA
ATOM     13  C   UNL     1     -10.254 -11.311  17.510  0.00  0.00    +0.078 C 
ATOM     22  C   UNL     1      -9.369 -12.172  18.414  0.00  0.00    +0.028 C 
ATOM     23  C   UNL     1     -11.429 -10.720  18.294  0.00  0.00    +0.028 C 
ATOM     26  C   UNL     1      -9.011 -11.462  19.721  0.00  0.00    +0.081 C 
ATOM     27  C   UNL     1     -10.983 -10.072  19.605  0.00  0.00    +0.081 C 
ATOM     34  H   UNL     1      -9.929 -10.535  21.290  0.00  0.00    +0.122 HD
ENDBRANCH  19  13
BRANCH   8  11
ATOM     11  C   UNL     1      -4.638 -11.419  10.729  0.00  0.00    +0.074 C 
ATOM     16  C   UNL     1      -3.201 -11.710  11.176  0.00  0.00    +0.022 C 
ATOM     17  C   UNL     1      -4.676 -10.314   9.668  0.00  0.00    +0.022 C 
ATOM     20  C   UNL     1      -2.457 -10.448  11.613  0.00  0.00    +0.002 C 
ATOM     21  C   UNL     1      -3.929  -9.055  10.107  0.00  0.00    +0.002 C 
ATOM     24  C   UNL     1      -2.500  -9.368  10.536  0.00  0.00    +0.000 C 
ENDBRANCH   8  11
BRANCH  12  28
ATOM      3  O   UNL     1      -5.678 -11.888  15.025  0.00  0.00    -0.274 OA
ATOM     10  N   UNL     1      -5.361  -9.712  15.791  0.00  0.00    -0.301 N 
ATOM     28  C   UNL     1      -5.940 -10.688  14.998  0.00  0.00    +0.236 C 
ATOM     35  H   UNL     1      -5.674  -8.750  15.701  0.00  0.00    +0.150 HD
BRANCH  10  29
ATOM     29  C   UNL     1      -4.345  -9.997  16.779  0.00  0.00    +0.179 C 
ATOM     30  C   UNL     1      -3.162 -10.694  16.126  0.00  0.00    +0.040 C 
BRANCH  29  31
ATOM      5  O   UNL     1      -5.860 -10.500  18.593  0.00  0.00    -0.249 OA
ATOM     31  C   UNL     1      -4.886 -10.837  17.926  0.00  0.00    +0.327 C 
BRANCH  31   4
ATOM      4  O   UNL     1      -4.162 -11.976  18.119  0.00  0.00    -0.467 OA
ATOM     32  C   UNL     1      -3.686 -12.193  19.451  0.00  0.00    +0.280 C 
ENDBRANCH  31   4
ENDBRANCH  29  31
ENDBRANCH  10  29
ENDBRANCH  12  28
TORSDOF 6
ENDMDL
MODEL 3
REMARK VINA RESULT:      -6.0     27.429     31.685
REMARK  Name = 75536033
REMARK  8 active torsions:
REMARK  status: ('A' for Active; 'I' for Inactive)
REMARK    1  A    between atoms: O_4  and  C_31
REMARK    2  A    between atoms: O_4  and  C_32
REMARK    3  A    between atoms: N_8  and  C_11
REMARK    4  A    between atoms: N_10  and  C_29
REMARK    5  A    between atoms: C_12  and  C_28
REMARK    6  A    between atoms: C_13  and  C_19
REMARK    7  A    between atoms: C_29  and  C_30
REMARK    8  A    between atoms: C_29  and  C_31
REMARK                            x       y       z     vdW  Elec       q    Type
REMARK                         _______ _______ _______ _____ _____    ______ ____
ROOT
ATOM      1  O   UNL     1      -5.684 -10.018  17.670  0.00  0.00    -0.275 OA
ATOM      2  O   UNL     1     -12.897  -8.805  17.220  0.00  0.00    -0.253 OA
ATOM      6  N   UNL     1      -8.006  -9.993  17.800  0.00  0.00    -0.298 N 
ATOM      7  N   UNL     1     -10.603  -9.013  16.908  0.00  0.00    -0.271 N 
ATOM      8  N   UNL     1     -11.983  -8.025  15.261  0.00  0.00    -0.296 N 
ATOM     12  C   UNL     1      -9.370  -8.670  16.183  0.00  0.00    +0.181 C 
ATOM     14  C   UNL     1      -8.122  -8.729  17.067  0.00  0.00    +0.139 C 
ATOM     15  C   UNL     1      -9.255 -10.617  18.244  0.00  0.00    +0.127 C 
ATOM     18  C   UNL     1     -10.437  -9.657  18.214  0.00  0.00    +0.129 C 
ATOM     19  C   UNL     1      -6.742 -10.534  18.040  0.00  0.00    +0.219 C 
ATOM     25  C   UNL     1     -11.900  -8.625  16.514  0.00  0.00    +0.303 C 
ATOM     33  H   UNL     1     -11.169  -7.999  14.659  0.00  0.00    +0.151 HD
ENDROOT
BRANCH  19  13
ATOM      9  N   UNL     1      -4.160 -13.211  18.372  0.00  0.00    -0.316 NA
ATOM     13  C   UNL     1      -6.710 -11.827  18.806  0.00  0.00    +0.078 C 
ATOM     22  C   UNL     1      -6.572 -13.020  17.857  0.00  0.00    +0.028 C 
ATOM     23  C   UNL     1      -5.583 -11.818  19.841  0.00  0.00    +0.028 C 
ATOM     26  C   UNL     1      -5.154 -13.157  17.301  0.00  0.00    +0.081 C 
ATOM     27  C   UNL     1      -4.207 -12.006  19.201  0.00  0.00    +0.081 C 
ATOM     34  H   UNL     1      -3.230 -13.304  17.965  0.00  0.00    +0.122 HD
ENDBRANCH  19  13
BRANCH   8  11
ATOM     11  C   UNL     1     -13.239  -7.572  14.707  0.00  0.00    +0.074 C 
ATOM     16  C   UNL     1     -13.381  -7.999  13.242  0.00  0.00    +0.022 C 
ATOM     17  C   UNL     1     -13.394  -6.055  14.861  0.00  0.00    +0.022 C 
ATOM     20  C   UNL     1     -12.455  -7.215  12.312  0.00  0.00    +0.002 C 
ATOM     21  C   UNL     1     -12.468  -5.275  13.929  0.00  0.00    +0.002 C 
ATOM     24  C   UNL     1     -12.635  -5.708  12.476  0.00  0.00    +0.000 C 
ENDBRANCH   8  11
BRANCH  12  28
ATOM      3  O   UNL     1     -10.068 -10.509  14.826  0.00  0.00    -0.274 OA
ATOM     10  N   UNL     1      -8.069  -9.430  14.318  0.00  0.00    -0.301 N 
ATOM     28  C   UNL     1      -9.230  -9.637  15.042  0.00  0.00    +0.236 C 
ATOM     35  H   UNL     1      -7.432  -8.691  14.604  0.00  0.00    +0.150 HD
BRANCH  10  29
ATOM     29  C   UNL     1      -7.688 -10.241  13.184  0.00  0.00    +0.179 C 
ATOM     30  C   UNL     1      -6.531 -11.154  13.560  0.00  0.00    +0.040 C 
BRANCH  29  31
ATOM      5  O   UNL     1      -8.051  -9.294  10.992  0.00  0.00    -0.249 OA
ATOM     31  C   UNL     1      -7.322  -9.394  11.975  0.00  0.00    +0.327 C 
BRANCH  31   4
ATOM      4  O   UNL     1      -6.111  -8.787  12.117  0.00  0.00    -0.467 OA
ATOM     32  C   UNL     1      -5.345  -8.639  10.917  0.00  0.00    +0.280 C 
ENDBRANCH  31   4
ENDBRANCH  29  31
ENDBRANCH  10  29
ENDBRANCH  12  28
TORSDOF 6
ENDMDL
MODEL 4
REMARK VINA RESULT:      -5.8     26.902     29.872
REMARK  Name = 75536033
REMARK  8 active torsions:
REMARK  status: ('A' for Active; 'I' for Inactive)
REMARK    1  A    between atoms: O_4  and  C_31
REMARK    2  A    between atoms: O_4  and  C_32
REMARK    3  A    between atoms: N_8  and  C_11
REMARK    4  A    between atoms: N_10  and  C_29
REMARK    5  A    between atoms: C_12  and  C_28
REMARK    6  A    between atoms: C_13  and  C_19
REMARK    7  A    between atoms: C_29  and  C_30
REMARK    8  A    between atoms: C_29  and  C_31
REMARK                            x       y       z     vdW  Elec       q    Type
REMARK                         _______ _______ _______ _____ _____    ______ ____
ROOT
ATOM      1  O   UNL     1     -10.807 -10.881  16.175  0.00  0.00    -0.275 OA
ATOM      2  O   UNL     1      -3.608 -11.258  17.493  0.00  0.00    -0.253 OA
ATOM      6  N   UNL     1      -8.608 -10.681  16.902  0.00  0.00    -0.298 N 
ATOM      7  N   UNL     1      -5.763 -11.251  16.618  0.00  0.00    -0.271 N 
ATOM      8  N   UNL     1      -3.899 -11.853  15.291  0.00  0.00    -0.296 N 
ATOM     12  C   UNL     1      -6.722 -11.618  15.564  0.00  0.00    +0.181 C 
ATOM     14  C   UNL     1      -8.144 -11.812  16.095  0.00  0.00    +0.139 C 
ATOM     15  C   UNL     1      -7.602  -9.996  17.720  0.00  0.00    +0.127 C 
ATOM     18  C   UNL     1      -6.330 -10.813  17.896  0.00  0.00    +0.129 C 
ATOM     19  C   UNL     1      -9.953 -10.313  16.860  0.00  0.00    +0.219 C 
ATOM     25  C   UNL     1      -4.368 -11.443  16.536  0.00  0.00    +0.303 C 
ATOM     33  H   UNL     1      -4.529 -11.881  14.499  0.00  0.00    +0.151 HD
ENDROOT
BRANCH  19  13
ATOM      9  N   UNL     1     -12.399  -7.530  16.388  0.00  0.00    -0.316 NA
ATOM     13  C   UNL     1     -10.349  -9.148  17.724  0.00  0.00    +0.078 C 
ATOM     22  C   UNL     1     -10.027  -7.822  17.031  0.00  0.00    +0.028 C 
ATOM     23  C   UNL     1     -11.830  -9.226  18.098  0.00  0.00    +0.028 C 
ATOM     26  C   UNL     1     -11.017  -7.499  15.910  0.00  0.00    +0.081 C 
ATOM     27  C   UNL     1     -12.743  -8.845  16.932  0.00  0.00    +0.081 C 
ATOM     34  H   UNL     1     -13.027  -7.310  15.617  0.00  0.00    +0.122 HD
ENDBRANCH  19  13
BRANCH   8  11
ATOM     11  C   UNL     1      -2.496 -12.091  15.039  0.00  0.00    +0.074 C 
ATOM     16  C   UNL     1      -1.775 -10.791  14.665  0.00  0.00    +0.022 C 
ATOM     17  C   UNL     1      -2.304 -13.162  13.960  0.00  0.00    +0.022 C 
ATOM     20  C   UNL     1      -2.152 -10.295  13.269  0.00  0.00    +0.002 C 
ATOM     21  C   UNL     1      -2.679 -12.662  12.566  0.00  0.00    +0.002 C 
ATOM     24  C   UNL     1      -1.942 -11.375  12.211  0.00  0.00    +0.000 C 
ENDBRANCH   8  11
BRANCH  12  28
ATOM      3  O   UNL     1      -5.892  -9.606  14.578  0.00  0.00    -0.274 OA
ATOM     10  N   UNL     1      -7.710 -10.677  13.594  0.00  0.00    -0.301 N 
ATOM     28  C   UNL     1      -6.707 -10.523  14.536  0.00  0.00    +0.236 C 
ATOM     35  H   UNL     1      -8.347 -11.465  13.672  0.00  0.00    +0.150 HD
BRANCH  10  29
ATOM     29  C   UNL     1      -7.925  -9.745  12.510  0.00  0.00    +0.179 C 
ATOM     30  C   UNL     1      -9.365  -9.832  12.026  0.00  0.00    +0.040 C 
BRANCH  29  31
ATOM      5  O   UNL     1      -6.608 -11.106  11.010  0.00  0.00    -0.249 OA
ATOM     31  C   UNL     1      -6.965  -9.983  11.355  0.00  0.00    +0.327 C 
BRANCH  31   4
ATOM      4  O   UNL     1      -6.555  -8.820  10.775  0.00  0.00    -0.467 OA
ATOM     32  C   UNL     1      -5.141  -8.602  10.747  0.00  0.00    +0.280 C 
ENDBRANCH  31   4
ENDBRANCH  29  31
ENDBRANCH  10  29
ENDBRANCH  12  28
TORSDOF 6
ENDMDL
MODEL 5
REMARK VINA RESULT:      -5.8     25.874     29.430
REMARK  Name = 75536033
REMARK  8 active torsions:
REMARK  status: ('A' for Active; 'I' for Inactive)
REMARK    1  A    between atoms: O_4  and  C_31
REMARK    2  A    between atoms: O_4  and  C_32
REMARK    3  A    between atoms: N_8  and  C_11
REMARK    4  A    between atoms: N_10  and  C_29
REMARK    5  A    between atoms: C_12  and  C_28
REMARK    6  A    between atoms: C_13  and  C_19
REMARK    7  A    between atoms: C_29  and  C_30
REMARK    8  A    between atoms: C_29  and  C_31
REMARK                            x       y       z     vdW  Elec       q    Type
REMARK                         _______ _______ _______ _____ _____    ______ ____
ROOT
ATOM      1  O   UNL     1      -6.206 -13.075  17.190  0.00  0.00    -0.275 OA
ATOM      2  O   UNL     1      -2.176 -10.026  11.883  0.00  0.00    -0.253 OA
ATOM      6  N   UNL     1      -4.754 -11.858  15.842  0.00  0.00    -0.298 N 
ATOM      7  N   UNL     1      -3.789 -11.040  13.216  0.00  0.00    -0.271 N 
ATOM      8  N   UNL     1      -4.130 -10.727  10.895  0.00  0.00    -0.296 N 
ATOM     12  C   UNL     1      -5.021 -11.831  13.362  0.00  0.00    +0.181 C 
ATOM     14  C   UNL     1      -5.049 -12.657  14.650  0.00  0.00    +0.139 C 
ATOM     15  C   UNL     1      -3.786 -10.769  15.685  0.00  0.00    +0.127 C 
ATOM     18  C   UNL     1      -2.958 -10.894  14.413  0.00  0.00    +0.129 C 
ATOM     19  C   UNL     1      -5.389 -12.162  17.047  0.00  0.00    +0.219 C 
ATOM     25  C   UNL     1      -3.284 -10.560  11.989  0.00  0.00    +0.303 C 
ATOM     33  H   UNL     1      -5.075 -11.060  11.035  0.00  0.00    +0.151 HD
ENDROOT
BRANCH  19  13
ATOM      9  N   UNL     1      -7.430 -10.528  19.714  0.00  0.00    -0.316 NA
ATOM     13  C   UNL     1      -5.024 -11.300  18.224  0.00  0.00    +0.078 C 
ATOM     22  C   UNL     1      -5.657  -9.913  18.101  0.00  0.00    +0.028 C 
ATOM     23  C   UNL     1      -5.429 -11.973  19.537  0.00  0.00    +0.028 C 
ATOM     26  C   UNL     1      -7.156  -9.930  18.407  0.00  0.00    +0.081 C 
ATOM     27  C   UNL     1      -6.937 -11.904  19.782  0.00  0.00    +0.081 C 
ATOM     34  H   UNL     1      -8.435 -10.521  19.883  0.00  0.00    +0.122 HD
ENDBRANCH  19  13
BRANCH   8  11
ATOM     11  C   UNL     1      -3.764 -10.287   9.568  0.00  0.00    +0.074 C 
ATOM     16  C   UNL     1      -4.067  -8.797   9.378  0.00  0.00    +0.022 C 
ATOM     17  C   UNL     1      -4.457 -11.135   8.496  0.00  0.00    +0.022 C 
ATOM     20  C   UNL     1      -5.567  -8.513   9.281  0.00  0.00    +0.002 C 
ATOM     21  C   UNL     1      -5.955 -10.847   8.401  0.00  0.00    +0.002 C 
ATOM     24  C   UNL     1      -6.232  -9.361   8.201  0.00  0.00    +0.000 C 
ENDBRANCH   8  11
BRANCH  12  28
ATOM      3  O   UNL     1      -6.025  -9.675  13.135  0.00  0.00    -0.274 OA
ATOM     10  N   UNL     1      -7.383 -11.505  13.611  0.00  0.00    -0.301 N 
ATOM     28  C   UNL     1      -6.179 -10.875  13.345  0.00  0.00    +0.236 C 
ATOM     35  H   UNL     1      -7.389 -12.505  13.796  0.00  0.00    +0.150 HD
BRANCH  10  29
ATOM     29  C   UNL     1      -8.645 -10.805  13.674  0.00  0.00    +0.179 C 
ATOM     30  C   UNL     1      -9.340 -11.101  14.994  0.00  0.00    +0.040 C 
BRANCH  29  31
ATOM      5  O   UNL     1     -10.689 -11.600  12.662  0.00  0.00    -0.249 OA
ATOM     31  C   UNL     1      -9.554 -11.160  12.507  0.00  0.00    +0.327 C 
BRANCH  31   4
ATOM      4  O   UNL     1      -8.957 -10.941  11.302  0.00  0.00    -0.467 OA
ATOM     32  C   UNL     1      -8.862  -9.572  10.894  0.00  0.00    +0.280 C 
ENDBRANCH  31   4
ENDBRANCH  29  31
ENDBRANCH  10  29
ENDBRANCH  12  28
TORSDOF 6
ENDMDL
MODEL 6
REMARK VINA RESULT:      -5.7     28.303     31.555
REMARK  Name = 75536033
REMARK  8 active torsions:
REMARK  status: ('A' for Active; 'I' for Inactive)
REMARK    1  A    between atoms: O_4  and  C_31
REMARK    2  A    between atoms: O_4  and  C_32
REMARK    3  A    between atoms: N_8  and  C_11
REMARK    4  A    between atoms: N_10  and  C_29
REMARK    5  A    between atoms: C_12  and  C_28
REMARK    6  A    between atoms: C_13  and  C_19
REMARK    7  A    between atoms: C_29  and  C_30
REMARK    8  A    between atoms: C_29  and  C_31
REMARK                            x       y       z     vdW  Elec       q    Type
REMARK                         _______ _______ _______ _____ _____    ______ ____
ROOT
ATOM      1  O   UNL     1     -13.051  -9.031  14.518  0.00  0.00    -0.275 OA
ATOM      2  O   UNL     1      -8.511 -10.993  19.926  0.00  0.00    -0.253 OA
ATOM      6  N   UNL     1     -11.772  -9.287  16.443  0.00  0.00    -0.298 N 
ATOM      7  N   UNL     1      -9.610 -10.566  17.921  0.00  0.00    -0.271 N 
ATOM      8  N   UNL     1      -7.572 -11.766  17.975  0.00  0.00    -0.296 N 
ATOM     12  C   UNL     1      -9.802 -10.815  16.484  0.00  0.00    +0.181 C 
ATOM     14  C   UNL     1     -11.244 -10.588  16.027  0.00  0.00    +0.139 C 
ATOM     15  C   UNL     1     -11.320  -8.772  17.740  0.00  0.00    +0.127 C 
ATOM     18  C   UNL     1     -10.685  -9.848  18.611  0.00  0.00    +0.129 C 
ATOM     19  C   UNL     1     -12.664  -8.609  15.611  0.00  0.00    +0.219 C 
ATOM     25  C   UNL     1      -8.561 -11.102  18.696  0.00  0.00    +0.303 C 
ATOM     33  H   UNL     1      -7.581 -11.737  16.963  0.00  0.00    +0.151 HD
ENDROOT
BRANCH  19  13
ATOM      9  N   UNL     1     -13.429  -5.377  13.903  0.00  0.00    -0.316 NA
ATOM     13  C   UNL     1     -13.166  -7.284  16.115  0.00  0.00    +0.078 C 
ATOM     22  C   UNL     1     -12.140  -6.178  15.857  0.00  0.00    +0.028 C 
ATOM     23  C   UNL     1     -14.516  -6.938  15.485  0.00  0.00    +0.028 C 
ATOM     26  C   UNL     1     -12.102  -5.756  14.387  0.00  0.00    +0.081 C 
ATOM     27  C   UNL     1     -14.377  -6.484  14.031  0.00  0.00    +0.081 C 
ATOM     34  H   UNL     1     -13.364  -5.101  12.924  0.00  0.00    +0.122 HD
ENDBRANCH  19  13
BRANCH   8  11
ATOM     11  C   UNL     1      -6.427 -12.370  18.618  0.00  0.00    +0.074 C 
ATOM     16  C   UNL     1      -5.441 -11.301  19.102  0.00  0.00    +0.022 C 
ATOM     17  C   UNL     1      -5.741 -13.377  17.688  0.00  0.00    +0.022 C 
ATOM     20  C   UNL     1      -4.696 -10.627  17.950  0.00  0.00    +0.002 C 
ATOM     21  C   UNL     1      -4.996 -12.699  16.538  0.00  0.00    +0.002 C 
ATOM     24  C   UNL     1      -4.013 -11.649  17.045  0.00  0.00    +0.000 C 
ENDBRANCH   8  11
BRANCH  12  28
ATOM      3  O   UNL     1      -8.369  -8.914  16.274  0.00  0.00    -0.274 OA
ATOM     10  N   UNL     1      -8.716 -10.274  14.416  0.00  0.00    -0.301 N 
ATOM     28  C   UNL     1      -8.880  -9.893  15.737  0.00  0.00    +0.236 C 
ATOM     35  H   UNL     1      -9.211 -11.092  14.071  0.00  0.00    +0.150 HD
BRANCH  10  29
ATOM     29  C   UNL     1      -7.896  -9.541  13.479  0.00  0.00    +0.179 C 
ATOM     30  C   UNL     1      -8.431  -9.722  12.066  0.00  0.00    +0.040 C 
BRANCH  29  31
ATOM      5  O   UNL     1      -5.753  -9.817  14.558  0.00  0.00    -0.249 OA
ATOM     31  C   UNL     1      -6.436  -9.961  13.548  0.00  0.00    +0.327 C 
BRANCH  31   4
ATOM      4  O   UNL     1      -5.995 -10.494  12.374  0.00  0.00    -0.467 OA
ATOM     32  C   UNL     1      -4.602 -10.318  12.096  0.00  0.00    +0.280 C 
ENDBRANCH  31   4
ENDBRANCH  29  31
ENDBRANCH  10  29
ENDBRANCH  12  28
TORSDOF 6
ENDMDL
MODEL 7
REMARK VINA RESULT:      -5.7     28.058     30.996
REMARK  Name = 75536033
REMARK  8 active torsions:
REMARK  status: ('A' for Active; 'I' for Inactive)
REMARK    1  A    between atoms: O_4  and  C_31
REMARK    2  A    between atoms: O_4  and  C_32
REMARK    3  A    between atoms: N_8  and  C_11
REMARK    4  A    between atoms: N_10  and  C_29
REMARK    5  A    between atoms: C_12  and  C_28
REMARK    6  A    between atoms: C_13  and  C_19
REMARK    7  A    between atoms: C_29  and  C_30
REMARK    8  A    between atoms: C_29  and  C_31
REMARK                            x       y       z     vdW  Elec       q    Type
REMARK                         _______ _______ _______ _____ _____    ______ ____
ROOT
ATOM      1  O   UNL     1      -4.190 -14.560  14.130  0.00  0.00    -0.275 OA
ATOM      2  O   UNL     1      -9.248  -9.521  12.482  0.00  0.00    -0.253 OA
ATOM      6  N   UNL     1      -5.532 -12.879  13.249  0.00  0.00    -0.298 N 
ATOM      7  N   UNL     1      -7.761 -11.013  13.466  0.00  0.00    -0.271 N 
ATOM      8  N   UNL     1      -9.269  -9.740  14.770  0.00  0.00    -0.296 N 
ATOM     12  C   UNL     1      -7.307 -11.795  14.626  0.00  0.00    +0.181 C 
ATOM     14  C   UNL     1      -6.598 -13.092  14.229  0.00  0.00    +0.139 C 
ATOM     15  C   UNL     1      -5.749 -11.823  12.254  0.00  0.00    +0.127 C 
ATOM     18  C   UNL     1      -7.206 -11.390  12.164  0.00  0.00    +0.129 C 
ATOM     19  C   UNL     1      -4.384 -13.670  13.298  0.00  0.00    +0.219 C 
ATOM     25  C   UNL     1      -8.794 -10.053  13.500  0.00  0.00    +0.303 C 
ATOM     33  H   UNL     1      -8.798 -10.104  15.589  0.00  0.00    +0.151 HD
ENDROOT
BRANCH  19  13
ATOM      9  N   UNL     1      -0.679 -14.134  13.233  0.00  0.00    -0.316 NA
ATOM     13  C   UNL     1      -3.341 -13.393  12.251  0.00  0.00    +0.078 C 
ATOM     22  C   UNL     1      -2.331 -12.357  12.748  0.00  0.00    +0.028 C 
ATOM     23  C   UNL     1      -2.639 -14.685  11.827  0.00  0.00    +0.028 C 
ATOM     26  C   UNL     1      -1.348 -12.946  13.762  0.00  0.00    +0.081 C 
ATOM     27  C   UNL     1      -1.644 -15.176  12.880  0.00  0.00    +0.081 C 
ATOM     34  H   UNL     1      -0.033 -14.497  13.933  0.00  0.00    +0.122 HD
ENDBRANCH  19  13
BRANCH   8  11
ATOM     11  C   UNL     1     -10.324  -8.773  14.979  0.00  0.00    +0.074 C 
ATOM     16  C   UNL     1      -9.897  -7.703  15.989  0.00  0.00    +0.022 C 
ATOM     17  C   UNL     1     -11.622  -9.461  15.414  0.00  0.00    +0.022 C 
ATOM     20  C   UNL     1      -9.828  -8.241  17.419  0.00  0.00    +0.002 C 
ATOM     21  C   UNL     1     -11.550  -9.996  16.844  0.00  0.00    +0.002 C 
ATOM     24  C   UNL     1     -11.136  -8.911  17.832  0.00  0.00    +0.000 C 
ENDBRANCH   8  11
BRANCH  12  28
ATOM      3  O   UNL     1      -6.311  -9.714  15.247  0.00  0.00    -0.274 OA
ATOM     10  N   UNL     1      -5.613 -11.660  16.317  0.00  0.00    -0.301 N 
ATOM     28  C   UNL     1      -6.373 -10.928  15.421  0.00  0.00    +0.236 C 
ATOM     35  H   UNL     1      -5.731 -12.669  16.358  0.00  0.00    +0.150 HD
BRANCH  10  29
ATOM     29  C   UNL     1      -4.622 -11.065  17.185  0.00  0.00    +0.179 C 
ATOM     30  C   UNL     1      -3.272 -11.029  16.487  0.00  0.00    +0.040 C 
BRANCH  29  31
ATOM      5  O   UNL     1      -3.477 -11.821  19.173  0.00  0.00    -0.249 OA
ATOM     31  C   UNL     1      -4.512 -11.800  18.512  0.00  0.00    +0.327 C 
BRANCH  31   4
ATOM      4  O   UNL     1      -5.673 -12.423  18.857  0.00  0.00    -0.467 OA
ATOM     32  C   UNL     1      -6.529 -11.697  19.745  0.00  0.00    +0.280 C 
ENDBRANCH  31   4
ENDBRANCH  29  31
ENDBRANCH  10  29
ENDBRANCH  12  28
TORSDOF 6
ENDMDL
MODEL 8
REMARK VINA RESULT:      -5.7     26.311     27.955
REMARK  Name = 75536033
REMARK  8 active torsions:
REMARK  status: ('A' for Active; 'I' for Inactive)
REMARK    1  A    between atoms: O_4  and  C_31
REMARK    2  A    between atoms: O_4  and  C_32
REMARK    3  A    between atoms: N_8  and  C_11
REMARK    4  A    between atoms: N_10  and  C_29
REMARK    5  A    between atoms: C_12  and  C_28
REMARK    6  A    between atoms: C_13  and  C_19
REMARK    7  A    between atoms: C_29  and  C_30
REMARK    8  A    between atoms: C_29  and  C_31
REMARK                            x       y       z     vdW  Elec       q    Type
REMARK                         _______ _______ _______ _____ _____    ______ ____
ROOT
ATOM      1  O   UNL     1      -2.315 -11.257  11.520  0.00  0.00    -0.275 OA
ATOM      2  O   UNL     1      -8.195  -7.659   9.031  0.00  0.00    -0.253 OA
ATOM      6  N   UNL     1      -4.362 -10.224  11.130  0.00  0.00    -0.298 N 
ATOM      7  N   UNL     1      -6.263  -8.915   9.351  0.00  0.00    -0.271 N 
ATOM      8  N   UNL     1      -7.113  -8.497   7.183  0.00  0.00    -0.296 N 
ATOM     12  C   UNL     1      -5.043  -9.549   8.827  0.00  0.00    +0.181 C 
ATOM     14  C   UNL     1      -3.922  -9.629   9.866  0.00  0.00    +0.139 C 
ATOM     15  C   UNL     1      -5.737  -9.942  11.551  0.00  0.00    +0.127 C 
ATOM     18  C   UNL     1      -6.352  -8.765  10.806  0.00  0.00    +0.129 C 
ATOM     19  C   UNL     1      -3.474 -11.013  11.864  0.00  0.00    +0.219 C 
ATOM     25  C   UNL     1      -7.258  -8.309   8.555  0.00  0.00    +0.303 C 
ATOM     33  H   UNL     1      -6.405  -9.129   6.833  0.00  0.00    +0.151 HD
ENDROOT
BRANCH  19  13
ATOM      9  N   UNL     1      -1.807 -12.016  15.051  0.00  0.00    -0.316 NA
ATOM     13  C   UNL     1      -4.001 -11.578  13.154  0.00  0.00    +0.078 C 
ATOM     22  C   UNL     1      -3.411 -12.964  13.423  0.00  0.00    +0.028 C 
ATOM     23  C   UNL     1      -3.719 -10.627  14.319  0.00  0.00    +0.028 C 
ATOM     26  C   UNL     1      -1.956 -12.894  13.891  0.00  0.00    +0.081 C 
ATOM     27  C   UNL     1      -2.252 -10.655  14.749  0.00  0.00    +0.081 C 
ATOM     34  H   UNL     1      -0.828 -11.995  15.335  0.00  0.00    +0.122 HD
ENDBRANCH  19  13
BRANCH   8  11
ATOM     11  C   UNL     1      -8.049  -7.944   6.229  0.00  0.00    +0.074 C 
ATOM     16  C   UNL     1      -9.425  -8.605   6.362  0.00  0.00    +0.022 C 
ATOM     17  C   UNL     1      -7.511  -8.063   4.799  0.00  0.00    +0.022 C 
ATOM     20  C   UNL     1      -9.435 -10.044   5.846  0.00  0.00    +0.002 C 
ATOM     21  C   UNL     1      -7.525  -9.502   4.286  0.00  0.00    +0.002 C 
ATOM     24  C   UNL     1      -8.907 -10.135   4.418  0.00  0.00    +0.000 C 
ENDBRANCH   8  11
BRANCH  12  28
ATOM      3  O   UNL     1      -6.533 -11.397   8.550  0.00  0.00    -0.274 OA
ATOM     10  N   UNL     1      -4.351 -11.580   7.759  0.00  0.00    -0.301 N 
ATOM     28  C   UNL     1      -5.411 -10.930   8.368  0.00  0.00    +0.236 C 
ATOM     35  H   UNL     1      -3.455 -11.104   7.685  0.00  0.00    +0.150 HD
BRANCH  10  29
ATOM     29  C   UNL     1      -4.438 -12.929   7.248  0.00  0.00    +0.179 C 
ATOM     30  C   UNL     1      -4.215 -13.928   8.373  0.00  0.00    +0.040 C 
BRANCH  29  31
ATOM      5  O   UNL     1      -2.764 -14.192   6.049  0.00  0.00    -0.249 OA
ATOM     31  C   UNL     1      -3.449 -13.176   6.119  0.00  0.00    +0.327 C 
BRANCH  31   4
ATOM      4  O   UNL     1      -3.416 -12.147   5.227  0.00  0.00    -0.467 OA
ATOM     32  C   UNL     1      -3.358 -12.522   3.846  0.00  0.00    +0.280 C 
ENDBRANCH  31   4
ENDBRANCH  29  31
ENDBRANCH  10  29
ENDBRANCH  12  28
TORSDOF 6
ENDMDL
MODEL 9
REMARK VINA RESULT:      -5.6     26.735     28.689
REMARK  Name = 75536033
REMARK  8 active torsions:
REMARK  status: ('A' for Active; 'I' for Inactive)
REMARK    1  A    between atoms: O_4  and  C_31
REMARK    2  A    between atoms: O_4  and  C_32
REMARK    3  A    between atoms: N_8  and  C_11
REMARK    4  A    between atoms: N_10  and  C_29
REMARK    5  A    between atoms: C_12  and  C_28
REMARK    6  A    between atoms: C_13  and  C_19
REMARK    7  A    between atoms: C_29  and  C_30
REMARK    8  A    between atoms: C_29  and  C_31
REMARK                            x       y       z     vdW  Elec       q    Type
REMARK                         _______ _______ _______ _____ _____    ______ ____
ROOT
ATOM      1  O   UNL     1      -7.621  -7.643   8.847  0.00  0.00    -0.275 OA
ATOM      2  O   UNL     1      -2.319 -11.693  11.879  0.00  0.00    -0.253 OA
ATOM      6  N   UNL     1      -5.955  -9.161   9.422  0.00  0.00    -0.298 N 
ATOM      7  N   UNL     1      -4.155 -10.357  11.377  0.00  0.00    -0.271 N 
ATOM      8  N   UNL     1      -3.579 -10.865  13.615  0.00  0.00    -0.296 N 
ATOM     12  C   UNL     1      -5.204  -9.411  11.787  0.00  0.00    +0.181 C 
ATOM     14  C   UNL     1      -5.620  -8.460  10.664  0.00  0.00    +0.139 C 
ATOM     15  C   UNL     1      -5.185 -10.370   9.116  0.00  0.00    +0.127 C 
ATOM     18  C   UNL     1      -3.908 -10.478   9.938  0.00  0.00    +0.129 C 
ATOM     19  C   UNL     1      -6.966  -8.659   8.600  0.00  0.00    +0.219 C 
ATOM     25  C   UNL     1      -3.280 -11.019  12.264  0.00  0.00    +0.303 C 
ATOM     33  H   UNL     1      -4.438 -10.407  13.892  0.00  0.00    +0.151 HD
ENDROOT
BRANCH  19  13
ATOM      9  N   UNL     1      -9.700  -8.470   6.064  0.00  0.00    -0.316 NA
ATOM     13  C   UNL     1      -7.241  -9.432   7.340  0.00  0.00    +0.078 C 
ATOM     22  C   UNL     1      -8.569 -10.185   7.442  0.00  0.00    +0.028 C 
ATOM     23  C   UNL     1      -7.227  -8.508   6.121  0.00  0.00    +0.028 C 
ATOM     26  C   UNL     1      -9.775  -9.256   7.295  0.00  0.00    +0.081 C 
ATOM     27  C   UNL     1      -8.489  -7.649   6.030  0.00  0.00    +0.081 C 
ATOM     34  H   UNL     1     -10.518  -7.865   5.999  0.00  0.00    +0.122 HD
ENDBRANCH  19  13
BRANCH   8  11
ATOM     11  C   UNL     1      -2.783 -11.481  14.653  0.00  0.00    +0.074 C 
ATOM     16  C   UNL     1      -3.345 -12.854  15.035  0.00  0.00    +0.022 C 
ATOM     17  C   UNL     1      -2.671 -10.566  15.877  0.00  0.00    +0.022 C 
ATOM     20  C   UNL     1      -4.655 -12.753  15.817  0.00  0.00    +0.002 C 
ATOM     21  C   UNL     1      -3.982 -10.469  16.657  0.00  0.00    +0.002 C 
ATOM     24  C   UNL     1      -4.516 -11.846  17.036  0.00  0.00    +0.000 C 
ENDBRANCH   8  11
BRANCH  12  28
ATOM      3  O   UNL     1      -6.448 -11.432  12.072  0.00  0.00    -0.274 OA
ATOM     10  N   UNL     1      -7.370  -9.427  12.816  0.00  0.00    -0.301 N 
ATOM     28  C   UNL     1      -6.390 -10.216  12.237  0.00  0.00    +0.236 C 
ATOM     35  H   UNL     1      -7.225  -8.423  12.878  0.00  0.00    +0.150 HD
BRANCH  10  29
ATOM     29  C   UNL     1      -8.620  -9.956  13.311  0.00  0.00    +0.179 C 
ATOM     30  C   UNL     1      -9.747  -9.623  12.345  0.00  0.00    +0.040 C 
BRANCH  29  31
ATOM      5  O   UNL     1      -9.689  -8.476  14.894  0.00  0.00    -0.249 OA
ATOM     31  C   UNL     1      -8.947  -9.436  14.703  0.00  0.00    +0.327 C 
BRANCH  31   4
ATOM      4  O   UNL     1      -8.321 -10.147  15.681  0.00  0.00    -0.467 OA
ATOM     32  C   UNL     1      -7.559  -9.380  16.619  0.00  0.00    +0.280 C 
ENDBRANCH  31   4
ENDBRANCH  29  31
ENDBRANCH  10  29
ENDBRANCH  12  28
TORSDOF 6
ENDMDL
MODEL 10
REMARK VINA RESULT:      -5.6     27.129     30.061
REMARK  Name = 75536033
REMARK  8 active torsions:
REMARK  status: ('A' for Active; 'I' for Inactive)
REMARK    1  A    between atoms: O_4  and  C_31
REMARK    2  A    between atoms: O_4  and  C_32
REMARK    3  A    between atoms: N_8  and  C_11
REMARK    4  A    between atoms: N_10  and  C_29
REMARK    5  A    between atoms: C_12  and  C_28
REMARK    6  A    between atoms: C_13  and  C_19
REMARK    7  A    between atoms: C_29  and  C_30
REMARK    8  A    between atoms: C_29  and  C_31
REMARK                            x       y       z     vdW  Elec       q    Type
REMARK                         _______ _______ _______ _____ _____    ______ ____
ROOT
ATOM      1  O   UNL     1      -7.146  -8.423  10.257  0.00  0.00    -0.275 OA
ATOM      2  O   UNL     1      -3.968 -13.011  15.006  0.00  0.00    -0.253 OA
ATOM      6  N   UNL     1      -6.167 -10.179  11.426  0.00  0.00    -0.298 N 
ATOM      7  N   UNL     1      -5.176 -11.361  13.900  0.00  0.00    -0.271 N 
ATOM      8  N   UNL     1      -5.152 -11.492  16.262  0.00  0.00    -0.296 N 
ATOM     12  C   UNL     1      -5.917 -10.090  13.907  0.00  0.00    +0.181 C 
ATOM     14  C   UNL     1      -5.824  -9.339  12.577  0.00  0.00    +0.139 C 
ATOM     15  C   UNL     1      -5.787 -11.593  11.503  0.00  0.00    +0.127 C 
ATOM     18  C   UNL     1      -4.758 -11.868  12.590  0.00  0.00    +0.129 C 
ATOM     19  C   UNL     1      -6.821  -9.611  10.332  0.00  0.00    +0.219 C 
ATOM     25  C   UNL     1      -4.710 -12.025  15.054  0.00  0.00    +0.303 C 
ATOM     33  H   UNL     1      -5.851 -10.760  16.264  0.00  0.00    +0.151 HD
ENDROOT
BRANCH  19  13
ATOM      9  N   UNL     1      -6.335  -9.322   6.641  0.00  0.00    -0.316 NA
ATOM     13  C   UNL     1      -7.128 -10.539   9.189  0.00  0.00    +0.078 C 
ATOM     22  C   UNL     1      -8.139  -9.906   8.230  0.00  0.00    +0.028 C 
ATOM     23  C   UNL     1      -5.847 -10.935   8.452  0.00  0.00    +0.028 C 
ATOM     26  C   UNL     1      -7.508  -8.820   7.356  0.00  0.00    +0.081 C 
ATOM     27  C   UNL     1      -5.313  -9.807   7.569  0.00  0.00    +0.081 C 
ATOM     34  H   UNL     1      -5.944  -8.574   6.070  0.00  0.00    +0.122 HD
ENDBRANCH  19  13
BRANCH   8  11
ATOM     11  C   UNL     1      -4.769 -12.057  17.536  0.00  0.00    +0.074 C 
ATOM     16  C   UNL     1      -5.663 -13.246  17.902  0.00  0.00    +0.022 C 
ATOM     17  C   UNL     1      -4.784 -10.991  18.638  0.00  0.00    +0.022 C 
ATOM     20  C   UNL     1      -7.079 -12.817  18.287  0.00  0.00    +0.002 C 
ATOM     21  C   UNL     1      -6.202 -10.566  19.021  0.00  0.00    +0.002 C 
ATOM     24  C   UNL     1      -7.069 -11.765  19.392  0.00  0.00    +0.000 C 
ENDBRANCH   8  11
BRANCH  12  28
ATOM      3  O   UNL     1      -7.765 -11.560  14.274  0.00  0.00    -0.274 OA
ATOM     10  N   UNL     1      -8.115  -9.261  14.389  0.00  0.00    -0.301 N 
ATOM     28  C   UNL     1      -7.354 -10.405  14.214  0.00  0.00    +0.236 C 
ATOM     35  H   UNL     1      -7.672  -8.351  14.291  0.00  0.00    +0.150 HD
BRANCH  10  29
ATOM     29  C   UNL     1      -9.531  -9.290  14.672  0.00  0.00    +0.179 C 
ATOM     30  C   UNL     1     -10.323  -9.296  13.373  0.00  0.00    +0.040 C 
BRANCH  29  31
ATOM      5  O   UNL     1     -10.756  -7.268  15.167  0.00  0.00    -0.249 OA
ATOM     31  C   UNL     1      -9.962  -8.123  15.547  0.00  0.00    +0.327 C 
BRANCH  31   4
ATOM      4  O   UNL     1      -9.360  -8.144  16.770  0.00  0.00    -0.467 OA
ATOM     32  C   UNL     1      -9.633  -9.293  17.578  0.00  0.00    +0.280 C 
ENDBRANCH  31   4
ENDBRANCH  29  31
ENDBRANCH  10  29
ENDBRANCH  12  28
TORSDOF 6
ENDMDL
