MODEL 1
REMARK VINA RESULT:      -6.5      0.000      0.000
REMARK  Name = 26742545
REMARK  12 active torsions:
REMARK  status: ('A' for Active; 'I' for Inactive)
REMARK    1  A    between atoms: O_3  and  C_25
REMARK    2  A    between atoms: O_3  and  C_30
REMARK    3  A    between atoms: O_4  and  C_27
REMARK    4  A    between atoms: O_4  and  C_31
REMARK    5  A    between atoms: N_6  and  C_17
REMARK    6  A    between atoms: C_16  and  C_18
REMARK    7  A    between atoms: C_17  and  C_20
REMARK    8  A    between atoms: C_18  and  C_19
REMARK    9  A    between atoms: C_19  and  C_21
REMARK   10  A    between atoms: C_19  and  C_22
REMARK   11  A    between atoms: C_19  and  C_23
REMARK   12  A    between atoms: C_20  and  C_24
REMARK                            x       y       z     vdW  Elec       q    Type
REMARK                         _______ _______ _______ _____ _____    ______ ____
ROOT
ATOM      1  O   UNL     1      14.307   7.753  17.121  0.00  0.00    -0.276 OA
ATOM      2  O   UNL     1      14.348  12.768  22.006  0.00  0.00    -0.276 OA
ATOM      5  N   UNL     1      12.721  11.273  21.288  0.00  0.00    -0.301 N 
ATOM      6  N   UNL     1      14.204   7.060  19.333  0.00  0.00    -0.301 N 
ATOM      7  C   UNL     1      11.965   8.974  20.708  0.00  0.00    +0.011 C 
ATOM      8  C   UNL     1      12.074   9.360  19.214  0.00  0.00    +0.004 C 
ATOM      9  C   UNL     1      13.114  10.473  18.990  0.00  0.00    +0.023 C 
ATOM     10  C   UNL     1      11.711  10.240  21.551  0.00  0.00    +0.111 C 
ATOM     11  C   UNL     1      13.170   8.198  21.274  0.00  0.00    +0.024 C 
ATOM     12  C   UNL     1      12.265   8.165  18.271  0.00  0.00    +0.100 C 
ATOM     13  C   UNL     1      12.830  11.678  19.886  0.00  0.00    +0.108 C 
ATOM     14  C   UNL     1      13.431   6.877  20.559  0.00  0.00    +0.108 C 
ATOM     15  C   UNL     1      13.685   7.640  18.180  0.00  0.00    +0.216 C 
ATOM     16  C   UNL     1      13.524  11.883  22.251  0.00  0.00    +0.216 C 
ENDROOT
BRANCH   6  17
ATOM     17  C   UNL     1      15.588   6.606  19.361  0.00  0.00    +0.112 C 
BRANCH  17  20
ATOM     20  C   UNL     1      16.122   6.439  20.781  0.00  0.00    +0.058 C 
BRANCH  20  24
ATOM     24  C   UNL     1      17.544   6.919  20.937  0.00  0.00    -0.001 A 
ATOM     25  C   UNL     1      17.818   8.191  21.439  0.00  0.00    +0.165 A 
ATOM     26  C   UNL     1      18.591   6.072  20.571  0.00  0.00    +0.007 A 
ATOM     27  C   UNL     1      19.139   8.616  21.577  0.00  0.00    +0.162 A 
ATOM     28  C   UNL     1      19.912   6.499  20.708  0.00  0.00    +0.004 A 
ATOM     29  C   UNL     1      20.186   7.771  21.211  0.00  0.00    +0.049 A 
BRANCH  25   3
ATOM      3  O   UNL     1      16.797   9.020  21.798  0.00  0.00    -0.491 OA
ATOM     30  C   UNL     1      16.375   9.980  20.832  0.00  0.00    +0.277 C 
ENDBRANCH  25   3
BRANCH  27   4
ATOM      4  O   UNL     1      19.421   9.856  22.067  0.00  0.00    -0.491 OA
ATOM     31  C   UNL     1      20.505   9.958  22.987  0.00  0.00    +0.277 C 
ENDBRANCH  27   4
ENDBRANCH  20  24
ENDBRANCH  17  20
ENDBRANCH   6  17
BRANCH  16  18
ATOM     18  C   UNL     1      13.353  11.408  23.672  0.00  0.00    +0.102 C 
BRANCH  18  19
ATOM     19  C   UNL     1      12.396  12.295  24.488  0.00  0.00    -0.029 C 
ATOM     21  C   UNL     1      11.210  11.479  25.031  0.00  0.00    +0.011 C 
ATOM     22  C   UNL     1      11.866  13.465  23.643  0.00  0.00    +0.011 C 
ATOM     23  C   UNL     1      13.185  12.867  25.681  0.00  0.00    +0.011 C 
ENDBRANCH  18  19
ENDBRANCH  16  18
TORSDOF 7
ENDMDL
MODEL 2
REMARK VINA RESULT:      -6.4     27.556     29.985
REMARK  Name = 26742545
REMARK  12 active torsions:
REMARK  status: ('A' for Active; 'I' for Inactive)
REMARK    1  A    between atoms: O_3  and  C_25
REMARK    2  A    between atoms: O_3  and  C_30
REMARK    3  A    between atoms: O_4  and  C_27
REMARK    4  A    between atoms: O_4  and  C_31
REMARK    5  A    between atoms: N_6  and  C_17
REMARK    6  A    between atoms: C_16  and  C_18
REMARK    7  A    between atoms: C_17  and  C_20
REMARK    8  A    between atoms: C_18  and  C_19
REMARK    9  A    between atoms: C_19  and  C_21
REMARK   10  A    between atoms: C_19  and  C_22
REMARK   11  A    between atoms: C_19  and  C_23
REMARK   12  A    between atoms: C_20  and  C_24
REMARK                            x       y       z     vdW  Elec       q    Type
REMARK                         _______ _______ _______ _____ _____    ______ ____
ROOT
ATOM      1  O   UNL     1      -0.838 -10.980  15.458  0.00  0.00    -0.276 OA
ATOM      2  O   UNL     1      -4.659  -7.941  10.440  0.00  0.00    -0.276 OA
ATOM      5  N   UNL     1      -4.001 -10.137  10.816  0.00  0.00    -0.301 N 
ATOM      6  N   UNL     1      -3.101 -11.490  15.412  0.00  0.00    -0.301 N 
ATOM      7  C   UNL     1      -3.755 -12.125  12.292  0.00  0.00    +0.011 C 
ATOM      8  C   UNL     1      -2.247 -11.799  12.409  0.00  0.00    +0.004 C 
ATOM      9  C   UNL     1      -1.975 -10.296  12.208  0.00  0.00    +0.023 C 
ATOM     10  C   UNL     1      -4.301 -11.567  10.962  0.00  0.00    +0.111 C 
ATOM     11  C   UNL     1      -4.625 -11.636  13.465  0.00  0.00    +0.024 C 
ATOM     12  C   UNL     1      -1.580 -12.364  13.670  0.00  0.00    +0.100 C 
ATOM     13  C   UNL     1      -2.580  -9.799  10.897  0.00  0.00    +0.108 C 
ATOM     14  C   UNL     1      -4.214 -12.223  14.811  0.00  0.00    +0.108 C 
ATOM     15  C   UNL     1      -1.798 -11.549  14.931  0.00  0.00    +0.216 C 
ATOM     16  C   UNL     1      -4.941  -9.133  10.586  0.00  0.00    +0.216 C 
ENDROOT
BRANCH   6  17
ATOM     17  C   UNL     1      -3.415 -10.662  16.568  0.00  0.00    +0.112 C 
BRANCH  17  20
ATOM     20  C   UNL     1      -4.807 -10.041  16.485  0.00  0.00    +0.058 C 
BRANCH  20  24
ATOM     24  C   UNL     1      -5.714 -10.476  17.609  0.00  0.00    -0.001 A 
ATOM     25  C   UNL     1      -7.090 -10.254  17.543  0.00  0.00    +0.165 A 
ATOM     26  C   UNL     1      -5.162 -11.107  18.724  0.00  0.00    +0.007 A 
ATOM     27  C   UNL     1      -7.913 -10.663  18.592  0.00  0.00    +0.162 A 
ATOM     28  C   UNL     1      -5.986 -11.516  19.772  0.00  0.00    +0.004 A 
ATOM     29  C   UNL     1      -7.362 -11.294  19.707  0.00  0.00    +0.049 A 
BRANCH  25   3
ATOM      3  O   UNL     1      -7.633  -9.637  16.455  0.00  0.00    -0.491 OA
ATOM     30  C   UNL     1      -8.101 -10.478  15.403  0.00  0.00    +0.277 C 
ENDBRANCH  25   3
BRANCH  27   4
ATOM      4  O   UNL     1      -9.259 -10.453  18.540  0.00  0.00    -0.491 OA
ATOM     31  C   UNL     1      -9.995 -10.672  19.742  0.00  0.00    +0.277 C 
ENDBRANCH  27   4
ENDBRANCH  20  24
ENDBRANCH  17  20
ENDBRANCH   6  17
BRANCH  16  18
ATOM     18  C   UNL     1      -6.385  -9.562  10.518  0.00  0.00    +0.102 C 
BRANCH  18  19
ATOM     19  C   UNL     1      -6.971  -9.468   9.097  0.00  0.00    -0.029 C 
ATOM     21  C   UNL     1      -5.892  -9.731   8.033  0.00  0.00    +0.011 C 
ATOM     22  C   UNL     1      -7.608  -8.091   8.849  0.00  0.00    +0.011 C 
ATOM     23  C   UNL     1      -8.063 -10.547   8.966  0.00  0.00    +0.011 C 
ENDBRANCH  18  19
ENDBRANCH  16  18
TORSDOF 7
ENDMDL
MODEL 3
REMARK VINA RESULT:      -6.2     27.362     30.103
REMARK  Name = 26742545
REMARK  12 active torsions:
REMARK  status: ('A' for Active; 'I' for Inactive)
REMARK    1  A    between atoms: O_3  and  C_25
REMARK    2  A    between atoms: O_3  and  C_30
REMARK    3  A    between atoms: O_4  and  C_27
REMARK    4  A    between atoms: O_4  and  C_31
REMARK    5  A    between atoms: N_6  and  C_17
REMARK    6  A    between atoms: C_16  and  C_18
REMARK    7  A    between atoms: C_17  and  C_20
REMARK    8  A    between atoms: C_18  and  C_19
REMARK    9  A    between atoms: C_19  and  C_21
REMARK   10  A    between atoms: C_19  and  C_22
REMARK   11  A    between atoms: C_19  and  C_23
REMARK   12  A    between atoms: C_20  and  C_24
REMARK                            x       y       z     vdW  Elec       q    Type
REMARK                         _______ _______ _______ _____ _____    ______ ____
ROOT
ATOM      1  O   UNL     1      -1.332 -10.327  16.135  0.00  0.00    -0.276 OA
ATOM      2  O   UNL     1      -4.441  -8.553  10.118  0.00  0.00    -0.276 OA
ATOM      5  N   UNL     1      -3.591 -10.558  10.929  0.00  0.00    -0.301 N 
ATOM      6  N   UNL     1      -3.454 -11.185  15.761  0.00  0.00    -0.301 N 
ATOM      7  C   UNL     1      -3.387 -12.289  12.704  0.00  0.00    +0.011 C 
ATOM      8  C   UNL     1      -1.988 -11.720  13.040  0.00  0.00    +0.004 C 
ATOM      9  C   UNL     1      -1.879 -10.229  12.670  0.00  0.00    +0.023 C 
ATOM     10  C   UNL     1      -3.726 -11.989  11.230  0.00  0.00    +0.111 C 
ATOM     11  C   UNL     1      -4.529 -11.802  13.617  0.00  0.00    +0.024 C 
ATOM     12  C   UNL     1      -1.518 -12.016  14.470  0.00  0.00    +0.100 C 
ATOM     13  C   UNL     1      -2.271  -9.996  11.212  0.00  0.00    +0.108 C 
ATOM     14  C   UNL     1      -4.321 -12.150  15.087  0.00  0.00    +0.108 C 
ATOM     15  C   UNL     1      -2.085 -11.098  15.535  0.00  0.00    +0.216 C 
ATOM     16  C   UNL     1      -4.589  -9.748  10.387  0.00  0.00    +0.216 C 
ENDROOT
BRANCH   6  17
ATOM     17  C   UNL     1      -4.097 -10.281  16.706  0.00  0.00    +0.112 C 
BRANCH  17  20
ATOM     20  C   UNL     1      -5.127 -10.986  17.585  0.00  0.00    +0.058 C 
BRANCH  20  24
ATOM     24  C   UNL     1      -6.532 -10.483  17.366  0.00  0.00    -0.001 A 
ATOM     25  C   UNL     1      -7.488 -10.571  18.378  0.00  0.00    +0.165 A 
ATOM     26  C   UNL     1      -6.870  -9.923  16.134  0.00  0.00    +0.007 A 
ATOM     27  C   UNL     1      -8.782 -10.099  18.158  0.00  0.00    +0.162 A 
ATOM     28  C   UNL     1      -8.164  -9.452  15.914  0.00  0.00    +0.004 A 
ATOM     29  C   UNL     1      -9.121  -9.539  16.927  0.00  0.00    +0.049 A 
BRANCH  25   3
ATOM      3  O   UNL     1      -7.161 -11.117  19.584  0.00  0.00    -0.491 OA
ATOM     30  C   UNL     1      -7.479 -12.493  19.778  0.00  0.00    +0.277 C 
ENDBRANCH  25   3
BRANCH  27   4
ATOM      4  O   UNL     1      -9.725 -10.179  19.138  0.00  0.00    -0.491 OA
ATOM     31  C   UNL     1     -10.850 -11.019  18.888  0.00  0.00    +0.277 C 
ENDBRANCH  27   4
ENDBRANCH  20  24
ENDBRANCH  17  20
ENDBRANCH   6  17
BRANCH  16  18
ATOM     18  C   UNL     1      -5.923 -10.402  10.126  0.00  0.00    +0.102 C 
BRANCH  18  19
ATOM     19  C   UNL     1      -7.000  -9.992  11.146  0.00  0.00    -0.029 C 
ATOM     21  C   UNL     1      -6.405  -9.111  12.258  0.00  0.00    +0.011 C 
ATOM     22  C   UNL     1      -7.668 -11.226  11.775  0.00  0.00    +0.011 C 
ATOM     23  C   UNL     1      -8.073  -9.179  10.398  0.00  0.00    +0.011 C 
ENDBRANCH  18  19
ENDBRANCH  16  18
TORSDOF 7
ENDMDL
MODEL 4
REMARK VINA RESULT:      -6.1     27.998     30.172
REMARK  Name = 26742545
REMARK  12 active torsions:
REMARK  status: ('A' for Active; 'I' for Inactive)
REMARK    1  A    between atoms: O_3  and  C_25
REMARK    2  A    between atoms: O_3  and  C_30
REMARK    3  A    between atoms: O_4  and  C_27
REMARK    4  A    between atoms: O_4  and  C_31
REMARK    5  A    between atoms: N_6  and  C_17
REMARK    6  A    between atoms: C_16  and  C_18
REMARK    7  A    between atoms: C_17  and  C_20
REMARK    8  A    between atoms: C_18  and  C_19
REMARK    9  A    between atoms: C_19  and  C_21
REMARK   10  A    between atoms: C_19  and  C_22
REMARK   11  A    between atoms: C_19  and  C_23
REMARK   12  A    between atoms: C_20  and  C_24
REMARK                            x       y       z     vdW  Elec       q    Type
REMARK                         _______ _______ _______ _____ _____    ______ ____
ROOT
ATOM      1  O   UNL     1      -4.685 -13.673  17.084  0.00  0.00    -0.276 OA
ATOM      2  O   UNL     1     -10.583 -10.643  14.841  0.00  0.00    -0.276 OA
ATOM      5  N   UNL     1      -9.235 -10.295  16.700  0.00  0.00    -0.301 N 
ATOM      6  N   UNL     1      -4.519 -11.480  16.348  0.00  0.00    -0.301 N 
ATOM      7  C   UNL     1      -7.009  -9.932  17.752  0.00  0.00    +0.011 C 
ATOM      8  C   UNL     1      -7.036 -11.407  18.219  0.00  0.00    +0.004 C 
ATOM      9  C   UNL     1      -7.900 -12.280  17.290  0.00  0.00    +0.023 C 
ATOM     10  C   UNL     1      -8.454  -9.419  17.582  0.00  0.00    +0.111 C 
ATOM     11  C   UNL     1      -6.201  -9.666  16.468  0.00  0.00    +0.024 C 
ATOM     12  C   UNL     1      -5.648 -12.006  18.482  0.00  0.00    +0.100 C 
ATOM     13  C   UNL     1      -9.300 -11.692  17.129  0.00  0.00    +0.108 C 
ATOM     14  C   UNL     1      -4.731 -10.053  16.584  0.00  0.00    +0.108 C 
ATOM     15  C   UNL     1      -4.904 -12.470  17.244  0.00  0.00    +0.216 C 
ATOM     16  C   UNL     1      -9.911  -9.889  15.550  0.00  0.00    +0.216 C 
ENDROOT
BRANCH   6  17
ATOM     17  C   UNL     1      -3.875 -11.843  15.092  0.00  0.00    +0.112 C 
BRANCH  17  20
ATOM     20  C   UNL     1      -4.736 -11.516  13.875  0.00  0.00    +0.058 C 
BRANCH  20  24
ATOM     24  C   UNL     1      -3.969 -10.816  12.781  0.00  0.00    -0.001 A 
ATOM     25  C   UNL     1      -4.637 -10.164  11.745  0.00  0.00    +0.165 A 
ATOM     26  C   UNL     1      -2.574 -10.826  12.814  0.00  0.00    +0.007 A 
ATOM     27  C   UNL     1      -3.911  -9.521  10.742  0.00  0.00    +0.162 A 
ATOM     28  C   UNL     1      -1.848 -10.184  11.811  0.00  0.00    +0.004 A 
ATOM     29  C   UNL     1      -2.517  -9.531  10.775  0.00  0.00    +0.049 A 
BRANCH  25   3
ATOM      3  O   UNL     1      -6.000 -10.152  11.709  0.00  0.00    -0.491 OA
ATOM     30  C   UNL     1      -6.651  -9.022  12.286  0.00  0.00    +0.277 C 
ENDBRANCH  25   3
BRANCH  27   4
ATOM      4  O   UNL     1      -4.551  -8.880   9.724  0.00  0.00    -0.491 OA
ATOM     31  C   UNL     1      -4.720  -9.605   8.508  0.00  0.00    +0.277 C 
ENDBRANCH  27   4
ENDBRANCH  20  24
ENDBRANCH  17  20
ENDBRANCH   6  17
BRANCH  16  18
ATOM     18  C   UNL     1      -9.793  -8.434  15.174  0.00  0.00    +0.102 C 
BRANCH  18  19
ATOM     19  C   UNL     1     -11.095  -7.648  15.407  0.00  0.00    -0.029 C 
ATOM     21  C   UNL     1     -11.842  -8.166  16.648  0.00  0.00    +0.011 C 
ATOM     22  C   UNL     1     -12.021  -7.731  14.182  0.00  0.00    +0.011 C 
ATOM     23  C   UNL     1     -10.720  -6.172  15.641  0.00  0.00    +0.011 C 
ENDBRANCH  18  19
ENDBRANCH  16  18
TORSDOF 7
ENDMDL
MODEL 5
REMARK VINA RESULT:      -5.9     28.663     30.436
REMARK  Name = 26742545
REMARK  12 active torsions:
REMARK  status: ('A' for Active; 'I' for Inactive)
REMARK    1  A    between atoms: O_3  and  C_25
REMARK    2  A    between atoms: O_3  and  C_30
REMARK    3  A    between atoms: O_4  and  C_27
REMARK    4  A    between atoms: O_4  and  C_31
REMARK    5  A    between atoms: N_6  and  C_17
REMARK    6  A    between atoms: C_16  and  C_18
REMARK    7  A    between atoms: C_17  and  C_20
REMARK    8  A    between atoms: C_18  and  C_19
REMARK    9  A    between atoms: C_19  and  C_21
REMARK   10  A    between atoms: C_19  and  C_22
REMARK   11  A    between atoms: C_19  and  C_23
REMARK   12  A    between atoms: C_20  and  C_24
REMARK                            x       y       z     vdW  Elec       q    Type
REMARK                         _______ _______ _______ _____ _____    ______ ____
ROOT
ATOM      1  O   UNL     1      -4.388 -13.472  15.936  0.00  0.00    -0.276 OA
ATOM      2  O   UNL     1     -10.721 -11.903  18.475  0.00  0.00    -0.276 OA
ATOM      5  N   UNL     1      -8.567 -11.324  19.126  0.00  0.00    -0.301 N 
ATOM      6  N   UNL     1      -5.090 -11.273  15.710  0.00  0.00    -0.301 N 
ATOM      7  C   UNL     1      -6.285 -10.469  18.624  0.00  0.00    +0.011 C 
ATOM      8  C   UNL     1      -5.768 -11.926  18.702  0.00  0.00    +0.004 C 
ATOM      9  C   UNL     1      -6.875 -12.939  18.355  0.00  0.00    +0.023 C 
ATOM     10  C   UNL     1      -7.554 -10.325  19.489  0.00  0.00    +0.111 C 
ATOM     11  C   UNL     1      -6.556  -9.945  17.201  0.00  0.00    +0.024 C 
ATOM     12  C   UNL     1      -4.468 -12.171  17.926  0.00  0.00    +0.100 C 
ATOM     13  C   UNL     1      -8.117 -12.713  19.215  0.00  0.00    +0.108 C 
ATOM     14  C   UNL     1      -5.322  -9.958  16.305  0.00  0.00    +0.108 C 
ATOM     15  C   UNL     1      -4.640 -12.371  16.433  0.00  0.00    +0.216 C 
ATOM     16  C   UNL     1      -9.881 -11.043  18.749  0.00  0.00    +0.216 C 
ENDROOT
BRANCH   6  17
ATOM     17  C   UNL     1      -5.364 -11.400  14.285  0.00  0.00    +0.112 C 
BRANCH  17  20
ATOM     20  C   UNL     1      -5.594 -10.051  13.609  0.00  0.00    +0.058 C 
BRANCH  20  24
ATOM     24  C   UNL     1      -4.817  -9.894  12.325  0.00  0.00    -0.001 A 
ATOM     25  C   UNL     1      -5.418  -9.357  11.187  0.00  0.00    +0.165 A 
ATOM     26  C   UNL     1      -3.481 -10.294  12.286  0.00  0.00    +0.007 A 
ATOM     27  C   UNL     1      -4.683  -9.219  10.009  0.00  0.00    +0.162 A 
ATOM     28  C   UNL     1      -2.747 -10.157  11.108  0.00  0.00    +0.004 A 
ATOM     29  C   UNL     1      -3.348  -9.619   9.969  0.00  0.00    +0.049 A 
BRANCH  25   3
ATOM      3  O   UNL     1      -6.724  -8.965  11.222  0.00  0.00    -0.491 OA
ATOM     30  C   UNL     1      -7.696  -9.917  10.799  0.00  0.00    +0.277 C 
ENDBRANCH  25   3
BRANCH  27   4
ATOM      4  O   UNL     1      -5.258  -8.695   8.891  0.00  0.00    -0.491 OA
ATOM     31  C   UNL     1      -5.485  -9.587   7.801  0.00  0.00    +0.277 C 
ENDBRANCH  27   4
ENDBRANCH  20  24
ENDBRANCH  17  20
ENDBRANCH   6  17
BRANCH  16  18
ATOM     18  C   UNL     1     -10.267  -9.587  18.680  0.00  0.00    +0.102 C 
BRANCH  18  19
ATOM     19  C   UNL     1     -10.616  -9.128  17.253  0.00  0.00    -0.029 C 
ATOM     21  C   UNL     1     -12.138  -9.128  17.026  0.00  0.00    +0.011 C 
ATOM     22  C   UNL     1      -9.943 -10.025  16.201  0.00  0.00    +0.011 C 
ATOM     23  C   UNL     1     -10.094  -7.689  17.079  0.00  0.00    +0.011 C 
ENDBRANCH  18  19
ENDBRANCH  16  18
TORSDOF 7
ENDMDL
MODEL 6
REMARK VINA RESULT:      -5.9     30.894     33.341
REMARK  Name = 26742545
REMARK  12 active torsions:
REMARK  status: ('A' for Active; 'I' for Inactive)
REMARK    1  A    between atoms: O_3  and  C_25
REMARK    2  A    between atoms: O_3  and  C_30
REMARK    3  A    between atoms: O_4  and  C_27
REMARK    4  A    between atoms: O_4  and  C_31
REMARK    5  A    between atoms: N_6  and  C_17
REMARK    6  A    between atoms: C_16  and  C_18
REMARK    7  A    between atoms: C_17  and  C_20
REMARK    8  A    between atoms: C_18  and  C_19
REMARK    9  A    between atoms: C_19  and  C_21
REMARK   10  A    between atoms: C_19  and  C_22
REMARK   11  A    between atoms: C_19  and  C_23
REMARK   12  A    between atoms: C_20  and  C_24
REMARK                            x       y       z     vdW  Elec       q    Type
REMARK                         _______ _______ _______ _____ _____    ______ ____
ROOT
ATOM      1  O   UNL     1     -17.774   7.648  29.168  0.00  0.00    -0.276 OA
ATOM      2  O   UNL     1     -12.733   3.282  31.298  0.00  0.00    -0.276 OA
ATOM      5  N   UNL     1     -14.773   3.911  32.216  0.00  0.00    -0.301 N 
ATOM      6  N   UNL     1     -18.283   5.385  29.171  0.00  0.00    -0.301 N 
ATOM      7  C   UNL     1     -17.226   4.290  32.043  0.00  0.00    +0.011 C 
ATOM      8  C   UNL     1     -16.944   5.810  31.975  0.00  0.00    +0.004 C 
ATOM      9  C   UNL     1     -15.547   6.102  31.397  0.00  0.00    +0.023 C 
ATOM     10  C   UNL     1     -16.080   3.586  32.799  0.00  0.00    +0.111 C 
ATOM     11  C   UNL     1     -17.458   3.605  30.683  0.00  0.00    +0.024 C 
ATOM     12  C   UNL     1     -18.054   6.623  31.297  0.00  0.00    +0.100 C 
ATOM     13  C   UNL     1     -14.466   5.341  32.161  0.00  0.00    +0.108 C 
ATOM     14  C   UNL     1     -18.642   4.176  29.910  0.00  0.00    +0.108 C 
ATOM     15  C   UNL     1     -18.025   6.607  29.781  0.00  0.00    +0.216 C 
ATOM     16  C   UNL     1     -13.837   2.982  31.760  0.00  0.00    +0.216 C 
ENDROOT
BRANCH   6  17
ATOM     17  C   UNL     1     -18.193   5.259  27.722  0.00  0.00    +0.112 C 
BRANCH  17  20
ATOM     20  C   UNL     1     -16.881   4.624  27.269  0.00  0.00    +0.058 C 
BRANCH  20  24
ATOM     24  C   UNL     1     -17.083   3.348  26.489  0.00  0.00    -0.001 A 
ATOM     25  C   UNL     1     -16.875   3.314  25.110  0.00  0.00    +0.165 A 
ATOM     26  C   UNL     1     -17.482   2.194  27.163  0.00  0.00    +0.007 A 
ATOM     27  C   UNL     1     -17.066   2.125  24.405  0.00  0.00    +0.162 A 
ATOM     28  C   UNL     1     -17.673   1.006  26.458  0.00  0.00    +0.004 A 
ATOM     29  C   UNL     1     -17.465   0.971  25.079  0.00  0.00    +0.049 A 
BRANCH  25   3
ATOM      3  O   UNL     1     -16.485   4.440  24.447  0.00  0.00    -0.491 OA
ATOM     30  C   UNL     1     -15.117   4.516  24.055  0.00  0.00    +0.277 C 
ENDBRANCH  25   3
BRANCH  27   4
ATOM      4  O   UNL     1     -16.866   2.077  23.058  0.00  0.00    -0.491 OA
ATOM     31  C   UNL     1     -18.002   1.793  22.245  0.00  0.00    +0.277 C 
ENDBRANCH  27   4
ENDBRANCH  20  24
ENDBRANCH  17  20
ENDBRANCH   6  17
BRANCH  16  18
ATOM     18  C   UNL     1     -14.230   1.529  31.848  0.00  0.00    +0.102 C 
BRANCH  18  19
ATOM     19  C   UNL     1     -14.500   0.898  30.470  0.00  0.00    -0.029 C 
ATOM     21  C   UNL     1     -13.340  -0.016  30.041  0.00  0.00    +0.011 C 
ATOM     22  C   UNL     1     -14.723   1.979  29.399  0.00  0.00    +0.011 C 
ATOM     23  C   UNL     1     -15.779   0.047  30.584  0.00  0.00    +0.011 C 
ENDBRANCH  18  19
ENDBRANCH  16  18
TORSDOF 7
ENDMDL
MODEL 7
REMARK VINA RESULT:      -5.8     17.719     21.763
REMARK  Name = 26742545
REMARK  12 active torsions:
REMARK  status: ('A' for Active; 'I' for Inactive)
REMARK    1  A    between atoms: O_3  and  C_25
REMARK    2  A    between atoms: O_3  and  C_30
REMARK    3  A    between atoms: O_4  and  C_27
REMARK    4  A    between atoms: O_4  and  C_31
REMARK    5  A    between atoms: N_6  and  C_17
REMARK    6  A    between atoms: C_16  and  C_18
REMARK    7  A    between atoms: C_17  and  C_20
REMARK    8  A    between atoms: C_18  and  C_19
REMARK    9  A    between atoms: C_19  and  C_21
REMARK   10  A    between atoms: C_19  and  C_22
REMARK   11  A    between atoms: C_19  and  C_23
REMARK   12  A    between atoms: C_20  and  C_24
REMARK                            x       y       z     vdW  Elec       q    Type
REMARK                         _______ _______ _______ _____ _____    ______ ____
ROOT
ATOM      1  O   UNL     1      15.269   6.073   2.211  0.00  0.00    -0.276 OA
ATOM      2  O   UNL     1      12.102   5.855  -4.029  0.00  0.00    -0.276 OA
ATOM      5  N   UNL     1      12.717   4.209  -2.509  0.00  0.00    -0.301 N 
ATOM      6  N   UNL     1      13.033   5.454   2.194  0.00  0.00    -0.301 N 
ATOM      7  C   UNL     1      12.784   3.274  -0.204  0.00  0.00    +0.011 C 
ATOM      8  C   UNL     1      14.263   3.719  -0.111  0.00  0.00    +0.004 C 
ATOM      9  C   UNL     1      14.551   4.923  -1.027  0.00  0.00    +0.023 C 
ATOM     10  C   UNL     1      12.408   3.037  -1.681  0.00  0.00    +0.111 C 
ATOM     11  C   UNL     1      11.770   4.231   0.450  0.00  0.00    +0.024 C 
ATOM     12  C   UNL     1      14.767   3.924   1.323  0.00  0.00    +0.100 C 
ATOM     13  C   UNL     1      14.115   4.639  -2.463  0.00  0.00    +0.108 C 
ATOM     14  C   UNL     1      12.009   4.443   1.941  0.00  0.00    +0.108 C 
ATOM     15  C   UNL     1      14.387   5.250   1.953  0.00  0.00    +0.216 C 
ATOM     16  C   UNL     1      11.809   4.887  -3.322  0.00  0.00    +0.216 C 
ENDROOT
BRANCH   6  17
ATOM     17  C   UNL     1      12.570   6.733   2.718  0.00  0.00    +0.112 C 
BRANCH  17  20
ATOM     20  C   UNL     1      11.231   6.620   3.441  0.00  0.00    +0.058 C 
BRANCH  20  24
ATOM     24  C   UNL     1      11.377   6.511   4.938  0.00  0.00    -0.001 A 
ATOM     25  C   UNL     1      10.334   6.017   5.723  0.00  0.00    +0.165 A 
ATOM     26  C   UNL     1      12.572   6.911   5.537  0.00  0.00    +0.007 A 
ATOM     27  C   UNL     1      10.488   5.922   7.106  0.00  0.00    +0.162 A 
ATOM     28  C   UNL     1      12.724   6.817   6.920  0.00  0.00    +0.004 A 
ATOM     29  C   UNL     1      11.682   6.322   7.705  0.00  0.00    +0.049 A 
BRANCH  25   3
ATOM      3  O   UNL     1       9.165   5.624   5.141  0.00  0.00    -0.491 OA
ATOM     30  C   UNL     1       8.085   6.553   5.173  0.00  0.00    +0.277 C 
ENDBRANCH  25   3
BRANCH  27   4
ATOM      4  O   UNL     1       9.479   5.441   7.885  0.00  0.00    -0.491 OA
ATOM     31  C   UNL     1       9.737   4.241   8.612  0.00  0.00    +0.277 C 
ENDBRANCH  27   4
ENDBRANCH  20  24
ENDBRANCH  17  20
ENDBRANCH   6  17
BRANCH  16  18
ATOM     18  C   UNL     1      10.388   4.384  -3.312  0.00  0.00    +0.102 C 
BRANCH  18  19
ATOM     19  C   UNL     1      10.066   3.477  -4.513  0.00  0.00    -0.029 C 
ATOM     21  C   UNL     1      11.349   3.062  -5.255  0.00  0.00    +0.011 C 
ATOM     22  C   UNL     1       9.111   4.174  -5.496  0.00  0.00    +0.011 C 
ATOM     23  C   UNL     1       9.378   2.208  -3.975  0.00  0.00    +0.011 C 
ENDBRANCH  18  19
ENDBRANCH  16  18
TORSDOF 7
ENDMDL
MODEL 8
REMARK VINA RESULT:      -5.8     27.740     30.415
REMARK  Name = 26742545
REMARK  12 active torsions:
REMARK  status: ('A' for Active; 'I' for Inactive)
REMARK    1  A    between atoms: O_3  and  C_25
REMARK    2  A    between atoms: O_3  and  C_30
REMARK    3  A    between atoms: O_4  and  C_27
REMARK    4  A    between atoms: O_4  and  C_31
REMARK    5  A    between atoms: N_6  and  C_17
REMARK    6  A    between atoms: C_16  and  C_18
REMARK    7  A    between atoms: C_17  and  C_20
REMARK    8  A    between atoms: C_18  and  C_19
REMARK    9  A    between atoms: C_19  and  C_21
REMARK   10  A    between atoms: C_19  and  C_22
REMARK   11  A    between atoms: C_19  and  C_23
REMARK   12  A    between atoms: C_20  and  C_24
REMARK                            x       y       z     vdW  Elec       q    Type
REMARK                         _______ _______ _______ _____ _____    ______ ____
ROOT
ATOM      1  O   UNL     1      -2.067 -12.257  14.885  0.00  0.00    -0.276 OA
ATOM      2  O   UNL     1      -8.058 -13.206  18.379  0.00  0.00    -0.276 OA
ATOM      5  N   UNL     1      -6.800 -11.318  17.881  0.00  0.00    -0.301 N 
ATOM      6  N   UNL     1      -3.997 -11.436  13.894  0.00  0.00    -0.301 N 
ATOM      7  C   UNL     1      -5.564  -9.874  16.276  0.00  0.00    +0.011 C 
ATOM      8  C   UNL     1      -4.242 -10.432  16.855  0.00  0.00    +0.004 C 
ATOM      9  C   UNL     1      -4.433 -11.842  17.444  0.00  0.00    +0.023 C 
ATOM     10  C   UNL     1      -6.673  -9.957  17.344  0.00  0.00    +0.111 C 
ATOM     11  C   UNL     1      -6.039 -10.540  14.971  0.00  0.00    +0.024 C 
ATOM     12  C   UNL     1      -3.049 -10.340  15.896  0.00  0.00    +0.100 C 
ATOM     13  C   UNL     1      -5.573 -11.864  18.460  0.00  0.00    +0.108 C 
ATOM     14  C   UNL     1      -5.040 -10.414  13.826  0.00  0.00    +0.108 C 
ATOM     15  C   UNL     1      -2.984 -11.433  14.847  0.00  0.00    +0.216 C 
ATOM     16  C   UNL     1      -7.972 -12.073  17.898  0.00  0.00    +0.216 C 
ENDROOT
BRANCH   6  17
ATOM     17  C   UNL     1      -4.061 -12.499  12.900  0.00  0.00    +0.112 C 
BRANCH  17  20
ATOM     20  C   UNL     1      -3.067 -12.296  11.759  0.00  0.00    +0.058 C 
BRANCH  20  24
ATOM     24  C   UNL     1      -3.518 -11.255  10.764  0.00  0.00    -0.001 A 
ATOM     25  C   UNL     1      -4.473 -11.561   9.794  0.00  0.00    +0.165 A 
ATOM     26  C   UNL     1      -2.968  -9.974  10.823  0.00  0.00    +0.007 A 
ATOM     27  C   UNL     1      -4.878 -10.585   8.883  0.00  0.00    +0.162 A 
ATOM     28  C   UNL     1      -3.373  -9.000   9.911  0.00  0.00    +0.004 A 
ATOM     29  C   UNL     1      -4.328  -9.305   8.941  0.00  0.00    +0.049 A 
BRANCH  25   3
ATOM      3  O   UNL     1      -5.013 -12.812   9.734  0.00  0.00    -0.491 OA
ATOM     30  C   UNL     1      -4.412 -13.732   8.826  0.00  0.00    +0.277 C 
ENDBRANCH  25   3
BRANCH  27   4
ATOM      4  O   UNL     1      -5.810 -10.870   7.931  0.00  0.00    -0.491 OA
ATOM     31  C   UNL     1      -5.521 -10.455   6.597  0.00  0.00    +0.277 C 
ENDBRANCH  27   4
ENDBRANCH  20  24
ENDBRANCH  17  20
ENDBRANCH   6  17
BRANCH  16  18
ATOM     18  C   UNL     1      -9.193 -11.441  17.279  0.00  0.00    +0.102 C 
BRANCH  18  19
ATOM     19  C   UNL     1     -10.142 -10.826  18.323  0.00  0.00    -0.029 C 
ATOM     21  C   UNL     1     -10.435  -9.349  18.006  0.00  0.00    +0.011 C 
ATOM     22  C   UNL     1      -9.556 -10.937  19.741  0.00  0.00    +0.011 C 
ATOM     23  C   UNL     1     -11.467 -11.610  18.276  0.00  0.00    +0.011 C 
ENDBRANCH  18  19
ENDBRANCH  16  18
TORSDOF 7
ENDMDL
MODEL 9
REMARK VINA RESULT:      -5.7     26.418     29.720
REMARK  Name = 26742545
REMARK  12 active torsions:
REMARK  status: ('A' for Active; 'I' for Inactive)
REMARK    1  A    between atoms: O_3  and  C_25
REMARK    2  A    between atoms: O_3  and  C_30
REMARK    3  A    between atoms: O_4  and  C_27
REMARK    4  A    between atoms: O_4  and  C_31
REMARK    5  A    between atoms: N_6  and  C_17
REMARK    6  A    between atoms: C_16  and  C_18
REMARK    7  A    between atoms: C_17  and  C_20
REMARK    8  A    between atoms: C_18  and  C_19
REMARK    9  A    between atoms: C_19  and  C_21
REMARK   10  A    between atoms: C_19  and  C_22
REMARK   11  A    between atoms: C_19  and  C_23
REMARK   12  A    between atoms: C_20  and  C_24
REMARK                            x       y       z     vdW  Elec       q    Type
REMARK                         _______ _______ _______ _____ _____    ______ ____
ROOT
ATOM      1  O   UNL     1     -11.665  10.601  20.868  0.00  0.00    -0.276 OA
ATOM      2  O   UNL     1     -12.846  11.211  13.995  0.00  0.00    -0.276 OA
ATOM      5  N   UNL     1     -11.233  10.082  15.228  0.00  0.00    -0.301 N 
ATOM      6  N   UNL     1     -12.386   8.696  19.757  0.00  0.00    -0.301 N 
ATOM      7  C   UNL     1     -10.563   8.550  17.070  0.00  0.00    +0.011 C 
ATOM      8  C   UNL     1     -10.120   9.789  17.884  0.00  0.00    +0.004 C 
ATOM      9  C   UNL     1     -10.904  11.048  17.471  0.00  0.00    +0.023 C 
ATOM     10  C   UNL     1     -10.482   8.866  15.563  0.00  0.00    +0.111 C 
ATOM     11  C   UNL     1     -11.960   8.002  17.419  0.00  0.00    +0.024 C 
ATOM     12  C   UNL     1     -10.101   9.568  19.402  0.00  0.00    +0.100 C 
ATOM     13  C   UNL     1     -10.820  11.278  15.963  0.00  0.00    +0.108 C 
ATOM     14  C   UNL     1     -12.096   7.569  18.874  0.00  0.00    +0.108 C 
ATOM     15  C   UNL     1     -11.452   9.674  20.083  0.00  0.00    +0.216 C 
ATOM     16  C   UNL     1     -12.248  10.169  14.276  0.00  0.00    +0.216 C 
ENDROOT
BRANCH   6  17
ATOM     17  C   UNL     1     -13.737   8.769  20.299  0.00  0.00    +0.112 C 
BRANCH  17  20
ATOM     20  C   UNL     1     -14.243   7.417  20.796  0.00  0.00    +0.058 C 
BRANCH  20  24
ATOM     24  C   UNL     1     -15.379   6.872  19.965  0.00  0.00    -0.001 A 
ATOM     25  C   UNL     1     -15.981   5.656  20.290  0.00  0.00    +0.165 A 
ATOM     26  C   UNL     1     -15.825   7.599  18.862  0.00  0.00    +0.007 A 
ATOM     27  C   UNL     1     -17.030   5.168  19.511  0.00  0.00    +0.162 A 
ATOM     28  C   UNL     1     -16.874   7.110  18.083  0.00  0.00    +0.004 A 
ATOM     29  C   UNL     1     -17.477   5.895  18.408  0.00  0.00    +0.049 A 
BRANCH  25   3
ATOM      3  O   UNL     1     -15.547   4.943  21.368  0.00  0.00    -0.491 OA
ATOM     30  C   UNL     1     -16.240   5.145  22.597  0.00  0.00    +0.277 C 
ENDBRANCH  25   3
BRANCH  27   4
ATOM      4  O   UNL     1     -17.628   3.983  19.817  0.00  0.00    -0.491 OA
ATOM     31  C   UNL     1     -18.994   3.829  19.438  0.00  0.00    +0.277 C 
ENDBRANCH  27   4
ENDBRANCH  20  24
ENDBRANCH  17  20
ENDBRANCH   6  17
BRANCH  16  18
ATOM     18  C   UNL     1     -12.617   8.892  13.563  0.00  0.00    +0.102 C 
BRANCH  18  19
ATOM     19  C   UNL     1     -14.084   8.484  13.789  0.00  0.00    -0.029 C 
ATOM     21  C   UNL     1     -14.532   8.795  15.227  0.00  0.00    +0.011 C 
ATOM     22  C   UNL     1     -14.294   6.987  13.501  0.00  0.00    +0.011 C 
ATOM     23  C   UNL     1     -14.956   9.299  12.816  0.00  0.00    +0.011 C 
ENDBRANCH  18  19
ENDBRANCH  16  18
TORSDOF 7
ENDMDL
MODEL 10
REMARK VINA RESULT:      -5.6     28.757     30.770
REMARK  Name = 26742545
REMARK  12 active torsions:
REMARK  status: ('A' for Active; 'I' for Inactive)
REMARK    1  A    between atoms: O_3  and  C_25
REMARK    2  A    between atoms: O_3  and  C_30
REMARK    3  A    between atoms: O_4  and  C_27
REMARK    4  A    between atoms: O_4  and  C_31
REMARK    5  A    between atoms: N_6  and  C_17
REMARK    6  A    between atoms: C_16  and  C_18
REMARK    7  A    between atoms: C_17  and  C_20
REMARK    8  A    between atoms: C_18  and  C_19
REMARK    9  A    between atoms: C_19  and  C_21
REMARK   10  A    between atoms: C_19  and  C_22
REMARK   11  A    between atoms: C_19  and  C_23
REMARK   12  A    between atoms: C_20  and  C_24
REMARK                            x       y       z     vdW  Elec       q    Type
REMARK                         _______ _______ _______ _____ _____    ______ ____
ROOT
ATOM      1  O   UNL     1      -4.128 -13.001  15.490  0.00  0.00    -0.276 OA
ATOM      2  O   UNL     1     -10.285 -12.404  18.768  0.00  0.00    -0.276 OA
ATOM      5  N   UNL     1      -8.188 -11.484  19.161  0.00  0.00    -0.301 N 
ATOM      6  N   UNL     1      -5.189 -10.943  15.356  0.00  0.00    -0.301 N 
ATOM      7  C   UNL     1      -6.144 -10.291  18.394  0.00  0.00    +0.011 C 
ATOM      8  C   UNL     1      -5.398 -11.647  18.405  0.00  0.00    +0.004 C 
ATOM      9  C   UNL     1      -6.365 -12.826  18.189  0.00  0.00    +0.023 C 
ATOM     10  C   UNL     1      -7.308 -10.334  19.404  0.00  0.00    +0.111 C 
ATOM     11  C   UNL     1      -6.659  -9.838  17.015  0.00  0.00    +0.024 C 
ATOM     12  C   UNL     1      -4.176 -11.698  17.480  0.00  0.00    +0.100 C 
ATOM     13  C   UNL     1      -7.517 -12.784  19.191  0.00  0.00    +0.108 C 
ATOM     14  C   UNL     1      -5.553  -9.671  15.979  0.00  0.00    +0.108 C 
ATOM     15  C   UNL     1      -4.489 -11.946  16.017  0.00  0.00    +0.216 C 
ATOM     16  C   UNL     1      -9.564 -11.418  18.944  0.00  0.00    +0.216 C 
ENDROOT
BRANCH   6  17
ATOM     17  C   UNL     1      -5.606 -11.133  13.973  0.00  0.00    +0.112 C 
BRANCH  17  20
ATOM     20  C   UNL     1      -5.302  -9.921  13.096  0.00  0.00    +0.058 C 
BRANCH  20  24
ATOM     24  C   UNL     1      -6.388  -9.636  12.088  0.00  0.00    -0.001 A 
ATOM     25  C   UNL     1      -6.116  -8.897  10.937  0.00  0.00    +0.165 A 
ATOM     26  C   UNL     1      -7.675 -10.121  12.319  0.00  0.00    +0.007 A 
ATOM     27  C   UNL     1      -7.133  -8.644  10.015  0.00  0.00    +0.162 A 
ATOM     28  C   UNL     1      -8.691  -9.867  11.398  0.00  0.00    +0.004 A 
ATOM     29  C   UNL     1      -8.420  -9.128  10.246  0.00  0.00    +0.049 A 
BRANCH  25   3
ATOM      3  O   UNL     1      -4.859  -8.422  10.707  0.00  0.00    -0.491 OA
ATOM     30  C   UNL     1      -4.025  -9.191   9.844  0.00  0.00    +0.277 C 
ENDBRANCH  25   3
BRANCH  27   4
ATOM      4  O   UNL     1      -6.881  -7.924   8.886  0.00  0.00    -0.491 OA
ATOM     31  C   UNL     1      -7.973  -7.198   8.324  0.00  0.00    +0.277 C 
ENDBRANCH  27   4
ENDBRANCH  20  24
ENDBRANCH  17  20
ENDBRANCH   6  17
BRANCH  16  18
ATOM     18  C   UNL     1     -10.180 -10.042  18.926  0.00  0.00    +0.102 C 
BRANCH  18  19
ATOM     19  C   UNL     1     -10.579  -9.584  17.512  0.00  0.00    -0.029 C 
ATOM     21  C   UNL     1     -12.107  -9.472  17.375  0.00  0.00    +0.011 C 
ATOM     22  C   UNL     1     -10.041 -10.550  16.442  0.00  0.00    +0.011 C 
ATOM     23  C   UNL     1      -9.962  -8.193  17.274  0.00  0.00    +0.011 C 
ENDBRANCH  18  19
ENDBRANCH  16  18
TORSDOF 7
ENDMDL
