MODEL 1
REMARK VINA RESULT:      -7.0      0.000      0.000
REMARK  Name = 26744176
REMARK  9 active torsions:
REMARK  status: ('A' for Active; 'I' for Inactive)
REMARK    1  A    between atoms: O_1  and  C_11
REMARK    2  A    between atoms: O_3  and  C_27
REMARK    3  A    between atoms: O_3  and  C_30
REMARK    4  A    between atoms: N_5  and  C_13
REMARK    5  A    between atoms: N_8  and  C_21
REMARK    6  A    between atoms: C_9  and  C_14
REMARK    7  A    between atoms: C_13  and  C_15
REMARK    8  A    between atoms: C_18  and  C_22
REMARK    9  A    between atoms: C_28  and  C_29
REMARK                            x       y       z     vdW  Elec       q    Type
REMARK                         _______ _______ _______ _____ _____    ______ ____
ROOT
ATOM      5  N   UNL     1      -2.975 -10.527  13.814  0.00  0.00    -0.285 NA
ATOM      9  C   UNL     1      -3.377 -11.386  14.946  0.00  0.00    +0.149 C 
ATOM     10  C   UNL     1      -2.410 -11.014  16.085  0.00  0.00    +0.061 C 
ATOM     11  C   UNL     1      -1.475  -9.973  15.485  0.00  0.00    +0.130 C 
ATOM     12  C   UNL     1      -1.552 -10.243  13.994  0.00  0.00    +0.116 C 
ENDROOT
BRANCH   9  14
ATOM      2  O   UNL     1      -5.498 -12.321  15.722  0.00  0.00    -0.336 OA
ATOM      6  N   UNL     1      -5.558 -10.115  15.336  0.00  0.00    -0.190 NA
ATOM      7  N   UNL     1      -6.803 -11.909  16.019  0.00  0.00    -0.056 NA
ATOM     14  C   UNL     1      -4.831 -11.204  15.328  0.00  0.00    +0.245 A 
ATOM     18  C   UNL     1      -6.759 -10.598  15.767  0.00  0.00    +0.202 A 
BRANCH  18  22
ATOM     22  C   UNL     1      -7.897  -9.741  15.936  0.00  0.00    +0.023 A 
ATOM     23  C   UNL     1      -8.194  -9.215  17.194  0.00  0.00    +0.015 A 
ATOM     24  C   UNL     1      -8.708  -9.435  14.843  0.00  0.00    +0.015 A 
ATOM     25  C   UNL     1      -9.303  -8.384  17.357  0.00  0.00    +0.046 A 
ATOM     26  C   UNL     1      -9.817  -8.604  15.006  0.00  0.00    +0.046 A 
ATOM     27  C   UNL     1     -10.113  -8.078  16.264  0.00  0.00    +0.120 A 
BRANCH  27   3
ATOM      3  O   UNL     1     -11.195  -7.267  16.423  0.00  0.00    -0.495 OA
ATOM     30  C   UNL     1     -11.137  -5.981  15.808  0.00  0.00    +0.277 C 
ENDBRANCH  27   3
ENDBRANCH  18  22
ENDBRANCH   9  14
BRANCH  11   1
ATOM      1  O   UNL     1      -0.160 -10.133  15.981  0.00  0.00    -0.390 OA
ATOM     31  H   UNL     1       0.044 -11.084  15.964  0.00  0.00    +0.210 HD
ENDBRANCH  11   1
BRANCH   5  13
ATOM     13  C   UNL     1      -3.255 -11.120  12.514  0.00  0.00    +0.120 C 
BRANCH  13  15
ATOM     15  C   UNL     1      -4.038 -10.188  11.628  0.00  0.00    -0.033 A 
ATOM     16  C   UNL     1      -5.284  -9.717  12.038  0.00  0.00    +0.007 A 
ATOM     17  C   UNL     1      -3.516  -9.795  10.395  0.00  0.00    +0.007 A 
ATOM     19  C   UNL     1      -6.010  -8.855  11.217  0.00  0.00    +0.023 A 
ATOM     20  C   UNL     1      -4.241  -8.932   9.573  0.00  0.00    +0.023 A 
ATOM     21  C   UNL     1      -5.488  -8.463   9.984  0.00  0.00    +0.033 A 
BRANCH  21   8
ATOM      4  O   UNL     1      -8.141  -8.840   8.610  0.00  0.00    -0.276 OA
ATOM      8  N   UNL     1      -6.214  -7.600   9.162  0.00  0.00    -0.286 N 
ATOM     28  C   UNL     1      -7.450  -7.828   8.543  0.00  0.00    +0.214 C 
ATOM     29  C   UNL     1      -7.899  -6.638   7.733  0.00  0.00    +0.109 C 
ATOM     32  H   UNL     1      -5.781  -6.693   8.997  0.00  0.00    +0.155 HD
ENDBRANCH  21   8
ENDBRANCH  13  15
ENDBRANCH   5  13
TORSDOF 7
ENDMDL
MODEL 2
REMARK VINA RESULT:      -6.8     19.119     21.870
REMARK  Name = 26744176
REMARK  9 active torsions:
REMARK  status: ('A' for Active; 'I' for Inactive)
REMARK    1  A    between atoms: O_1  and  C_11
REMARK    2  A    between atoms: O_3  and  C_27
REMARK    3  A    between atoms: O_3  and  C_30
REMARK    4  A    between atoms: N_5  and  C_13
REMARK    5  A    between atoms: N_8  and  C_21
REMARK    6  A    between atoms: C_9  and  C_14
REMARK    7  A    between atoms: C_13  and  C_15
REMARK    8  A    between atoms: C_18  and  C_22
REMARK    9  A    between atoms: C_28  and  C_29
REMARK                            x       y       z     vdW  Elec       q    Type
REMARK                         _______ _______ _______ _____ _____    ______ ____
ROOT
ATOM      5  N   UNL     1     -11.733   9.771  20.363  0.00  0.00    -0.285 NA
ATOM      9  C   UNL     1     -12.315   8.648  19.600  0.00  0.00    +0.149 C 
ATOM     10  C   UNL     1     -11.227   8.259  18.582  0.00  0.00    +0.061 C 
ATOM     11  C   UNL     1     -10.092   9.246  18.820  0.00  0.00    +0.130 C 
ATOM     12  C   UNL     1     -10.782  10.430  19.470  0.00  0.00    +0.116 C 
ENDROOT
BRANCH   9  14
ATOM      2  O   UNL     1     -11.736   6.663  20.903  0.00  0.00    -0.336 OA
ATOM      6  N   UNL     1     -13.919   7.164  20.920  0.00  0.00    -0.190 NA
ATOM      7  N   UNL     1     -12.353   5.688  21.696  0.00  0.00    -0.056 NA
ATOM     14  C   UNL     1     -12.729   7.493  20.486  0.00  0.00    +0.245 A 
ATOM     18  C   UNL     1     -13.638   6.051  21.658  0.00  0.00    +0.202 A 
BRANCH  18  22
ATOM     22  C   UNL     1     -14.666   5.324  22.346  0.00  0.00    +0.023 A 
ATOM     23  C   UNL     1     -15.932   5.193  21.772  0.00  0.00    +0.015 A 
ATOM     24  C   UNL     1     -14.401   4.750  23.588  0.00  0.00    +0.015 A 
ATOM     25  C   UNL     1     -16.931   4.488  22.444  0.00  0.00    +0.046 A 
ATOM     26  C   UNL     1     -15.401   4.045  24.260  0.00  0.00    +0.046 A 
ATOM     27  C   UNL     1     -16.666   3.914  23.686  0.00  0.00    +0.120 A 
BRANCH  27   3
ATOM      3  O   UNL     1     -17.641   3.227  24.341  0.00  0.00    -0.495 OA
ATOM     30  C   UNL     1     -17.361   1.869  24.680  0.00  0.00    +0.277 C 
ENDBRANCH  27   3
ENDBRANCH  18  22
ENDBRANCH   9  14
BRANCH  11   1
ATOM      1  O   UNL     1      -9.473   9.604  17.599  0.00  0.00    -0.390 OA
ATOM     31  H   UNL     1      -9.326   8.786  17.095  0.00  0.00    +0.210 HD
ENDBRANCH  11   1
BRANCH   5  13
ATOM     13  C   UNL     1     -12.733  10.695  20.879  0.00  0.00    +0.120 C 
BRANCH  13  15
ATOM     15  C   UNL     1     -12.759  10.712  22.384  0.00  0.00    -0.033 A 
ATOM     16  C   UNL     1     -11.802  11.439  23.091  0.00  0.00    +0.007 A 
ATOM     17  C   UNL     1     -13.741   9.999  23.072  0.00  0.00    +0.007 A 
ATOM     19  C   UNL     1     -11.825  11.452  24.485  0.00  0.00    +0.023 A 
ATOM     20  C   UNL     1     -13.766  10.014  24.467  0.00  0.00    +0.023 A 
ATOM     21  C   UNL     1     -12.808  10.740  25.173  0.00  0.00    +0.033 A 
BRANCH  21   8
ATOM      4  O   UNL     1     -10.921   9.513  27.174  0.00  0.00    -0.276 OA
ATOM      8  N   UNL     1     -12.832  10.754  26.568  0.00  0.00    -0.286 N 
ATOM     28  C   UNL     1     -11.924  10.161  27.456  0.00  0.00    +0.214 C 
ATOM     29  C   UNL     1     -12.306  10.408  28.894  0.00  0.00    +0.109 C 
ATOM     32  H   UNL     1     -13.612  11.260  26.983  0.00  0.00    +0.155 HD
ENDBRANCH  21   8
ENDBRANCH  13  15
ENDBRANCH   5  13
TORSDOF 7
ENDMDL
MODEL 3
REMARK VINA RESULT:      -6.6     24.170     27.119
REMARK  Name = 26744176
REMARK  9 active torsions:
REMARK  status: ('A' for Active; 'I' for Inactive)
REMARK    1  A    between atoms: O_1  and  C_11
REMARK    2  A    between atoms: O_3  and  C_27
REMARK    3  A    between atoms: O_3  and  C_30
REMARK    4  A    between atoms: N_5  and  C_13
REMARK    5  A    between atoms: N_8  and  C_21
REMARK    6  A    between atoms: C_9  and  C_14
REMARK    7  A    between atoms: C_13  and  C_15
REMARK    8  A    between atoms: C_18  and  C_22
REMARK    9  A    between atoms: C_28  and  C_29
REMARK                            x       y       z     vdW  Elec       q    Type
REMARK                         _______ _______ _______ _____ _____    ______ ____
ROOT
ATOM      5  N   UNL     1      10.291   5.537   6.220  0.00  0.00    -0.285 NA
ATOM      9  C   UNL     1      10.071   6.704   7.098  0.00  0.00    +0.149 C 
ATOM     10  C   UNL     1       9.931   6.112   8.513  0.00  0.00    +0.061 C 
ATOM     11  C   UNL     1      10.041   4.605   8.322  0.00  0.00    +0.130 C 
ATOM     12  C   UNL     1       9.644   4.400   6.873  0.00  0.00    +0.116 C 
ENDROOT
BRANCH   9  14
ATOM      2  O   UNL     1      10.842   9.019   7.241  0.00  0.00    -0.336 OA
ATOM      6  N   UNL     1      12.448   7.552   6.708  0.00  0.00    -0.190 NA
ATOM      7  N   UNL     1      12.017   9.766   7.091  0.00  0.00    -0.056 NA
ATOM     14  C   UNL     1      11.183   7.726   6.999  0.00  0.00    +0.245 A 
ATOM     18  C   UNL     1      12.919   8.831   6.778  0.00  0.00    +0.202 A 
BRANCH  18  22
ATOM     22  C   UNL     1      14.297   9.141   6.528  0.00  0.00    +0.023 A 
ATOM     23  C   UNL     1      14.747  10.457   6.637  0.00  0.00    +0.015 A 
ATOM     24  C   UNL     1      15.186   8.127   6.176  0.00  0.00    +0.015 A 
ATOM     25  C   UNL     1      16.087  10.758   6.392  0.00  0.00    +0.046 A 
ATOM     26  C   UNL     1      16.527   8.427   5.931  0.00  0.00    +0.046 A 
ATOM     27  C   UNL     1      16.977   9.744   6.040  0.00  0.00    +0.120 A 
BRANCH  27   3
ATOM      3  O   UNL     1      18.284  10.036   5.801  0.00  0.00    -0.495 OA
ATOM     30  C   UNL     1      19.240   9.017   6.088  0.00  0.00    +0.277 C 
ENDBRANCH  27   3
ENDBRANCH  18  22
ENDBRANCH   9  14
BRANCH  11   1
ATOM      1  O   UNL     1       9.173   3.922   9.206  0.00  0.00    -0.390 OA
ATOM     31  H   UNL     1       8.303   3.865   8.776  0.00  0.00    +0.210 HD
ENDBRANCH  11   1
BRANCH   5  13
ATOM     13  C   UNL     1       9.806   5.739   4.862  0.00  0.00    +0.120 C 
BRANCH  13  15
ATOM     15  C   UNL     1      10.884   5.500   3.839  0.00  0.00    -0.033 A 
ATOM     16  C   UNL     1      11.835   6.488   3.583  0.00  0.00    +0.007 A 
ATOM     17  C   UNL     1      10.932   4.291   3.147  0.00  0.00    +0.007 A 
ATOM     19  C   UNL     1      12.832   6.267   2.634  0.00  0.00    +0.023 A 
ATOM     20  C   UNL     1      11.930   4.069   2.197  0.00  0.00    +0.023 A 
ATOM     21  C   UNL     1      12.880   5.057   1.941  0.00  0.00    +0.033 A 
BRANCH  21   8
ATOM      4  O   UNL     1      15.213   3.154   1.967  0.00  0.00    -0.276 OA
ATOM      8  N   UNL     1      13.878   4.835   0.992  0.00  0.00    -0.286 N 
ATOM     28  C   UNL     1      14.948   3.933   1.056  0.00  0.00    +0.214 C 
ATOM     29  C   UNL     1      15.810   3.998  -0.180  0.00  0.00    +0.109 C 
ATOM     32  H   UNL     1      13.812   5.406   0.151  0.00  0.00    +0.155 HD
ENDBRANCH  21   8
ENDBRANCH  13  15
ENDBRANCH   5  13
TORSDOF 7
ENDMDL
MODEL 4
REMARK VINA RESULT:      -6.5      2.777      7.468
REMARK  Name = 26744176
REMARK  9 active torsions:
REMARK  status: ('A' for Active; 'I' for Inactive)
REMARK    1  A    between atoms: O_1  and  C_11
REMARK    2  A    between atoms: O_3  and  C_27
REMARK    3  A    between atoms: O_3  and  C_30
REMARK    4  A    between atoms: N_5  and  C_13
REMARK    5  A    between atoms: N_8  and  C_21
REMARK    6  A    between atoms: C_9  and  C_14
REMARK    7  A    between atoms: C_13  and  C_15
REMARK    8  A    between atoms: C_18  and  C_22
REMARK    9  A    between atoms: C_28  and  C_29
REMARK                            x       y       z     vdW  Elec       q    Type
REMARK                         _______ _______ _______ _____ _____    ______ ____
ROOT
ATOM      5  N   UNL     1      -3.282 -11.710  14.695  0.00  0.00    -0.285 NA
ATOM      9  C   UNL     1      -2.228 -11.699  13.661  0.00  0.00    +0.149 C 
ATOM     10  C   UNL     1      -1.959 -13.184  13.357  0.00  0.00    +0.061 C 
ATOM     11  C   UNL     1      -2.875 -13.952  14.301  0.00  0.00    +0.130 C 
ATOM     12  C   UNL     1      -3.133 -12.968  15.425  0.00  0.00    +0.116 C 
ENDROOT
BRANCH   9  14
ATOM      2  O   UNL     1      -1.670 -10.118  11.882  0.00  0.00    -0.336 OA
ATOM      6  N   UNL     1      -3.775 -10.879  11.802  0.00  0.00    -0.190 NA
ATOM      7  N   UNL     1      -2.265  -9.501  10.775  0.00  0.00    -0.056 NA
ATOM     14  C   UNL     1      -2.627 -10.913  12.430  0.00  0.00    +0.245 A 
ATOM     18  C   UNL     1      -3.504 -10.001  10.793  0.00  0.00    +0.202 A 
BRANCH  18  22
ATOM     22  C   UNL     1      -4.495  -9.643   9.820  0.00  0.00    +0.023 A 
ATOM     23  C   UNL     1      -4.494 -10.254   8.566  0.00  0.00    +0.015 A 
ATOM     24  C   UNL     1      -5.459  -8.684  10.127  0.00  0.00    +0.015 A 
ATOM     25  C   UNL     1      -5.458  -9.903   7.619  0.00  0.00    +0.046 A 
ATOM     26  C   UNL     1      -6.423  -8.333   9.180  0.00  0.00    +0.046 A 
ATOM     27  C   UNL     1      -6.421  -8.944   7.926  0.00  0.00    +0.120 A 
BRANCH  27   3
ATOM      3  O   UNL     1      -7.361  -8.602   7.003  0.00  0.00    -0.495 OA
ATOM     30  C   UNL     1      -7.023  -8.799   5.630  0.00  0.00    +0.277 C 
ENDBRANCH  27   3
ENDBRANCH  18  22
ENDBRANCH   9  14
BRANCH  11   1
ATOM      1  O   UNL     1      -2.243 -15.129  14.767  0.00  0.00    -0.390 OA
ATOM     31  H   UNL     1      -1.602 -15.405  14.090  0.00  0.00    +0.210 HD
ENDBRANCH  11   1
BRANCH   5  13
ATOM     13  C   UNL     1      -3.233 -10.554  15.579  0.00  0.00    +0.120 C 
BRANCH  13  15
ATOM     15  C   UNL     1      -4.467 -10.448  16.434  0.00  0.00    -0.033 A 
ATOM     16  C   UNL     1      -5.636  -9.896  15.909  0.00  0.00    +0.007 A 
ATOM     17  C   UNL     1      -4.442 -10.901  17.753  0.00  0.00    +0.007 A 
ATOM     19  C   UNL     1      -6.778  -9.796  16.703  0.00  0.00    +0.023 A 
ATOM     20  C   UNL     1      -5.585 -10.802  18.547  0.00  0.00    +0.023 A 
ATOM     21  C   UNL     1      -6.753 -10.249  18.022  0.00  0.00    +0.033 A 
BRANCH  21   8
ATOM      4  O   UNL     1      -9.004 -12.201  18.459  0.00  0.00    -0.276 OA
ATOM      8  N   UNL     1      -7.896 -10.151  18.816  0.00  0.00    -0.286 N 
ATOM     28  C   UNL     1      -8.919 -11.094  18.982  0.00  0.00    +0.214 C 
ATOM     29  C   UNL     1      -9.983 -10.604  19.932  0.00  0.00    +0.109 C 
ATOM     32  H   UNL     1      -7.989  -9.280  19.335  0.00  0.00    +0.155 HD
ENDBRANCH  21   8
ENDBRANCH  13  15
ENDBRANCH   5  13
TORSDOF 7
ENDMDL
MODEL 5
REMARK VINA RESULT:      -6.5     21.383     26.027
REMARK  Name = 26744176
REMARK  9 active torsions:
REMARK  status: ('A' for Active; 'I' for Inactive)
REMARK    1  A    between atoms: O_1  and  C_11
REMARK    2  A    between atoms: O_3  and  C_27
REMARK    3  A    between atoms: O_3  and  C_30
REMARK    4  A    between atoms: N_5  and  C_13
REMARK    5  A    between atoms: N_8  and  C_21
REMARK    6  A    between atoms: C_9  and  C_14
REMARK    7  A    between atoms: C_13  and  C_15
REMARK    8  A    between atoms: C_18  and  C_22
REMARK    9  A    between atoms: C_28  and  C_29
REMARK                            x       y       z     vdW  Elec       q    Type
REMARK                         _______ _______ _______ _____ _____    ______ ____
ROOT
ATOM      5  N   UNL     1     -13.594   7.200  33.739  0.00  0.00    -0.285 NA
ATOM      9  C   UNL     1     -13.538   8.675  33.716  0.00  0.00    +0.149 C 
ATOM     10  C   UNL     1     -12.786   9.061  35.003  0.00  0.00    +0.061 C 
ATOM     11  C   UNL     1     -12.501   7.740  35.704  0.00  0.00    +0.130 C 
ATOM     12  C   UNL     1     -13.558   6.806  35.147  0.00  0.00    +0.116 C 
ENDROOT
BRANCH   9  14
ATOM      2  O   UNL     1     -11.635   9.751  32.621  0.00  0.00    -0.336 OA
ATOM      6  N   UNL     1     -13.320   9.243  31.236  0.00  0.00    -0.190 NA
ATOM      7  N   UNL     1     -11.234  10.174  31.348  0.00  0.00    -0.056 NA
ATOM     14  C   UNL     1     -12.874   9.214  32.466  0.00  0.00    +0.245 A 
ATOM     18  C   UNL     1     -12.279   9.840  30.586  0.00  0.00    +0.202 A 
BRANCH  18  22
ATOM     22  C   UNL     1     -12.316  10.089  29.174  0.00  0.00    +0.023 A 
ATOM     23  C   UNL     1     -11.160   9.934  28.408  0.00  0.00    +0.015 A 
ATOM     24  C   UNL     1     -13.507  10.487  28.567  0.00  0.00    +0.015 A 
ATOM     25  C   UNL     1     -11.197  10.179  27.034  0.00  0.00    +0.046 A 
ATOM     26  C   UNL     1     -13.543  10.732  27.194  0.00  0.00    +0.046 A 
ATOM     27  C   UNL     1     -12.387  10.577  26.428  0.00  0.00    +0.120 A 
BRANCH  27   3
ATOM      3  O   UNL     1     -12.423  10.815  25.089  0.00  0.00    -0.495 OA
ATOM     30  C   UNL     1     -12.270  12.170  24.667  0.00  0.00    +0.277 C 
ENDBRANCH  27   3
ENDBRANCH  18  22
ENDBRANCH   9  14
BRANCH  11   1
ATOM      1  O   UNL     1     -12.613   7.881  37.108  0.00  0.00    -0.390 OA
ATOM     31  H   UNL     1     -13.063   7.089  37.447  0.00  0.00    +0.210 HD
ENDBRANCH  11   1
BRANCH   5  13
ATOM     13  C   UNL     1     -14.755   6.658  33.047  0.00  0.00    +0.120 C 
BRANCH  13  15
ATOM     15  C   UNL     1     -14.426   5.388  32.309  0.00  0.00    -0.033 A 
ATOM     16  C   UNL     1     -15.298   4.901  31.335  0.00  0.00    +0.007 A 
ATOM     17  C   UNL     1     -13.250   4.697  32.600  0.00  0.00    +0.007 A 
ATOM     19  C   UNL     1     -14.994   3.723  30.653  0.00  0.00    +0.023 A 
ATOM     20  C   UNL     1     -12.945   3.519  31.917  0.00  0.00    +0.023 A 
ATOM     21  C   UNL     1     -13.818   3.032  30.944  0.00  0.00    +0.033 A 
BRANCH  21   8
ATOM      4  O   UNL     1     -14.806   0.218  31.360  0.00  0.00    -0.276 OA
ATOM      8  N   UNL     1     -13.513   1.854  30.260  0.00  0.00    -0.286 N 
ATOM     28  C   UNL     1     -14.003   0.564  30.499  0.00  0.00    +0.214 C 
ATOM     29  C   UNL     1     -13.425  -0.442  29.535  0.00  0.00    +0.109 C 
ATOM     32  H   UNL     1     -12.850   1.956  29.495  0.00  0.00    +0.155 HD
ENDBRANCH  21   8
ENDBRANCH  13  15
ENDBRANCH   5  13
TORSDOF 7
ENDMDL
MODEL 6
REMARK VINA RESULT:      -6.5      4.240      8.068
REMARK  Name = 26744176
REMARK  9 active torsions:
REMARK  status: ('A' for Active; 'I' for Inactive)
REMARK    1  A    between atoms: O_1  and  C_11
REMARK    2  A    between atoms: O_3  and  C_27
REMARK    3  A    between atoms: O_3  and  C_30
REMARK    4  A    between atoms: N_5  and  C_13
REMARK    5  A    between atoms: N_8  and  C_21
REMARK    6  A    between atoms: C_9  and  C_14
REMARK    7  A    between atoms: C_13  and  C_15
REMARK    8  A    between atoms: C_18  and  C_22
REMARK    9  A    between atoms: C_28  and  C_29
REMARK                            x       y       z     vdW  Elec       q    Type
REMARK                         _______ _______ _______ _____ _____    ______ ____
ROOT
ATOM      5  N   UNL     1     -11.334 -10.355  17.324  0.00  0.00    -0.285 NA
ATOM      9  C   UNL     1     -10.801 -11.336  18.291  0.00  0.00    +0.149 C 
ATOM     10  C   UNL     1     -11.167 -12.710  17.701  0.00  0.00    +0.061 C 
ATOM     11  C   UNL     1     -11.942 -12.398  16.427  0.00  0.00    +0.130 C 
ATOM     12  C   UNL     1     -12.471 -10.997  16.667  0.00  0.00    +0.116 C 
ENDROOT
BRANCH   9  14
ATOM      2  O   UNL     1      -8.920 -10.978  19.810  0.00  0.00    -0.336 OA
ATOM      6  N   UNL     1      -8.330 -11.198  17.661  0.00  0.00    -0.190 NA
ATOM      7  N   UNL     1      -7.525 -10.859  19.775  0.00  0.00    -0.056 NA
ATOM     14  C   UNL     1      -9.314 -11.176  18.524  0.00  0.00    +0.245 A 
ATOM     18  C   UNL     1      -7.253 -11.001  18.475  0.00  0.00    +0.202 A 
BRANCH  18  22
ATOM     22  C   UNL     1      -5.917 -10.949  17.956  0.00  0.00    +0.023 A 
ATOM     23  C   UNL     1      -5.654 -10.263  16.770  0.00  0.00    +0.015 A 
ATOM     24  C   UNL     1      -4.880 -11.586  18.637  0.00  0.00    +0.015 A 
ATOM     25  C   UNL     1      -4.354 -10.216  16.265  0.00  0.00    +0.046 A 
ATOM     26  C   UNL     1      -3.580 -11.539  18.132  0.00  0.00    +0.046 A 
ATOM     27  C   UNL     1      -3.318 -10.853  16.945  0.00  0.00    +0.120 A 
BRANCH  27   3
ATOM      3  O   UNL     1      -2.050 -10.807  16.454  0.00  0.00    -0.495 OA
ATOM     30  C   UNL     1      -1.842 -11.340  15.146  0.00  0.00    +0.277 C 
ENDBRANCH  27   3
ENDBRANCH  18  22
ENDBRANCH   9  14
BRANCH  11   1
ATOM      1  O   UNL     1     -12.989 -13.330  16.236  0.00  0.00    -0.390 OA
ATOM     31  H   UNL     1     -12.598 -14.219  16.257  0.00  0.00    +0.210 HD
ENDBRANCH  11   1
BRANCH   5  13
ATOM     13  C   UNL     1     -11.699  -9.085  17.934  0.00  0.00    +0.120 C 
BRANCH  13  15
ATOM     15  C   UNL     1     -11.759  -7.972  16.923  0.00  0.00    -0.033 A 
ATOM     16  C   UNL     1     -12.983  -7.597  16.368  0.00  0.00    +0.007 A 
ATOM     17  C   UNL     1     -10.590  -7.315  16.538  0.00  0.00    +0.007 A 
ATOM     19  C   UNL     1     -13.038  -6.568  15.429  0.00  0.00    +0.023 A 
ATOM     20  C   UNL     1     -10.644  -6.284  15.600  0.00  0.00    +0.023 A 
ATOM     21  C   UNL     1     -11.868  -5.911  15.045  0.00  0.00    +0.033 A 
BRANCH  21   8
ATOM      4  O   UNL     1     -12.518  -5.976  12.105  0.00  0.00    -0.276 OA
ATOM      8  N   UNL     1     -11.923  -4.880  14.107  0.00  0.00    -0.286 N 
ATOM     28  C   UNL     1     -12.231  -4.967  12.742  0.00  0.00    +0.214 C 
ATOM     29  C   UNL     1     -12.182  -3.617  12.071  0.00  0.00    +0.109 C 
ATOM     32  H   UNL     1     -11.711  -3.953  14.468  0.00  0.00    +0.155 HD
ENDBRANCH  21   8
ENDBRANCH  13  15
ENDBRANCH   5  13
TORSDOF 7
ENDMDL
MODEL 7
REMARK VINA RESULT:      -6.4     22.597     25.318
REMARK  Name = 26744176
REMARK  9 active torsions:
REMARK  status: ('A' for Active; 'I' for Inactive)
REMARK    1  A    between atoms: O_1  and  C_11
REMARK    2  A    between atoms: O_3  and  C_27
REMARK    3  A    between atoms: O_3  and  C_30
REMARK    4  A    between atoms: N_5  and  C_13
REMARK    5  A    between atoms: N_8  and  C_21
REMARK    6  A    between atoms: C_9  and  C_14
REMARK    7  A    between atoms: C_13  and  C_15
REMARK    8  A    between atoms: C_18  and  C_22
REMARK    9  A    between atoms: C_28  and  C_29
REMARK                            x       y       z     vdW  Elec       q    Type
REMARK                         _______ _______ _______ _____ _____    ______ ____
ROOT
ATOM      5  N   UNL     1       9.476   7.063   7.348  0.00  0.00    -0.285 NA
ATOM      9  C   UNL     1      10.908   6.726   7.219  0.00  0.00    +0.149 C 
ATOM     10  C   UNL     1      11.092   5.458   8.074  0.00  0.00    +0.061 C 
ATOM     11  C   UNL     1       9.720   5.187   8.678  0.00  0.00    +0.130 C 
ATOM     12  C   UNL     1       9.043   6.544   8.644  0.00  0.00    +0.116 C 
ENDROOT
BRANCH   9  14
ATOM      2  O   UNL     1      12.396   7.261   5.356  0.00  0.00    -0.336 OA
ATOM      6  N   UNL     1      10.823   5.745   4.863  0.00  0.00    -0.190 NA
ATOM      7  N   UNL     1      12.597   6.914   4.014  0.00  0.00    -0.056 NA
ATOM     14  C   UNL     1      11.333   6.528   5.780  0.00  0.00    +0.245 A 
ATOM     18  C   UNL     1      11.632   6.016   3.798  0.00  0.00    +0.202 A 
BRANCH  18  22
ATOM     22  C   UNL     1      11.448   5.371   2.530  0.00  0.00    +0.023 A 
ATOM     23  C   UNL     1      12.372   4.423   2.088  0.00  0.00    +0.015 A 
ATOM     24  C   UNL     1      10.346   5.691   1.738  0.00  0.00    +0.015 A 
ATOM     25  C   UNL     1      12.194   3.798   0.854  0.00  0.00    +0.046 A 
ATOM     26  C   UNL     1      10.168   5.066   0.503  0.00  0.00    +0.046 A 
ATOM     27  C   UNL     1      11.092   4.119   0.062  0.00  0.00    +0.120 A 
BRANCH  27   3
ATOM      3  O   UNL     1      10.918   3.510  -1.142  0.00  0.00    -0.495 OA
ATOM     30  C   UNL     1      12.065   3.395  -1.983  0.00  0.00    +0.277 C 
ENDBRANCH  27   3
ENDBRANCH  18  22
ENDBRANCH   9  14
BRANCH  11   1
ATOM      1  O   UNL     1       9.842   4.694   9.999  0.00  0.00    -0.390 OA
ATOM     31  H   UNL     1       9.278   5.243  10.569  0.00  0.00    +0.210 HD
ENDBRANCH  11   1
BRANCH   5  13
ATOM     13  C   UNL     1       9.206   8.488   7.210  0.00  0.00    +0.120 C 
BRANCH  13  15
ATOM     15  C   UNL     1       8.563   8.812   5.889  0.00  0.00    -0.033 A 
ATOM     16  C   UNL     1       8.328  10.140   5.534  0.00  0.00    +0.007 A 
ATOM     17  C   UNL     1       8.201   7.784   5.018  0.00  0.00    +0.007 A 
ATOM     19  C   UNL     1       7.730  10.440   4.310  0.00  0.00    +0.023 A 
ATOM     20  C   UNL     1       7.604   8.084   3.793  0.00  0.00    +0.023 A 
ATOM     21  C   UNL     1       7.368   9.412   3.440  0.00  0.00    +0.033 A 
BRANCH  21   8
ATOM      4  O   UNL     1       4.487   9.953   2.750  0.00  0.00    -0.276 OA
ATOM      8  N   UNL     1       6.771   9.712   2.215  0.00  0.00    -0.286 N 
ATOM     28  C   UNL     1       5.417   9.954   1.948  0.00  0.00    +0.214 C 
ATOM     29  C   UNL     1       5.177  10.244   0.488  0.00  0.00    +0.109 C 
ATOM     32  H   UNL     1       7.408   9.757   1.422  0.00  0.00    +0.155 HD
ENDBRANCH  21   8
ENDBRANCH  13  15
ENDBRANCH   5  13
TORSDOF 7
ENDMDL
MODEL 8
REMARK VINA RESULT:      -6.3      2.510      6.982
REMARK  Name = 26744176
REMARK  9 active torsions:
REMARK  status: ('A' for Active; 'I' for Inactive)
REMARK    1  A    between atoms: O_1  and  C_11
REMARK    2  A    between atoms: O_3  and  C_27
REMARK    3  A    between atoms: O_3  and  C_30
REMARK    4  A    between atoms: N_5  and  C_13
REMARK    5  A    between atoms: N_8  and  C_21
REMARK    6  A    between atoms: C_9  and  C_14
REMARK    7  A    between atoms: C_13  and  C_15
REMARK    8  A    between atoms: C_18  and  C_22
REMARK    9  A    between atoms: C_28  and  C_29
REMARK                            x       y       z     vdW  Elec       q    Type
REMARK                         _______ _______ _______ _____ _____    ______ ____
ROOT
ATOM      5  N   UNL     1      -7.469 -10.702  17.640  0.00  0.00    -0.285 NA
ATOM      9  C   UNL     1      -6.067 -11.053  17.946  0.00  0.00    +0.149 C 
ATOM     10  C   UNL     1      -6.132 -12.488  18.500  0.00  0.00    +0.061 C 
ATOM     11  C   UNL     1      -7.614 -12.841  18.509  0.00  0.00    +0.130 C 
ATOM     12  C   UNL     1      -8.301 -11.489  18.550  0.00  0.00    +0.116 C 
ENDROOT
BRANCH   9  14
ATOM      2  O   UNL     1      -3.827 -11.069  16.968  0.00  0.00    -0.336 OA
ATOM      6  N   UNL     1      -5.468 -10.707  15.487  0.00  0.00    -0.190 NA
ATOM      7  N   UNL     1      -3.203 -10.918  15.724  0.00  0.00    -0.056 NA
ATOM     14  C   UNL     1      -5.160 -10.931  16.740  0.00  0.00    +0.245 A 
ATOM     18  C   UNL     1      -4.235 -10.709  14.903  0.00  0.00    +0.202 A 
BRANCH  18  22
ATOM     22  C   UNL     1      -4.070 -10.498  13.493  0.00  0.00    +0.023 A 
ATOM     23  C   UNL     1      -5.170 -10.158  12.705  0.00  0.00    +0.015 A 
ATOM     24  C   UNL     1      -2.810 -10.633  12.912  0.00  0.00    +0.015 A 
ATOM     25  C   UNL     1      -5.008  -9.955  11.334  0.00  0.00    +0.046 A 
ATOM     26  C   UNL     1      -2.649 -10.430  11.540  0.00  0.00    +0.046 A 
ATOM     27  C   UNL     1      -3.749 -10.091  10.752  0.00  0.00    +0.120 A 
BRANCH  27   3
ATOM      3  O   UNL     1      -3.591  -9.893   9.415  0.00  0.00    -0.495 OA
ATOM     30  C   UNL     1      -4.687  -9.310   8.712  0.00  0.00    +0.277 C 
ENDBRANCH  27   3
ENDBRANCH  18  22
ENDBRANCH   9  14
BRANCH  11   1
ATOM      1  O   UNL     1      -7.935 -13.627  19.641  0.00  0.00    -0.390 OA
ATOM     31  H   UNL     1      -7.414 -14.445  19.586  0.00  0.00    +0.210 HD
ENDBRANCH  11   1
BRANCH   5  13
ATOM     13  C   UNL     1      -7.741  -9.276  17.744  0.00  0.00    +0.120 C 
BRANCH  13  15
ATOM     15  C   UNL     1      -8.900  -8.860  16.877  0.00  0.00    -0.033 A 
ATOM     16  C   UNL     1      -8.954  -9.263  15.543  0.00  0.00    +0.007 A 
ATOM     17  C   UNL     1      -9.920  -8.072  17.409  0.00  0.00    +0.007 A 
ATOM     19  C   UNL     1     -10.026  -8.876  14.740  0.00  0.00    +0.023 A 
ATOM     20  C   UNL     1     -10.994  -7.685  16.606  0.00  0.00    +0.023 A 
ATOM     21  C   UNL     1     -11.047  -8.087  15.272  0.00  0.00    +0.033 A 
BRANCH  21   8
ATOM      4  O   UNL     1     -11.759  -5.397  14.122  0.00  0.00    -0.276 OA
ATOM      8  N   UNL     1     -12.121  -7.701  14.469  0.00  0.00    -0.286 N 
ATOM     28  C   UNL     1     -12.407  -6.427  13.961  0.00  0.00    +0.214 C 
ATOM     29  C   UNL     1     -13.667  -6.425  13.132  0.00  0.00    +0.109 C 
ATOM     32  H   UNL     1     -12.772  -8.445  14.229  0.00  0.00    +0.155 HD
ENDBRANCH  21   8
ENDBRANCH  13  15
ENDBRANCH   5  13
TORSDOF 7
ENDMDL
MODEL 9
REMARK VINA RESULT:      -6.3     22.844     26.436
REMARK  Name = 26744176
REMARK  9 active torsions:
REMARK  status: ('A' for Active; 'I' for Inactive)
REMARK    1  A    between atoms: O_1  and  C_11
REMARK    2  A    between atoms: O_3  and  C_27
REMARK    3  A    between atoms: O_3  and  C_30
REMARK    4  A    between atoms: N_5  and  C_13
REMARK    5  A    between atoms: N_8  and  C_21
REMARK    6  A    between atoms: C_9  and  C_14
REMARK    7  A    between atoms: C_13  and  C_15
REMARK    8  A    between atoms: C_18  and  C_22
REMARK    9  A    between atoms: C_28  and  C_29
REMARK                            x       y       z     vdW  Elec       q    Type
REMARK                         _______ _______ _______ _____ _____    ______ ____
ROOT
ATOM      5  N   UNL     1      12.596   4.994   1.472  0.00  0.00    -0.285 NA
ATOM      9  C   UNL     1      12.942   5.104   0.040  0.00  0.00    +0.149 C 
ATOM     10  C   UNL     1      14.098   4.106  -0.163  0.00  0.00    +0.061 C 
ATOM     11  C   UNL     1      14.359   3.520   1.218  0.00  0.00    +0.130 C 
ATOM     12  C   UNL     1      13.815   4.575   2.161  0.00  0.00    +0.116 C 
ENDROOT
BRANCH   9  14
ATOM      2  O   UNL     1      11.506   3.520  -1.146  0.00  0.00    -0.336 OA
ATOM      6  N   UNL     1      10.936   5.667  -1.436  0.00  0.00    -0.190 NA
ATOM      7  N   UNL     1      10.389   3.516  -1.990  0.00  0.00    -0.056 NA
ATOM     14  C   UNL     1      11.762   4.826  -0.867  0.00  0.00    +0.245 A 
ATOM     18  C   UNL     1      10.111   4.817  -2.114  0.00  0.00    +0.202 A 
BRANCH  18  22
ATOM     22  C   UNL     1       9.017   5.300  -2.906  0.00  0.00    +0.023 A 
ATOM     23  C   UNL     1       8.646   4.625  -4.070  0.00  0.00    +0.015 A 
ATOM     24  C   UNL     1       8.325   6.445  -2.514  0.00  0.00    +0.015 A 
ATOM     25  C   UNL     1       7.584   5.098  -4.841  0.00  0.00    +0.046 A 
ATOM     26  C   UNL     1       7.263   6.918  -3.285  0.00  0.00    +0.046 A 
ATOM     27  C   UNL     1       6.892   6.243  -4.449  0.00  0.00    +0.120 A 
BRANCH  27   3
ATOM      3  O   UNL     1       5.856   6.705  -5.200  0.00  0.00    -0.495 OA
ATOM     30  C   UNL     1       4.678   5.901  -5.243  0.00  0.00    +0.277 C 
ENDBRANCH  27   3
ENDBRANCH  18  22
ENDBRANCH   9  14
BRANCH  11   1
ATOM      1  O   UNL     1      15.743   3.302   1.416  0.00  0.00    -0.390 OA
ATOM     31  H   UNL     1      16.220   4.025   0.976  0.00  0.00    +0.210 HD
ENDBRANCH  11   1
BRANCH   5  13
ATOM     13  C   UNL     1      12.047   6.224   2.026  0.00  0.00    +0.120 C 
BRANCH  13  15
ATOM     15  C   UNL     1      11.381   5.992   3.356  0.00  0.00    -0.033 A 
ATOM     16  C   UNL     1      10.721   4.790   3.606  0.00  0.00    +0.007 A 
ATOM     17  C   UNL     1      11.422   6.982   4.338  0.00  0.00    +0.007 A 
ATOM     19  C   UNL     1      10.102   4.576   4.837  0.00  0.00    +0.023 A 
ATOM     20  C   UNL     1      10.804   6.768   5.570  0.00  0.00    +0.023 A 
ATOM     21  C   UNL     1      10.143   5.566   5.819  0.00  0.00    +0.033 A 
BRANCH  21   8
ATOM      4  O   UNL     1      11.312   5.399   8.590  0.00  0.00    -0.276 OA
ATOM      8  N   UNL     1       9.525   5.352   7.052  0.00  0.00    -0.286 N 
ATOM     28  C   UNL     1      10.120   5.282   8.318  0.00  0.00    +0.214 C 
ATOM     29  C   UNL     1       9.101   5.037   9.403  0.00  0.00    +0.109 C 
ATOM     32  H   UNL     1       8.515   5.234   7.015  0.00  0.00    +0.155 HD
ENDBRANCH  21   8
ENDBRANCH  13  15
ENDBRANCH   5  13
TORSDOF 7
ENDMDL
MODEL 10
REMARK VINA RESULT:      -6.3      1.482      1.874
REMARK  Name = 26744176
REMARK  9 active torsions:
REMARK  status: ('A' for Active; 'I' for Inactive)
REMARK    1  A    between atoms: O_1  and  C_11
REMARK    2  A    between atoms: O_3  and  C_27
REMARK    3  A    between atoms: O_3  and  C_30
REMARK    4  A    between atoms: N_5  and  C_13
REMARK    5  A    between atoms: N_8  and  C_21
REMARK    6  A    between atoms: C_9  and  C_14
REMARK    7  A    between atoms: C_13  and  C_15
REMARK    8  A    between atoms: C_18  and  C_22
REMARK    9  A    between atoms: C_28  and  C_29
REMARK                            x       y       z     vdW  Elec       q    Type
REMARK                         _______ _______ _______ _____ _____    ______ ____
ROOT
ATOM      5  N   UNL     1      -4.439 -11.020  14.708  0.00  0.00    -0.285 NA
ATOM      9  C   UNL     1      -4.896 -11.362  16.070  0.00  0.00    +0.149 C 
ATOM     10  C   UNL     1      -3.684 -11.078  16.976  0.00  0.00    +0.061 C 
ATOM     11  C   UNL     1      -2.582 -10.624  16.028  0.00  0.00    +0.130 C 
ATOM     12  C   UNL     1      -2.991 -11.221  14.695  0.00  0.00    +0.116 C 
ENDROOT
BRANCH   9  14
ATOM      2  O   UNL     1      -6.317 -10.411  17.817  0.00  0.00    -0.336 OA
ATOM      6  N   UNL     1      -7.063 -10.053  15.736  0.00  0.00    -0.190 NA
ATOM      7  N   UNL     1      -7.503  -9.680  17.949  0.00  0.00    -0.056 NA
ATOM     14  C   UNL     1      -6.130 -10.588  16.482  0.00  0.00    +0.245 A 
ATOM     18  C   UNL     1      -7.883  -9.506  16.680  0.00  0.00    +0.202 A 
BRANCH  18  22
ATOM     22  C   UNL     1      -9.074  -8.793  16.321  0.00  0.00    +0.023 A 
ATOM     23  C   UNL     1      -9.678  -7.935  17.241  0.00  0.00    +0.015 A 
ATOM     24  C   UNL     1      -9.630  -8.958  15.053  0.00  0.00    +0.015 A 
ATOM     25  C   UNL     1     -10.839  -7.244  16.892  0.00  0.00    +0.046 A 
ATOM     26  C   UNL     1     -10.791  -8.267  14.703  0.00  0.00    +0.046 A 
ATOM     27  C   UNL     1     -11.394  -7.409  15.624  0.00  0.00    +0.120 A 
BRANCH  27   3
ATOM      3  O   UNL     1     -12.526  -6.735  15.283  0.00  0.00    -0.495 OA
ATOM     30  C   UNL     1     -12.371  -5.590  14.445  0.00  0.00    +0.277 C 
ENDBRANCH  27   3
ENDBRANCH  18  22
ENDBRANCH   9  14
BRANCH  11   1
ATOM      1  O   UNL     1      -1.322 -11.107  16.455  0.00  0.00    -0.390 OA
ATOM     31  H   UNL     1      -1.244 -10.920  17.405  0.00  0.00    +0.210 HD
ENDBRANCH  11   1
BRANCH   5  13
ATOM     13  C   UNL     1      -5.108 -11.787  13.667  0.00  0.00    +0.120 C 
BRANCH  13  15
ATOM     15  C   UNL     1      -5.551 -10.914  12.523  0.00  0.00    -0.033 A 
ATOM     16  C   UNL     1      -6.014 -11.492  11.341  0.00  0.00    +0.007 A 
ATOM     17  C   UNL     1      -5.497  -9.525  12.645  0.00  0.00    +0.007 A 
ATOM     19  C   UNL     1      -6.422 -10.683  10.282  0.00  0.00    +0.023 A 
ATOM     20  C   UNL     1      -5.906  -8.715  11.585  0.00  0.00    +0.023 A 
ATOM     21  C   UNL     1      -6.368  -9.295  10.403  0.00  0.00    +0.033 A 
BRANCH  21   8
ATOM      4  O   UNL     1      -9.112  -8.326   9.629  0.00  0.00    -0.276 OA
ATOM      8  N   UNL     1      -6.777  -8.485   9.343  0.00  0.00    -0.286 N 
ATOM     28  C   UNL     1      -8.076  -8.064   9.027  0.00  0.00    +0.214 C 
ATOM     29  C   UNL     1      -8.097  -7.192   7.796  0.00  0.00    +0.109 C 
ATOM     32  H   UNL     1      -6.031  -8.165   8.729  0.00  0.00    +0.155 HD
ENDBRANCH  21   8
ENDBRANCH  13  15
ENDBRANCH   5  13
TORSDOF 7
ENDMDL
