MODEL 1
REMARK VINA RESULT:      -7.1      0.000      0.000
REMARK  Name = 11911516
REMARK  9 active torsions:
REMARK  status: ('A' for Active; 'I' for Inactive)
REMARK    1  A    between atoms: N_3  and  C_10
REMARK    2  A    between atoms: N_4  and  C_11
REMARK    3  A    between atoms: N_4  and  C_23
REMARK    4  A    between atoms: N_7  and  C_29
REMARK    5  A    between atoms: N_7  and  C_30
REMARK    6  A    between atoms: N_7  and  C_31
REMARK    7  A    between atoms: C_14  and  C_15
REMARK    8  A    between atoms: C_15  and  C_19
REMARK    9  A    between atoms: C_23  and  C_24
REMARK                            x       y       z     vdW  Elec       q    Type
REMARK                         _______ _______ _______ _____ _____    ______ ____
ROOT
ATOM      1  O   UNL     1      -1.567  -9.909  12.861  0.00  0.00    -0.370 OA
ATOM      2  O   UNL     1      -2.721 -12.805  12.723  0.00  0.00    -0.370 OA
ATOM      8  C   UNL     1      -3.326 -11.500  12.642  0.00  0.00    +0.175 C 
ATOM      9  C   UNL     1      -2.575 -10.607  13.610  0.00  0.00    +0.168 C 
ATOM     10  C   UNL     1      -3.060 -10.895  11.278  0.00  0.00    +0.166 C 
ATOM     11  C   UNL     1      -1.932 -11.566  14.588  0.00  0.00    +0.111 C 
ATOM     12  C   UNL     1      -1.709 -10.212  11.466  0.00  0.00    +0.189 C 
ATOM     13  C   UNL     1      -1.681 -12.782  13.710  0.00  0.00    +0.181 C 
ENDROOT
BRANCH  10   3
ATOM      3  N   UNL     1      -4.145 -10.019  10.831  0.00  0.00    -0.244 N 
ATOM      5  N   UNL     1      -3.889  -8.771  10.411  0.00  0.00    -0.065 NA
ATOM      6  N   UNL     1      -5.051  -8.220  10.077  0.00  0.00    -0.134 NA
ATOM     18  C   UNL     1      -5.475 -10.304  10.777  0.00  0.00    +0.134 A 
ATOM     19  C   UNL     1      -6.006  -9.152  10.301  0.00  0.00    +0.083 A 
BRANCH  19  15
ATOM     15  C   UNL     1      -7.443  -8.842  10.021  0.00  0.00    +0.062 C 
BRANCH  15  14
ATOM     14  C   UNL     1      -7.615  -7.977   8.773  0.00  0.00    -0.005 C 
ATOM     16  C   UNL     1      -8.938  -7.202   8.830  0.00  0.00    +0.004 C 
ATOM     17  C   UNL     1      -7.540  -8.836   7.504  0.00  0.00    +0.004 C 
ATOM     20  C   UNL     1      -9.159  -6.369   7.569  0.00  0.00    +0.000 C 
ATOM     21  C   UNL     1      -7.762  -8.002   6.244  0.00  0.00    +0.000 C 
ATOM     22  C   UNL     1      -9.074  -7.225   6.308  0.00  0.00    +0.000 C 
ENDBRANCH  15  14
ENDBRANCH  19  15
ENDBRANCH  10   3
BRANCH  11   4
ATOM      4  N   UNL     1      -2.867 -11.915  15.655  0.00  0.00    -0.305 NA
ATOM     32  H   UNL     1      -2.521 -12.740  16.146  0.00  0.00    +0.123 HD
BRANCH   4  23
ATOM     23  C   UNL     1      -3.009 -10.814  16.596  0.00  0.00    +0.116 C 
BRANCH  23  24
ATOM     24  C   UNL     1      -4.451 -10.549  16.937  0.00  0.00    -0.033 A 
ATOM     25  C   UNL     1      -5.263  -9.902  16.017  0.00  0.00    +0.007 A 
ATOM     26  C   UNL     1      -4.947 -10.956  18.167  0.00  0.00    +0.007 A 
ATOM     27  C   UNL     1      -6.599  -9.656  16.333  0.00  0.00    +0.023 A 
ATOM     28  C   UNL     1      -6.283 -10.709  18.484  0.00  0.00    +0.023 A 
ATOM     29  C   UNL     1      -7.109 -10.060  17.566  0.00  0.00    +0.029 A 
BRANCH  29   7
ATOM      7  N   UNL     1      -8.461  -9.812  17.887  0.00  0.00    -0.336 N 
ATOM     30  C   UNL     1      -9.154 -10.654  18.842  0.00  0.00    +0.129 C 
ATOM     31  C   UNL     1      -9.168  -8.704  17.278  0.00  0.00    +0.129 C 
ENDBRANCH  29   7
ENDBRANCH  23  24
ENDBRANCH   4  23
ENDBRANCH  11   4
TORSDOF 7
ENDMDL
MODEL 2
REMARK VINA RESULT:      -7.0     27.844     30.053
REMARK  Name = 11911516
REMARK  9 active torsions:
REMARK  status: ('A' for Active; 'I' for Inactive)
REMARK    1  A    between atoms: N_3  and  C_10
REMARK    2  A    between atoms: N_4  and  C_11
REMARK    3  A    between atoms: N_4  and  C_23
REMARK    4  A    between atoms: N_7  and  C_29
REMARK    5  A    between atoms: N_7  and  C_30
REMARK    6  A    between atoms: N_7  and  C_31
REMARK    7  A    between atoms: C_14  and  C_15
REMARK    8  A    between atoms: C_15  and  C_19
REMARK    9  A    between atoms: C_23  and  C_24
REMARK                            x       y       z     vdW  Elec       q    Type
REMARK                         _______ _______ _______ _____ _____    ______ ____
ROOT
ATOM      1  O   UNL     1      12.620   7.421  17.221  0.00  0.00    -0.370 OA
ATOM      2  O   UNL     1      12.717   9.217  19.771  0.00  0.00    -0.370 OA
ATOM      8  C   UNL     1      13.516   9.165  18.574  0.00  0.00    +0.175 C 
ATOM      9  C   UNL     1      13.641   7.703  18.192  0.00  0.00    +0.168 C 
ATOM     10  C   UNL     1      12.758   9.797  17.423  0.00  0.00    +0.166 C 
ATOM     11  C   UNL     1      13.365   6.953  19.476  0.00  0.00    +0.111 C 
ATOM     12  C   UNL     1      11.936   8.633  16.876  0.00  0.00    +0.189 C 
ATOM     13  C   UNL     1      12.384   7.881  20.174  0.00  0.00    +0.181 C 
ENDROOT
BRANCH  10   3
ATOM      3  N   UNL     1      13.646  10.444  16.454  0.00  0.00    -0.244 N 
ATOM      5  N   UNL     1      13.601  10.111  15.155  0.00  0.00    -0.065 NA
ATOM      6  N   UNL     1      14.510  10.848  14.526  0.00  0.00    -0.134 NA
ATOM     18  C   UNL     1      14.582  11.403  16.694  0.00  0.00    +0.134 A 
ATOM     19  C   UNL     1      15.100  11.626  15.463  0.00  0.00    +0.083 A 
BRANCH  19  15
ATOM     15  C   UNL     1      16.181  12.585  15.074  0.00  0.00    +0.062 C 
BRANCH  15  14
ATOM     14  C   UNL     1      17.563  12.114  15.528  0.00  0.00    -0.005 C 
ATOM     16  C   UNL     1      18.184  13.121  16.505  0.00  0.00    +0.004 C 
ATOM     17  C   UNL     1      18.481  11.887  14.321  0.00  0.00    +0.004 C 
ATOM     20  C   UNL     1      19.588  12.698  16.933  0.00  0.00    +0.000 C 
ATOM     21  C   UNL     1      19.884  11.466  14.751  0.00  0.00    +0.000 C 
ATOM     22  C   UNL     1      20.496  12.464  15.730  0.00  0.00    +0.000 C 
ENDBRANCH  15  14
ENDBRANCH  19  15
ENDBRANCH  10   3
BRANCH  11   4
ATOM      4  N   UNL     1      14.583   6.834  20.274  0.00  0.00    -0.305 NA
ATOM     32  H   UNL     1      14.448   6.115  20.986  0.00  0.00    +0.123 HD
BRANCH   4  23
ATOM     23  C   UNL     1      15.717   6.480  19.435  0.00  0.00    +0.116 C 
BRANCH  23  24
ATOM     24  C   UNL     1      17.029   6.838  20.082  0.00  0.00    -0.033 A 
ATOM     25  C   UNL     1      17.113   7.976  20.870  0.00  0.00    +0.007 A 
ATOM     26  C   UNL     1      18.134   6.024  19.880  0.00  0.00    +0.007 A 
ATOM     27  C   UNL     1      18.328   8.308  21.470  0.00  0.00    +0.023 A 
ATOM     28  C   UNL     1      19.350   6.356  20.479  0.00  0.00    +0.023 A 
ATOM     29  C   UNL     1      19.446   7.498  21.274  0.00  0.00    +0.029 A 
BRANCH  29   7
ATOM      7  N   UNL     1      20.675   7.833  21.880  0.00  0.00    -0.336 N 
ATOM     30  C   UNL     1      20.700   8.559  23.134  0.00  0.00    +0.129 C 
ATOM     31  C   UNL     1      21.928   7.443  21.264  0.00  0.00    +0.129 C 
ENDBRANCH  29   7
ENDBRANCH  23  24
ENDBRANCH   4  23
ENDBRANCH  11   4
TORSDOF 7
ENDMDL
MODEL 3
REMARK VINA RESULT:      -7.0     27.773     30.694
REMARK  Name = 11911516
REMARK  9 active torsions:
REMARK  status: ('A' for Active; 'I' for Inactive)
REMARK    1  A    between atoms: N_3  and  C_10
REMARK    2  A    between atoms: N_4  and  C_11
REMARK    3  A    between atoms: N_4  and  C_23
REMARK    4  A    between atoms: N_7  and  C_29
REMARK    5  A    between atoms: N_7  and  C_30
REMARK    6  A    between atoms: N_7  and  C_31
REMARK    7  A    between atoms: C_14  and  C_15
REMARK    8  A    between atoms: C_15  and  C_19
REMARK    9  A    between atoms: C_23  and  C_24
REMARK                            x       y       z     vdW  Elec       q    Type
REMARK                         _______ _______ _______ _____ _____    ______ ____
ROOT
ATOM      1  O   UNL     1      13.206   8.674  20.308  0.00  0.00    -0.370 OA
ATOM      2  O   UNL     1      12.830   7.376  17.495  0.00  0.00    -0.370 OA
ATOM      8  C   UNL     1      13.993   7.736  18.264  0.00  0.00    +0.175 C 
ATOM      9  C   UNL     1      13.659   9.025  18.990  0.00  0.00    +0.168 C 
ATOM     10  C   UNL     1      14.212   6.721  19.369  0.00  0.00    +0.166 C 
ATOM     11  C   UNL     1      12.525   9.625  18.188  0.00  0.00    +0.111 C 
ATOM     12  C   UNL     1      13.346   7.260  20.503  0.00  0.00    +0.189 C 
ATOM     13  C   UNL     1      11.823   8.383  17.664  0.00  0.00    +0.181 C 
ENDROOT
BRANCH  10   3
ATOM      3  N   UNL     1      15.629   6.544  19.696  0.00  0.00    -0.244 N 
ATOM      5  N   UNL     1      16.461   5.941  18.832  0.00  0.00    -0.065 NA
ATOM      6  N   UNL     1      17.665   5.919  19.393  0.00  0.00    -0.134 NA
ATOM     18  C   UNL     1      16.275   6.926  20.831  0.00  0.00    +0.134 A 
ATOM     19  C   UNL     1      17.546   6.516  20.601  0.00  0.00    +0.083 A 
BRANCH  19  15
ATOM     15  C   UNL     1      18.738   6.655  21.494  0.00  0.00    +0.062 C 
BRANCH  15  14
ATOM     14  C   UNL     1      20.053   6.590  20.718  0.00  0.00    -0.005 C 
ATOM     16  C   UNL     1      20.844   5.330  21.097  0.00  0.00    +0.004 C 
ATOM     17  C   UNL     1      20.889   7.853  20.962  0.00  0.00    +0.004 C 
ATOM     20  C   UNL     1      22.187   5.269  20.373  0.00  0.00    +0.000 C 
ATOM     21  C   UNL     1      22.232   7.789  20.239  0.00  0.00    +0.000 C 
ATOM     22  C   UNL     1      23.012   6.531  20.610  0.00  0.00    +0.000 C 
ENDBRANCH  15  14
ENDBRANCH  19  15
ENDBRANCH  10   3
BRANCH  11   4
ATOM      4  N   UNL     1      13.044  10.407  17.068  0.00  0.00    -0.305 NA
ATOM     32  H   UNL     1      12.265  10.843  16.575  0.00  0.00    +0.123 HD
BRANCH   4  23
ATOM     23  C   UNL     1      13.958  11.436  17.538  0.00  0.00    +0.116 C 
BRANCH  23  24
ATOM     24  C   UNL     1      15.108  11.642  16.588  0.00  0.00    -0.033 A 
ATOM     25  C   UNL     1      15.076  11.042  15.337  0.00  0.00    +0.007 A 
ATOM     26  C   UNL     1      16.182  12.429  16.977  0.00  0.00    +0.007 A 
ATOM     27  C   UNL     1      16.142  11.233  14.457  0.00  0.00    +0.023 A 
ATOM     28  C   UNL     1      17.248  12.619  16.097  0.00  0.00    +0.023 A 
ATOM     29  C   UNL     1      17.227  12.021  14.837  0.00  0.00    +0.029 A 
BRANCH  29   7
ATOM      7  N   UNL     1      18.305  12.214  13.947  0.00  0.00    -0.336 N 
ATOM     30  C   UNL     1      18.058  12.572  12.564  0.00  0.00    +0.129 C 
ATOM     31  C   UNL     1      19.671  12.072  14.407  0.00  0.00    +0.129 C 
ENDBRANCH  29   7
ENDBRANCH  23  24
ENDBRANCH   4  23
ENDBRANCH  11   4
TORSDOF 7
ENDMDL
MODEL 4
REMARK VINA RESULT:      -6.9      4.841      7.943
REMARK  Name = 11911516
REMARK  9 active torsions:
REMARK  status: ('A' for Active; 'I' for Inactive)
REMARK    1  A    between atoms: N_3  and  C_10
REMARK    2  A    between atoms: N_4  and  C_11
REMARK    3  A    between atoms: N_4  and  C_23
REMARK    4  A    between atoms: N_7  and  C_29
REMARK    5  A    between atoms: N_7  and  C_30
REMARK    6  A    between atoms: N_7  and  C_31
REMARK    7  A    between atoms: C_14  and  C_15
REMARK    8  A    between atoms: C_15  and  C_19
REMARK    9  A    between atoms: C_23  and  C_24
REMARK                            x       y       z     vdW  Elec       q    Type
REMARK                         _______ _______ _______ _____ _____    ______ ____
ROOT
ATOM      1  O   UNL     1     -11.682  -9.532  15.024  0.00  0.00    -0.370 OA
ATOM      2  O   UNL     1     -10.614  -8.014  17.533  0.00  0.00    -0.370 OA
ATOM      8  C   UNL     1     -10.901  -7.603  16.183  0.00  0.00    +0.175 C 
ATOM      9  C   UNL     1     -10.502  -8.752  15.279  0.00  0.00    +0.168 C 
ATOM     10  C   UNL     1     -12.399  -7.470  15.995  0.00  0.00    +0.166 C 
ATOM     11  C   UNL     1      -9.513  -9.551  16.099  0.00  0.00    +0.111 C 
ATOM     12  C   UNL     1     -12.821  -8.884  15.609  0.00  0.00    +0.189 C 
ATOM     13  C   UNL     1     -10.023  -9.321  17.512  0.00  0.00    +0.181 C 
ENDROOT
BRANCH  10   3
ATOM      3  N   UNL     1     -12.753  -6.427  15.028  0.00  0.00    -0.244 N 
ATOM      5  N   UNL     1     -14.022  -6.274  14.620  0.00  0.00    -0.065 NA
ATOM      6  N   UNL     1     -14.040  -5.268  13.752  0.00  0.00    -0.134 NA
ATOM     18  C   UNL     1     -11.923  -5.526  14.436  0.00  0.00    +0.134 A 
ATOM     19  C   UNL     1     -12.767  -4.821  13.645  0.00  0.00    +0.083 A 
BRANCH  19  15
ATOM     15  C   UNL     1     -12.444  -3.678  12.735  0.00  0.00    +0.062 C 
BRANCH  15  14
ATOM     14  C   UNL     1     -12.912  -3.929  11.302  0.00  0.00    -0.005 C 
ATOM     16  C   UNL     1     -11.801  -3.585  10.302  0.00  0.00    +0.004 C 
ATOM     17  C   UNL     1     -14.185  -3.129  11.000  0.00  0.00    +0.004 C 
ATOM     20  C   UNL     1     -12.262  -3.777   8.858  0.00  0.00    +0.000 C 
ATOM     21  C   UNL     1     -14.644  -3.322   9.556  0.00  0.00    +0.000 C 
ATOM     22  C   UNL     1     -13.533  -2.988   8.564  0.00  0.00    +0.000 C 
ENDBRANCH  15  14
ENDBRANCH  19  15
ENDBRANCH  10   3
BRANCH  11   4
ATOM      4  N   UNL     1      -8.168  -8.997  15.964  0.00  0.00    -0.305 NA
ATOM     32  H   UNL     1      -8.224  -7.978  15.970  0.00  0.00    +0.123 HD
BRANCH   4  23
ATOM     23  C   UNL     1      -7.315  -9.443  17.055  0.00  0.00    +0.116 C 
BRANCH  23  24
ATOM     24  C   UNL     1      -5.999  -9.978  16.557  0.00  0.00    -0.033 A 
ATOM     25  C   UNL     1      -5.040 -10.391  17.470  0.00  0.00    +0.007 A 
ATOM     26  C   UNL     1      -5.764 -10.050  15.191  0.00  0.00    +0.007 A 
ATOM     27  C   UNL     1      -3.820 -10.886  17.008  0.00  0.00    +0.023 A 
ATOM     28  C   UNL     1      -4.544 -10.544  14.729  0.00  0.00    +0.023 A 
ATOM     29  C   UNL     1      -3.573 -10.963  15.639  0.00  0.00    +0.029 A 
BRANCH  29   7
ATOM      7  N   UNL     1      -2.339 -11.464  15.171  0.00  0.00    -0.336 N 
ATOM     30  C   UNL     1      -1.098 -10.806  15.528  0.00  0.00    +0.129 C 
ATOM     31  C   UNL     1      -2.297 -12.650  14.340  0.00  0.00    +0.129 C 
ENDBRANCH  29   7
ENDBRANCH  23  24
ENDBRANCH   4  23
ENDBRANCH  11   4
TORSDOF 7
ENDMDL
MODEL 5
REMARK VINA RESULT:      -6.9     27.684     30.086
REMARK  Name = 11911516
REMARK  9 active torsions:
REMARK  status: ('A' for Active; 'I' for Inactive)
REMARK    1  A    between atoms: N_3  and  C_10
REMARK    2  A    between atoms: N_4  and  C_11
REMARK    3  A    between atoms: N_4  and  C_23
REMARK    4  A    between atoms: N_7  and  C_29
REMARK    5  A    between atoms: N_7  and  C_30
REMARK    6  A    between atoms: N_7  and  C_31
REMARK    7  A    between atoms: C_14  and  C_15
REMARK    8  A    between atoms: C_15  and  C_19
REMARK    9  A    between atoms: C_23  and  C_24
REMARK                            x       y       z     vdW  Elec       q    Type
REMARK                         _______ _______ _______ _____ _____    ______ ____
ROOT
ATOM      1  O   UNL     1      10.890   8.286  20.119  0.00  0.00    -0.370 OA
ATOM      2  O   UNL     1      13.377   7.428  21.798  0.00  0.00    -0.370 OA
ATOM      8  C   UNL     1      12.774   8.705  21.516  0.00  0.00    +0.175 C 
ATOM      9  C   UNL     1      12.280   8.652  20.084  0.00  0.00    +0.168 C 
ATOM     10  C   UNL     1      11.518   8.874  22.347  0.00  0.00    +0.166 C 
ATOM     11  C   UNL     1      13.096   7.549  19.444  0.00  0.00    +0.111 C 
ATOM     12  C   UNL     1      10.445   8.222  21.480  0.00  0.00    +0.189 C 
ATOM     13  C   UNL     1      13.327   6.612  20.619  0.00  0.00    +0.181 C 
ENDROOT
BRANCH  10   3
ATOM      3  N   UNL     1      11.266  10.272  22.706  0.00  0.00    -0.244 N 
ATOM      5  N   UNL     1      11.489  11.257  21.822  0.00  0.00    -0.065 NA
ATOM      6  N   UNL     1      11.181  12.402  22.421  0.00  0.00    -0.134 NA
ATOM     18  C   UNL     1      10.809  10.757  23.893  0.00  0.00    +0.134 A 
ATOM     19  C   UNL     1      10.771  12.093  23.673  0.00  0.00    +0.083 A 
BRANCH  19  15
ATOM     15  C   UNL     1      10.347  13.174  24.616  0.00  0.00    +0.062 C 
BRANCH  15  14
ATOM     14  C   UNL     1      11.540  13.925  25.209  0.00  0.00    -0.005 C 
ATOM     16  C   UNL     1      12.606  12.941  25.706  0.00  0.00    +0.004 C 
ATOM     17  C   UNL     1      11.086  14.856  26.340  0.00  0.00    +0.004 C 
ATOM     20  C   UNL     1      13.786  13.666  26.351  0.00  0.00    +0.000 C 
ATOM     21  C   UNL     1      12.266  15.578  26.984  0.00  0.00    +0.000 C 
ATOM     22  C   UNL     1      13.330  14.597  27.469  0.00  0.00    +0.000 C 
ENDBRANCH  15  14
ENDBRANCH  19  15
ENDBRANCH  10   3
BRANCH  11   4
ATOM      4  N   UNL     1      14.377   8.068  18.969  0.00  0.00    -0.305 NA
ATOM     32  H   UNL     1      14.791   8.653  19.695  0.00  0.00    +0.123 HD
BRANCH   4  23
ATOM     23  C   UNL     1      15.286   6.979  18.647  0.00  0.00    +0.116 C 
BRANCH  23  24
ATOM     24  C   UNL     1      16.498   6.977  19.540  0.00  0.00    -0.033 A 
ATOM     25  C   UNL     1      17.443   5.969  19.406  0.00  0.00    +0.007 A 
ATOM     26  C   UNL     1      16.653   7.981  20.484  0.00  0.00    +0.007 A 
ATOM     27  C   UNL     1      18.566   5.966  20.234  0.00  0.00    +0.023 A 
ATOM     28  C   UNL     1      17.775   7.978  21.312  0.00  0.00    +0.023 A 
ATOM     29  C   UNL     1      18.732   6.971  21.186  0.00  0.00    +0.029 A 
BRANCH  29   7
ATOM      7  N   UNL     1      19.867   6.969  22.024  0.00  0.00    -0.336 N 
ATOM     30  C   UNL     1      20.927   6.001  21.819  0.00  0.00    +0.129 C 
ATOM     31  C   UNL     1      19.996   7.943  23.089  0.00  0.00    +0.129 C 
ENDBRANCH  29   7
ENDBRANCH  23  24
ENDBRANCH   4  23
ENDBRANCH  11   4
TORSDOF 7
ENDMDL
MODEL 6
REMARK VINA RESULT:      -6.8      3.342      6.132
REMARK  Name = 11911516
REMARK  9 active torsions:
REMARK  status: ('A' for Active; 'I' for Inactive)
REMARK    1  A    between atoms: N_3  and  C_10
REMARK    2  A    between atoms: N_4  and  C_11
REMARK    3  A    between atoms: N_4  and  C_23
REMARK    4  A    between atoms: N_7  and  C_29
REMARK    5  A    between atoms: N_7  and  C_30
REMARK    6  A    between atoms: N_7  and  C_31
REMARK    7  A    between atoms: C_14  and  C_15
REMARK    8  A    between atoms: C_15  and  C_19
REMARK    9  A    between atoms: C_23  and  C_24
REMARK                            x       y       z     vdW  Elec       q    Type
REMARK                         _______ _______ _______ _____ _____    ______ ____
ROOT
ATOM      1  O   UNL     1      -4.832 -10.363  18.316  0.00  0.00    -0.370 OA
ATOM      2  O   UNL     1      -7.014 -11.946  16.743  0.00  0.00    -0.370 OA
ATOM      8  C   UNL     1      -5.950 -11.066  16.333  0.00  0.00    +0.175 C 
ATOM      9  C   UNL     1      -5.853  -9.975  17.381  0.00  0.00    +0.168 C 
ATOM     10  C   UNL     1      -4.623 -11.793  16.414  0.00  0.00    +0.166 C 
ATOM     11  C   UNL     1      -7.208  -9.978  18.055  0.00  0.00    +0.111 C 
ATOM     12  C   UNL     1      -4.197 -11.566  17.861  0.00  0.00    +0.189 C 
ATOM     13  C   UNL     1      -7.606 -11.441  17.948  0.00  0.00    +0.181 C 
ENDROOT
BRANCH  10   3
ATOM      3  N   UNL     1      -3.668 -11.333  15.403  0.00  0.00    -0.244 N 
ATOM      5  N   UNL     1      -2.529 -10.721  15.764  0.00  0.00    -0.065 NA
ATOM      6  N   UNL     1      -1.874 -10.416  14.650  0.00  0.00    -0.134 NA
ATOM     18  C   UNL     1      -3.773 -11.439  14.050  0.00  0.00    +0.134 A 
ATOM     19  C   UNL     1      -2.631 -10.852  13.617  0.00  0.00    +0.083 A 
BRANCH  19  15
ATOM     15  C   UNL     1      -2.167 -10.660  12.208  0.00  0.00    +0.062 C 
BRANCH  15  14
ATOM     14  C   UNL     1      -3.322 -10.348  11.256  0.00  0.00    -0.005 C 
ATOM     16  C   UNL     1      -3.695 -11.588  10.433  0.00  0.00    +0.004 C 
ATOM     17  C   UNL     1      -2.964  -9.172  10.339  0.00  0.00    +0.004 C 
ATOM     20  C   UNL     1      -4.813 -11.287   9.436  0.00  0.00    +0.000 C 
ATOM     21  C   UNL     1      -4.082  -8.874   9.342  0.00  0.00    +0.000 C 
ATOM     22  C   UNL     1      -4.458 -10.111   8.532  0.00  0.00    +0.000 C 
ENDBRANCH  15  14
ENDBRANCH  19  15
ENDBRANCH  10   3
BRANCH  11   4
ATOM      4  N   UNL     1      -8.155  -9.155  17.306  0.00  0.00    -0.305 NA
ATOM     32  H   UNL     1      -8.123  -9.420  16.321  0.00  0.00    +0.123 HD
BRANCH   4  23
ATOM     23  C   UNL     1      -9.507  -9.333  17.813  0.00  0.00    +0.116 C 
BRANCH  23  24
ATOM     24  C   UNL     1     -10.507  -8.504  17.051  0.00  0.00    -0.033 A 
ATOM     25  C   UNL     1     -11.837  -8.895  17.022  0.00  0.00    +0.007 A 
ATOM     26  C   UNL     1     -10.082  -7.361  16.389  0.00  0.00    +0.007 A 
ATOM     27  C   UNL     1     -12.764  -8.127  16.316  0.00  0.00    +0.023 A 
ATOM     28  C   UNL     1     -11.008  -6.593  15.682  0.00  0.00    +0.023 A 
ATOM     29  C   UNL     1     -12.349  -6.977  15.647  0.00  0.00    +0.029 A 
BRANCH  29   7
ATOM      7  N   UNL     1     -13.285  -6.199  14.932  0.00  0.00    -0.336 N 
ATOM     30  C   UNL     1     -14.705  -6.467  15.053  0.00  0.00    +0.129 C 
ATOM     31  C   UNL     1     -12.841  -5.114  14.081  0.00  0.00    +0.129 C 
ENDBRANCH  29   7
ENDBRANCH  23  24
ENDBRANCH   4  23
ENDBRANCH  11   4
TORSDOF 7
ENDMDL
MODEL 7
REMARK VINA RESULT:      -6.6     28.819     31.185
REMARK  Name = 11911516
REMARK  9 active torsions:
REMARK  status: ('A' for Active; 'I' for Inactive)
REMARK    1  A    between atoms: N_3  and  C_10
REMARK    2  A    between atoms: N_4  and  C_11
REMARK    3  A    between atoms: N_4  and  C_23
REMARK    4  A    between atoms: N_7  and  C_29
REMARK    5  A    between atoms: N_7  and  C_30
REMARK    6  A    between atoms: N_7  and  C_31
REMARK    7  A    between atoms: C_14  and  C_15
REMARK    8  A    between atoms: C_15  and  C_19
REMARK    9  A    between atoms: C_23  and  C_24
REMARK                            x       y       z     vdW  Elec       q    Type
REMARK                         _______ _______ _______ _____ _____    ______ ____
ROOT
ATOM      1  O   UNL     1      20.443   6.332  23.149  0.00  0.00    -0.370 OA
ATOM      2  O   UNL     1      22.000   7.295  20.622  0.00  0.00    -0.370 OA
ATOM      8  C   UNL     1      20.785   6.544  20.801  0.00  0.00    +0.175 C 
ATOM      9  C   UNL     1      20.993   5.652  22.009  0.00  0.00    +0.168 C 
ATOM     10  C   UNL     1      19.660   7.477  21.204  0.00  0.00    +0.166 C 
ATOM     11  C   UNL     1      22.496   5.539  22.140  0.00  0.00    +0.111 C 
ATOM     12  C   UNL     1      19.796   7.539  22.722  0.00  0.00    +0.189 C 
ATOM     13  C   UNL     1      22.956   6.888  21.612  0.00  0.00    +0.181 C 
ENDROOT
BRANCH  10   3
ATOM      3  N   UNL     1      18.355   7.028  20.712  0.00  0.00    -0.244 N 
ATOM      5  N   UNL     1      18.270   6.143  19.707  0.00  0.00    -0.065 NA
ATOM      6  N   UNL     1      16.979   5.931  19.476  0.00  0.00    -0.134 NA
ATOM     18  C   UNL     1      17.125   7.406  21.153  0.00  0.00    +0.134 A 
ATOM     19  C   UNL     1      16.292   6.698  20.353  0.00  0.00    +0.083 A 
BRANCH  19  15
ATOM     15  C   UNL     1      14.796   6.686  20.355  0.00  0.00    +0.062 C 
BRANCH  15  14
ATOM     14  C   UNL     1      14.212   7.288  19.076  0.00  0.00    -0.005 C 
ATOM     16  C   UNL     1      14.675   8.740  18.901  0.00  0.00    +0.004 C 
ATOM     17  C   UNL     1      12.680   7.201  19.088  0.00  0.00    +0.004 C 
ATOM     20  C   UNL     1      14.062   9.381  17.658  0.00  0.00    +0.000 C 
ATOM     21  C   UNL     1      12.070   7.843  17.844  0.00  0.00    +0.000 C 
ATOM     22  C   UNL     1      12.540   9.284  17.667  0.00  0.00    +0.000 C 
ENDBRANCH  15  14
ENDBRANCH  19  15
ENDBRANCH  10   3
BRANCH  11   4
ATOM      4  N   UNL     1      23.008   4.474  21.282  0.00  0.00    -0.305 NA
ATOM     32  H   UNL     1      24.017   4.393  21.414  0.00  0.00    +0.123 HD
BRANCH   4  23
ATOM     23  C   UNL     1      22.374   3.204  21.601  0.00  0.00    +0.116 C 
BRANCH  23  24
ATOM     24  C   UNL     1      23.371   2.181  22.075  0.00  0.00    -0.033 A 
ATOM     25  C   UNL     1      24.176   1.532  21.150  0.00  0.00    +0.007 A 
ATOM     26  C   UNL     1      23.470   1.901  23.430  0.00  0.00    +0.007 A 
ATOM     27  C   UNL     1      25.100   0.584  21.589  0.00  0.00    +0.023 A 
ATOM     28  C   UNL     1      24.394   0.952  23.870  0.00  0.00    +0.023 A 
ATOM     29  C   UNL     1      25.209   0.294  22.949  0.00  0.00    +0.029 A 
BRANCH  29   7
ATOM      7  N   UNL     1      26.144  -0.665  23.394  0.00  0.00    -0.336 N 
ATOM     30  C   UNL     1      26.675  -1.651  22.474  0.00  0.00    +0.129 C 
ATOM     31  C   UNL     1      26.594  -0.666  24.771  0.00  0.00    +0.129 C 
ENDBRANCH  29   7
ENDBRANCH  23  24
ENDBRANCH   4  23
ENDBRANCH  11   4
TORSDOF 7
ENDMDL
MODEL 8
REMARK VINA RESULT:      -6.6     20.730     25.196
REMARK  Name = 11911516
REMARK  9 active torsions:
REMARK  status: ('A' for Active; 'I' for Inactive)
REMARK    1  A    between atoms: N_3  and  C_10
REMARK    2  A    between atoms: N_4  and  C_11
REMARK    3  A    between atoms: N_4  and  C_23
REMARK    4  A    between atoms: N_7  and  C_29
REMARK    5  A    between atoms: N_7  and  C_30
REMARK    6  A    between atoms: N_7  and  C_31
REMARK    7  A    between atoms: C_14  and  C_15
REMARK    8  A    between atoms: C_15  and  C_19
REMARK    9  A    between atoms: C_23  and  C_24
REMARK                            x       y       z     vdW  Elec       q    Type
REMARK                         _______ _______ _______ _____ _____    ______ ____
ROOT
ATOM      1  O   UNL     1     -15.058   1.256  32.585  0.00  0.00    -0.370 OA
ATOM      2  O   UNL     1     -13.392   1.255  29.946  0.00  0.00    -0.370 OA
ATOM      8  C   UNL     1     -14.284   2.213  30.545  0.00  0.00    +0.175 C 
ATOM      9  C   UNL     1     -15.402   1.425  31.199  0.00  0.00    +0.168 C 
ATOM     10  C   UNL     1     -13.587   2.914  31.694  0.00  0.00    +0.166 C 
ATOM     11  C   UNL     1     -15.387   0.089  30.489  0.00  0.00    +0.111 C 
ATOM     12  C   UNL     1     -13.858   1.986  32.874  0.00  0.00    +0.189 C 
ATOM     13  C   UNL     1     -13.913  -0.066  30.149  0.00  0.00    +0.181 C 
ENDROOT
BRANCH  10   3
ATOM      3  N   UNL     1     -14.043   4.295  31.869  0.00  0.00    -0.244 N 
ATOM      5  N   UNL     1     -15.090   4.764  31.171  0.00  0.00    -0.065 NA
ATOM      6  N   UNL     1     -15.267   6.031  31.529  0.00  0.00    -0.134 NA
ATOM     18  C   UNL     1     -13.522   5.246  32.692  0.00  0.00    +0.134 A 
ATOM     19  C   UNL     1     -14.316   6.317  32.448  0.00  0.00    +0.083 A 
BRANCH  19  15
ATOM     15  C   UNL     1     -14.242   7.680  33.059  0.00  0.00    +0.062 C 
BRANCH  15  14
ATOM     14  C   UNL     1     -12.801   8.122  33.316  0.00  0.00    -0.005 C 
ATOM     16  C   UNL     1     -12.742   9.125  34.475  0.00  0.00    +0.004 C 
ATOM     17  C   UNL     1     -12.184   8.719  32.045  0.00  0.00    +0.004 C 
ATOM     20  C   UNL     1     -11.318   9.622  34.717  0.00  0.00    +0.000 C 
ATOM     21  C   UNL     1     -10.761   9.217  32.289  0.00  0.00    +0.000 C 
ATOM     22  C   UNL     1     -10.703  10.207  33.449  0.00  0.00    +0.000 C 
ENDBRANCH  15  14
ENDBRANCH  19  15
ENDBRANCH  10   3
BRANCH  11   4
ATOM      4  N   UNL     1     -16.172   0.153  29.258  0.00  0.00    -0.305 NA
ATOM     32  H   UNL     1     -16.876  -0.585  29.271  0.00  0.00    +0.123 HD
BRANCH   4  23
ATOM     23  C   UNL     1     -16.827   1.446  29.131  0.00  0.00    +0.116 C 
BRANCH  23  24
ATOM     24  C   UNL     1     -16.704   2.003  27.737  0.00  0.00    -0.033 A 
ATOM     25  C   UNL     1     -16.815   1.150  26.648  0.00  0.00    +0.007 A 
ATOM     26  C   UNL     1     -16.481   3.361  27.562  0.00  0.00    +0.007 A 
ATOM     27  C   UNL     1     -16.701   1.666  25.357  0.00  0.00    +0.023 A 
ATOM     28  C   UNL     1     -16.366   3.877  26.271  0.00  0.00    +0.023 A 
ATOM     29  C   UNL     1     -16.476   3.029  25.169  0.00  0.00    +0.029 A 
BRANCH  29   7
ATOM      7  N   UNL     1     -16.361   3.552  23.863  0.00  0.00    -0.336 N 
ATOM     30  C   UNL     1     -15.268   4.443  23.525  0.00  0.00    +0.129 C 
ATOM     31  C   UNL     1     -17.323   3.194  22.842  0.00  0.00    +0.129 C 
ENDBRANCH  29   7
ENDBRANCH  23  24
ENDBRANCH   4  23
ENDBRANCH  11   4
TORSDOF 7
ENDMDL
MODEL 9
REMARK VINA RESULT:      -6.5      4.394      7.816
REMARK  Name = 11911516
REMARK  9 active torsions:
REMARK  status: ('A' for Active; 'I' for Inactive)
REMARK    1  A    between atoms: N_3  and  C_10
REMARK    2  A    between atoms: N_4  and  C_11
REMARK    3  A    between atoms: N_4  and  C_23
REMARK    4  A    between atoms: N_7  and  C_29
REMARK    5  A    between atoms: N_7  and  C_30
REMARK    6  A    between atoms: N_7  and  C_31
REMARK    7  A    between atoms: C_14  and  C_15
REMARK    8  A    between atoms: C_15  and  C_19
REMARK    9  A    between atoms: C_23  and  C_24
REMARK                            x       y       z     vdW  Elec       q    Type
REMARK                         _______ _______ _______ _____ _____    ______ ____
ROOT
ATOM      1  O   UNL     1     -10.791 -11.205  16.865  0.00  0.00    -0.370 OA
ATOM      2  O   UNL     1     -10.689  -9.782  19.641  0.00  0.00    -0.370 OA
ATOM      8  C   UNL     1     -10.644  -9.298  18.285  0.00  0.00    +0.175 C 
ATOM      9  C   UNL     1      -9.851 -10.309  17.482  0.00  0.00    +0.168 C 
ATOM     10  C   UNL     1     -12.034  -9.336  17.681  0.00  0.00    +0.166 C 
ATOM     11  C   UNL     1      -9.025 -11.046  18.514  0.00  0.00    +0.111 C 
ATOM     12  C   UNL     1     -12.127 -10.754  17.128  0.00  0.00    +0.189 C 
ATOM     13  C   UNL     1      -9.935 -11.000  19.731  0.00  0.00    +0.181 C 
ENDROOT
BRANCH  10   3
ATOM      3  N   UNL     1     -12.250  -8.268  16.702  0.00  0.00    -0.244 N 
ATOM      5  N   UNL     1     -11.437  -7.200  16.663  0.00  0.00    -0.065 NA
ATOM      6  N   UNL     1     -11.874  -6.408  15.690  0.00  0.00    -0.134 NA
ATOM     18  C   UNL     1     -13.227  -8.190  15.758  0.00  0.00    +0.134 A 
ATOM     19  C   UNL     1     -12.956  -7.011  15.147  0.00  0.00    +0.083 A 
BRANCH  19  15
ATOM     15  C   UNL     1     -13.689  -6.367  14.013  0.00  0.00    +0.062 C 
BRANCH  15  14
ATOM     14  C   UNL     1     -12.751  -5.607  13.076  0.00  0.00    -0.005 C 
ATOM     16  C   UNL     1     -13.076  -4.107  13.085  0.00  0.00    +0.004 C 
ATOM     17  C   UNL     1     -12.831  -6.174  11.653  0.00  0.00    +0.004 C 
ATOM     20  C   UNL     1     -12.186  -3.332  12.115  0.00  0.00    +0.000 C 
ATOM     21  C   UNL     1     -11.942  -5.397  10.685  0.00  0.00    +0.000 C 
ATOM     22  C   UNL     1     -12.261  -3.904  10.703  0.00  0.00    +0.000 C 
ENDBRANCH  15  14
ENDBRANCH  19  15
ENDBRANCH  10   3
BRANCH  11   4
ATOM      4  N   UNL     1      -7.789 -10.321  18.796  0.00  0.00    -0.305 NA
ATOM     32  H   UNL     1      -7.054 -10.990  19.027  0.00  0.00    +0.123 HD
BRANCH   4  23
ATOM     23  C   UNL     1      -7.381  -9.530  17.645  0.00  0.00    +0.116 C 
BRANCH  23  24
ATOM     24  C   UNL     1      -6.102 -10.042  17.037  0.00  0.00    -0.033 A 
ATOM     25  C   UNL     1      -5.147 -10.633  17.852  0.00  0.00    +0.007 A 
ATOM     26  C   UNL     1      -5.896  -9.914  15.671  0.00  0.00    +0.007 A 
ATOM     27  C   UNL     1      -3.962 -11.107  17.289  0.00  0.00    +0.023 A 
ATOM     28  C   UNL     1      -4.711 -10.387  15.108  0.00  0.00    +0.023 A 
ATOM     29  C   UNL     1      -3.744 -10.984  15.917  0.00  0.00    +0.029 A 
BRANCH  29   7
ATOM      7  N   UNL     1      -2.545 -11.463  15.347  0.00  0.00    -0.336 N 
ATOM     30  C   UNL     1      -2.572 -12.564  14.404  0.00  0.00    +0.129 C 
ATOM     31  C   UNL     1      -1.276 -10.851  15.684  0.00  0.00    +0.129 C 
ENDBRANCH  29   7
ENDBRANCH  23  24
ENDBRANCH   4  23
ENDBRANCH  11   4
TORSDOF 7
ENDMDL
MODEL 10
REMARK VINA RESULT:      -6.5     28.041     31.120
REMARK  Name = 11911516
REMARK  9 active torsions:
REMARK  status: ('A' for Active; 'I' for Inactive)
REMARK    1  A    between atoms: N_3  and  C_10
REMARK    2  A    between atoms: N_4  and  C_11
REMARK    3  A    between atoms: N_4  and  C_23
REMARK    4  A    between atoms: N_7  and  C_29
REMARK    5  A    between atoms: N_7  and  C_30
REMARK    6  A    between atoms: N_7  and  C_31
REMARK    7  A    between atoms: C_14  and  C_15
REMARK    8  A    between atoms: C_15  and  C_19
REMARK    9  A    between atoms: C_23  and  C_24
REMARK                            x       y       z     vdW  Elec       q    Type
REMARK                         _______ _______ _______ _____ _____    ______ ____
ROOT
ATOM      1  O   UNL     1      24.487   2.003  22.939  0.00  0.00    -0.370 OA
ATOM      2  O   UNL     1      22.622   4.092  24.315  0.00  0.00    -0.370 OA
ATOM      8  C   UNL     1      22.474   2.693  24.009  0.00  0.00    +0.175 C 
ATOM      9  C   UNL     1      23.151   2.461  22.673  0.00  0.00    +0.168 C 
ATOM     10  C   UNL     1      23.276   1.865  24.993  0.00  0.00    +0.166 C 
ATOM     11  C   UNL     1      23.184   3.828  22.024  0.00  0.00    +0.111 C 
ATOM     12  C   UNL     1      24.659   1.817  24.350  0.00  0.00    +0.189 C 
ATOM     13  C   UNL     1      23.304   4.742  23.233  0.00  0.00    +0.181 C 
ENDROOT
BRANCH  10   3
ATOM      3  N   UNL     1      22.665   0.560  25.258  0.00  0.00    -0.244 N 
ATOM      5  N   UNL     1      23.424  -0.501  25.574  0.00  0.00    -0.065 NA
ATOM      6  N   UNL     1      22.607  -1.533  25.752  0.00  0.00    -0.134 NA
ATOM     18  C   UNL     1      21.343   0.239  25.226  0.00  0.00    +0.134 A 
ATOM     19  C   UNL     1      21.350  -1.079  25.539  0.00  0.00    +0.083 A 
BRANCH  19  15
ATOM     15  C   UNL     1      20.182  -2.007  25.664  0.00  0.00    +0.062 C 
BRANCH  15  14
ATOM     14  C   UNL     1      19.273  -1.961  24.436  0.00  0.00    -0.005 C 
ATOM     16  C   UNL     1      17.968  -1.221  24.756  0.00  0.00    +0.004 C 
ATOM     17  C   UNL     1      18.986  -3.377  23.922  0.00  0.00    +0.004 C 
ATOM     20  C   UNL     1      17.019  -1.207  23.559  0.00  0.00    +0.000 C 
ATOM     21  C   UNL     1      18.036  -3.362  22.727  0.00  0.00    +0.000 C 
ATOM     22  C   UNL     1      16.743  -2.616  23.045  0.00  0.00    +0.000 C 
ENDBRANCH  15  14
ENDBRANCH  19  15
ENDBRANCH  10   3
BRANCH  11   4
ATOM      4  N   UNL     1      21.930   4.096  21.326  0.00  0.00    -0.305 NA
ATOM     32  H   UNL     1      21.152   3.765  21.897  0.00  0.00    +0.123 HD
BRANCH   4  23
ATOM     23  C   UNL     1      21.774   5.520  21.074  0.00  0.00    +0.116 C 
BRANCH  23  24
ATOM     24  C   UNL     1      20.329   5.905  20.899  0.00  0.00    -0.033 A 
ATOM     25  C   UNL     1      19.803   6.943  21.654  0.00  0.00    +0.007 A 
ATOM     26  C   UNL     1      19.545   5.216  19.985  0.00  0.00    +0.007 A 
ATOM     27  C   UNL     1      18.464   7.300  21.492  0.00  0.00    +0.023 A 
ATOM     28  C   UNL     1      18.206   5.572  19.824  0.00  0.00    +0.023 A 
ATOM     29  C   UNL     1      17.666   6.615  20.578  0.00  0.00    +0.029 A 
BRANCH  29   7
ATOM      7  N   UNL     1      16.311   6.975  20.413  0.00  0.00    -0.336 N 
ATOM     30  C   UNL     1      15.651   6.781  19.137  0.00  0.00    +0.129 C 
ATOM     31  C   UNL     1      15.559   7.528  21.521  0.00  0.00    +0.129 C 
ENDBRANCH  29   7
ENDBRANCH  23  24
ENDBRANCH   4  23
ENDBRANCH  11   4
TORSDOF 7
ENDMDL
