REMARK  Name = 51137737
REMARK  3 active torsions:
REMARK  status: ('A' for Active; 'I' for Inactive)
REMARK    1  A    between atoms: C_7  and  C_11
REMARK    2  A    between atoms: C_12  and  C_13
REMARK    3  A    between atoms: C_14  and  C_15
REMARK                            x       y       z     vdW  Elec       q    Type
REMARK                         _______ _______ _______ _____ _____    ______ ____
ROOT
ATOM      2  O   UNL     1       2.572  -0.108   2.468  0.00  0.00    -0.268 OA
ATOM      3  N   UNL     1       1.784   1.283   0.783  0.00  0.00    -0.296 N 
ATOM      7  C   UNL     1       0.423   2.674  -0.586  0.00  0.00    +0.095 C 
ATOM      8  C   UNL     1       0.686   3.371   0.758  0.00  0.00    +0.033 C 
ATOM      9  C   UNL     1       1.538   1.619  -0.620  0.00  0.00    +0.121 C 
ATOM     10  C   UNL     1       1.146   2.243   1.671  0.00  0.00    +0.109 C 
ATOM     12  C   UNL     1       2.452   0.173   1.277  0.00  0.00    +0.265 C 
ENDROOT
BRANCH  12  13
ATOM      6  N   UNL     1       3.987  -0.213  -0.515  0.00  0.00    -0.250 NA
ATOM     13  C   UNL     1       3.052  -0.749   0.301  0.00  0.00    +0.126 A 
ATOM     16  C   UNL     1       2.652  -2.075   0.257  0.00  0.00    +0.033 A 
ATOM     19  C   UNL     1       3.251  -2.904  -0.686  0.00  0.00    +0.004 A 
ATOM     20  C   UNL     1       4.547  -1.049  -1.418  0.00  0.00    +0.111 A 
ATOM     21  C   UNL     1       4.217  -2.389  -1.542  0.00  0.00    +0.020 A 
ENDBRANCH  12  13
BRANCH   7  11
ATOM      1  O   UNL     1      -1.228   0.888  -0.248  0.00  0.00    -0.420 OA
ATOM      4  N   UNL     1      -2.081   2.760  -1.127  0.00  0.00    -0.112 NA
ATOM      5  N   UNL     1      -3.108   1.845  -0.991  0.00  0.00    -0.107 NA
ATOM     11  C   UNL     1      -1.003   2.159  -0.681  0.00  0.00    +0.222 A 
ATOM     14  C   UNL     1      -2.564   0.768  -0.474  0.00  0.00    +0.248 A 
BRANCH  14  15
ATOM     15  C   UNL     1      -3.150  -0.491  -0.118  0.00  0.00    +0.038 A 
ATOM     17  C   UNL     1      -4.515  -0.706  -0.313  0.00  0.00    +0.013 A 
ATOM     18  C   UNL     1      -2.356  -1.502   0.424  0.00  0.00    +0.013 A 
ATOM     22  C   UNL     1      -5.085  -1.931   0.033  0.00  0.00    +0.001 A 
ATOM     23  C   UNL     1      -2.926  -2.727   0.771  0.00  0.00    +0.001 A 
ATOM     24  C   UNL     1      -4.290  -2.941   0.575  0.00  0.00    +0.000 A 
ENDBRANCH  14  15
ENDBRANCH   7  11
TORSDOF 3
