MODEL 1
REMARK VINA RESULT:      -7.6      0.000      0.000
REMARK  Name = 11884065
REMARK  8 active torsions:
REMARK  status: ('A' for Active; 'I' for Inactive)
REMARK    1  A    between atoms: O_6  and  C_16
REMARK    2  A    between atoms: O_6  and  C_20
REMARK    3  A    between atoms: O_9  and  C_33
REMARK    4  A    between atoms: O_9  and  C_34
REMARK    5  A    between atoms: N_10  and  C_15
REMARK    6  A    between atoms: N_11  and  C_21
REMARK    7  A    between atoms: N_12  and  C_22
REMARK    8  A    between atoms: C_25  and  C_32
REMARK                            x       y       z     vdW  Elec       q    Type
REMARK                         _______ _______ _______ _____ _____    ______ ____
ROOT
ATOM      4  O   UNL     1     -11.314  -5.822  16.029  0.00  0.00    -0.368 OA
ATOM      5  O   UNL     1     -12.468  -8.298  14.636  0.00  0.00    -0.368 OA
ATOM     13  C   UNL     1     -11.111  -7.829  14.783  0.00  0.00    +0.173 C 
ATOM     14  C   UNL     1     -11.156  -6.317  14.689  0.00  0.00    +0.192 C 
ATOM     15  C   UNL     1     -10.623  -8.090  16.189  0.00  0.00    +0.131 C 
ATOM     16  C   UNL     1     -12.391  -6.079  13.854  0.00  0.00    +0.235 C 
ATOM     17  C   UNL     1     -11.201  -6.913  16.954  0.00  0.00    +0.185 C 
ATOM     18  C   UNL     1     -13.313  -7.180  14.327  0.00  0.00    +0.207 C 
ENDROOT
BRANCH  15  10
ATOM      7  O   UNL     1      -8.926 -10.396  16.293  0.00  0.00    -0.252 OA
ATOM     10  N   UNL     1      -9.181  -8.099  16.248  0.00  0.00    -0.292 N 
ATOM     11  N   UNL     1      -7.058  -8.973  16.349  0.00  0.00    -0.269 N 
ATOM     19  C   UNL     1      -8.422  -9.275  16.296  0.00  0.00    +0.304 C 
ATOM     35  H   UNL     1      -8.689  -7.212  16.188  0.00  0.00    +0.151 HD
ATOM     36  H   UNL     1      -6.809  -7.988  16.346  0.00  0.00    +0.156 HD
BRANCH  11  21
ATOM     21  C   UNL     1      -5.972  -9.876  16.407  0.00  0.00    +0.035 A 
ATOM     23  C   UNL     1      -5.622 -10.472  17.619  0.00  0.00    +0.035 A 
ATOM     24  C   UNL     1      -5.248 -10.171  15.251  0.00  0.00    +0.023 A 
ATOM     25  C   UNL     1      -4.551 -11.362  17.675  0.00  0.00    +0.057 A 
ATOM     28  C   UNL     1      -4.175 -11.062  15.307  0.00  0.00    +0.002 A 
ATOM     29  C   UNL     1      -3.827 -11.657  16.520  0.00  0.00    +0.012 A 
BRANCH  25  32
ATOM      1  F   UNL     1      -4.915 -11.554  20.032  0.00  0.00    -0.166 F 
ATOM      2  F   UNL     1      -2.876 -11.787  19.330  0.00  0.00    -0.166 F 
ATOM      3  F   UNL     1      -4.338 -13.353  18.957  0.00  0.00    -0.166 F 
ATOM     32  C   UNL     1      -4.177 -11.998  18.971  0.00  0.00    +0.417 C 
ENDBRANCH  25  32
ENDBRANCH  11  21
ENDBRANCH  15  10
BRANCH  16   6
ATOM      6  O   UNL     1     -12.955  -4.800  14.036  0.00  0.00    -0.442 OA
BRANCH   6  20
ATOM      8  O   UNL     1     -11.960  -3.184  12.759  0.00  0.00    -0.226 OA
ATOM     12  N   UNL     1     -14.052  -4.077  12.203  0.00  0.00    -0.251 N 
ATOM     20  C   UNL     1     -12.906  -3.937  12.960  0.00  0.00    +0.405 C 
ATOM     37  H   UNL     1     -14.729  -4.760  12.534  0.00  0.00    +0.158 HD
BRANCH  12  22
ATOM     22  C   UNL     1     -14.405  -3.386  11.022  0.00  0.00    +0.037 A 
ATOM     26  C   UNL     1     -13.745  -3.666   9.826  0.00  0.00    +0.027 A 
ATOM     27  C   UNL     1     -15.415  -2.423  11.052  0.00  0.00    +0.027 A 
ATOM     30  C   UNL     1     -14.093  -2.984   8.660  0.00  0.00    +0.047 A 
ATOM     31  C   UNL     1     -15.764  -1.741   9.886  0.00  0.00    +0.047 A 
ATOM     33  C   UNL     1     -15.103  -2.022   8.690  0.00  0.00    +0.120 A 
BRANCH  33   9
ATOM      9  O   UNL     1     -15.443  -1.357   7.552  0.00  0.00    -0.495 OA
ATOM     34  C   UNL     1     -15.519   0.066   7.630  0.00  0.00    +0.277 C 
ENDBRANCH  33   9
ENDBRANCH  12  22
ENDBRANCH   6  20
ENDBRANCH  16   6
TORSDOF 7
ENDMDL
MODEL 2
REMARK VINA RESULT:      -7.5     29.444     31.641
REMARK  Name = 11884065
REMARK  8 active torsions:
REMARK  status: ('A' for Active; 'I' for Inactive)
REMARK    1  A    between atoms: O_6  and  C_16
REMARK    2  A    between atoms: O_6  and  C_20
REMARK    3  A    between atoms: O_9  and  C_33
REMARK    4  A    between atoms: O_9  and  C_34
REMARK    5  A    between atoms: N_10  and  C_15
REMARK    6  A    between atoms: N_11  and  C_21
REMARK    7  A    between atoms: N_12  and  C_22
REMARK    8  A    between atoms: C_25  and  C_32
REMARK                            x       y       z     vdW  Elec       q    Type
REMARK                         _______ _______ _______ _____ _____    ______ ____
ROOT
ATOM      4  O   UNL     1      15.413   8.774  19.744  0.00  0.00    -0.368 OA
ATOM      5  O   UNL     1      14.411   6.214  21.102  0.00  0.00    -0.368 OA
ATOM     13  C   UNL     1      15.534   6.456  20.226  0.00  0.00    +0.173 C 
ATOM     14  C   UNL     1      15.082   7.483  19.208  0.00  0.00    +0.192 C 
ATOM     15  C   UNL     1      16.638   7.157  20.982  0.00  0.00    +0.131 C 
ATOM     16  C   UNL     1      13.589   7.262  19.161  0.00  0.00    +0.235 C 
ATOM     17  C   UNL     1      16.187   8.606  20.942  0.00  0.00    +0.185 C 
ATOM     18  C   UNL     1      13.271   6.927  20.601  0.00  0.00    +0.207 C 
ENDROOT
BRANCH  15  10
ATOM      7  O   UNL     1      19.139   6.527  22.230  0.00  0.00    -0.252 OA
ATOM     10  N   UNL     1      17.912   6.984  20.325  0.00  0.00    -0.292 N 
ATOM     11  N   UNL     1      20.162   6.571  20.117  0.00  0.00    -0.269 N 
ATOM     19  C   UNL     1      19.093   6.675  21.011  0.00  0.00    +0.304 C 
ATOM     35  H   UNL     1      17.942   7.026  19.311  0.00  0.00    +0.151 HD
ATOM     36  H   UNL     1      19.952   6.726  19.134  0.00  0.00    +0.156 HD
BRANCH  11  21
ATOM     21  C   UNL     1      21.513   6.275  20.411  0.00  0.00    +0.035 A 
ATOM     23  C   UNL     1      21.943   4.948  20.459  0.00  0.00    +0.035 A 
ATOM     24  C   UNL     1      22.417   7.310  20.654  0.00  0.00    +0.023 A 
ATOM     25  C   UNL     1      23.275   4.657  20.749  0.00  0.00    +0.057 A 
ATOM     28  C   UNL     1      23.750   7.018  20.945  0.00  0.00    +0.002 A 
ATOM     29  C   UNL     1      24.179   5.691  20.992  0.00  0.00    +0.012 A 
BRANCH  25  32
ATOM      1  F   UNL     1      22.712   2.335  20.865  0.00  0.00    -0.166 F 
ATOM      2  F   UNL     1      24.526   2.958  21.878  0.00  0.00    -0.166 F 
ATOM      3  F   UNL     1      24.467   2.884  19.705  0.00  0.00    -0.166 F 
ATOM     32  C   UNL     1      23.734   3.239  20.800  0.00  0.00    +0.417 C 
ENDBRANCH  25  32
ENDBRANCH  11  21
ENDBRANCH  15  10
BRANCH  16   6
ATOM      6  O   UNL     1      12.868   8.385  18.706  0.00  0.00    -0.442 OA
BRANCH   6  20
ATOM      8  O   UNL     1      10.728   8.581  19.488  0.00  0.00    -0.226 OA
ATOM     12  N   UNL     1      12.499   9.778  20.441  0.00  0.00    -0.251 N 
ATOM     20  C   UNL     1      11.910   8.897  19.556  0.00  0.00    +0.405 C 
ATOM     37  H   UNL     1      13.503   9.912  20.340  0.00  0.00    +0.158 HD
BRANCH  12  22
ATOM     22  C   UNL     1      11.882  10.521  21.472  0.00  0.00    +0.037 A 
ATOM     26  C   UNL     1      11.659  11.888  21.311  0.00  0.00    +0.027 A 
ATOM     27  C   UNL     1      11.494   9.885  22.653  0.00  0.00    +0.027 A 
ATOM     30  C   UNL     1      11.048  12.620  22.330  0.00  0.00    +0.047 A 
ATOM     31  C   UNL     1      10.884  10.618  23.672  0.00  0.00    +0.047 A 
ATOM     33  C   UNL     1      10.661  11.985  23.509  0.00  0.00    +0.120 A 
BRANCH  33   9
ATOM      9  O   UNL     1      10.066  12.700  24.503  0.00  0.00    -0.495 OA
ATOM     34  C   UNL     1      10.518  14.039  24.699  0.00  0.00    +0.277 C 
ENDBRANCH  33   9
ENDBRANCH  12  22
ENDBRANCH   6  20
ENDBRANCH  16   6
TORSDOF 7
ENDMDL
MODEL 3
REMARK VINA RESULT:      -7.4      1.393      2.038
REMARK  Name = 11884065
REMARK  8 active torsions:
REMARK  status: ('A' for Active; 'I' for Inactive)
REMARK    1  A    between atoms: O_6  and  C_16
REMARK    2  A    between atoms: O_6  and  C_20
REMARK    3  A    between atoms: O_9  and  C_33
REMARK    4  A    between atoms: O_9  and  C_34
REMARK    5  A    between atoms: N_10  and  C_15
REMARK    6  A    between atoms: N_11  and  C_21
REMARK    7  A    between atoms: N_12  and  C_22
REMARK    8  A    between atoms: C_25  and  C_32
REMARK                            x       y       z     vdW  Elec       q    Type
REMARK                         _______ _______ _______ _____ _____    ______ ____
ROOT
ATOM      4  O   UNL     1     -11.565  -5.878  15.934  0.00  0.00    -0.368 OA
ATOM      5  O   UNL     1     -12.554  -8.281  14.305  0.00  0.00    -0.368 OA
ATOM     13  C   UNL     1     -11.223  -7.795  14.581  0.00  0.00    +0.173 C 
ATOM     14  C   UNL     1     -11.299  -6.282  14.580  0.00  0.00    +0.192 C 
ATOM     15  C   UNL     1     -10.830  -8.137  16.000  0.00  0.00    +0.131 C 
ATOM     16  C   UNL     1     -12.477  -6.015  13.674  0.00  0.00    +0.235 C 
ATOM     17  C   UNL     1     -11.491  -7.025  16.794  0.00  0.00    +0.185 C 
ATOM     18  C   UNL     1     -13.403  -7.163  14.007  0.00  0.00    +0.207 C 
ENDROOT
BRANCH  15  10
ATOM      7  O   UNL     1      -9.172 -10.328  16.813  0.00  0.00    -0.252 OA
ATOM     10  N   UNL     1      -9.396  -8.120  16.163  0.00  0.00    -0.292 N 
ATOM     11  N   UNL     1      -7.297  -8.924  16.639  0.00  0.00    -0.269 N 
ATOM     19  C   UNL     1      -8.657  -9.239  16.566  0.00  0.00    +0.304 C 
ATOM     35  H   UNL     1      -8.892  -7.275  15.914  0.00  0.00    +0.151 HD
ATOM     36  H   UNL     1      -7.037  -7.970  16.402  0.00  0.00    +0.156 HD
BRANCH  11  21
ATOM     21  C   UNL     1      -6.228  -9.773  17.005  0.00  0.00    +0.035 A 
ATOM     23  C   UNL     1      -5.138  -9.934  16.148  0.00  0.00    +0.035 A 
ATOM     24  C   UNL     1      -6.263 -10.453  18.223  0.00  0.00    +0.023 A 
ATOM     25  C   UNL     1      -4.085 -10.772  16.511  0.00  0.00    +0.057 A 
ATOM     28  C   UNL     1      -5.209 -11.292  18.585  0.00  0.00    +0.002 A 
ATOM     29  C   UNL     1      -4.119 -11.452  17.728  0.00  0.00    +0.012 A 
BRANCH  25  32
ATOM      1  F   UNL     1      -2.687 -12.243  15.242  0.00  0.00    -0.166 F 
ATOM      2  F   UNL     1      -1.739 -10.501  16.122  0.00  0.00    -0.166 F 
ATOM      3  F   UNL     1      -3.072 -10.267  14.420  0.00  0.00    -0.166 F 
ATOM     32  C   UNL     1      -2.920 -10.943  15.595  0.00  0.00    +0.417 C 
ENDBRANCH  25  32
ENDBRANCH  11  21
ENDBRANCH  15  10
BRANCH  16   6
ATOM      6  O   UNL     1     -13.084  -4.762  13.895  0.00  0.00    -0.442 OA
BRANCH   6  20
ATOM      8  O   UNL     1     -12.114  -3.087  12.677  0.00  0.00    -0.226 OA
ATOM     12  N   UNL     1     -14.198  -3.982  12.095  0.00  0.00    -0.251 N 
ATOM     20  C   UNL     1     -13.050  -3.859  12.853  0.00  0.00    +0.405 C 
ATOM     37  H   UNL     1     -14.865  -4.686  12.402  0.00  0.00    +0.158 HD
BRANCH  12  22
ATOM     22  C   UNL     1     -14.563  -3.251  10.943  0.00  0.00    +0.037 A 
ATOM     26  C   UNL     1     -15.601  -2.322  11.005  0.00  0.00    +0.027 A 
ATOM     27  C   UNL     1     -13.884  -3.458   9.741  0.00  0.00    +0.027 A 
ATOM     30  C   UNL     1     -15.961  -1.600   9.867  0.00  0.00    +0.047 A 
ATOM     31  C   UNL     1     -14.244  -2.736   8.603  0.00  0.00    +0.047 A 
ATOM     33  C   UNL     1     -15.282  -1.807   8.667  0.00  0.00    +0.120 A 
BRANCH  33   9
ATOM      9  O   UNL     1     -15.634  -1.102   7.556  0.00  0.00    -0.495 OA
ATOM     34  C   UNL     1     -15.239   0.268   7.505  0.00  0.00    +0.277 C 
ENDBRANCH  33   9
ENDBRANCH  12  22
ENDBRANCH   6  20
ENDBRANCH  16   6
TORSDOF 7
ENDMDL
MODEL 4
REMARK VINA RESULT:      -7.4      5.312     10.611
REMARK  Name = 11884065
REMARK  8 active torsions:
REMARK  status: ('A' for Active; 'I' for Inactive)
REMARK    1  A    between atoms: O_6  and  C_16
REMARK    2  A    between atoms: O_6  and  C_20
REMARK    3  A    between atoms: O_9  and  C_33
REMARK    4  A    between atoms: O_9  and  C_34
REMARK    5  A    between atoms: N_10  and  C_15
REMARK    6  A    between atoms: N_11  and  C_21
REMARK    7  A    between atoms: N_12  and  C_22
REMARK    8  A    between atoms: C_25  and  C_32
REMARK                            x       y       z     vdW  Elec       q    Type
REMARK                         _______ _______ _______ _____ _____    ______ ____
ROOT
ATOM      4  O   UNL     1      -9.542  -9.251  15.325  0.00  0.00    -0.368 OA
ATOM      5  O   UNL     1     -10.464  -8.960  18.235  0.00  0.00    -0.368 OA
ATOM     13  C   UNL     1     -10.178  -7.975  17.219  0.00  0.00    +0.173 C 
ATOM     14  C   UNL     1      -9.000  -8.497  16.421  0.00  0.00    +0.192 C 
ATOM     15  C   UNL     1     -11.304  -7.926  16.213  0.00  0.00    +0.131 C 
ATOM     16  C   UNL     1      -8.297  -9.385  17.419  0.00  0.00    +0.235 C 
ATOM     17  C   UNL     1     -10.969  -9.089  15.297  0.00  0.00    +0.185 C 
ATOM     18  C   UNL     1      -9.455  -9.980  18.188  0.00  0.00    +0.207 C 
ENDROOT
BRANCH  15  10
ATOM      7  O   UNL     1     -13.066  -7.181  14.081  0.00  0.00    -0.252 OA
ATOM     10  N   UNL     1     -11.307  -6.675  15.494  0.00  0.00    -0.292 N 
ATOM     11  N   UNL     1     -11.972  -5.107  13.952  0.00  0.00    -0.269 N 
ATOM     19  C   UNL     1     -12.207  -6.388  14.459  0.00  0.00    +0.304 C 
ATOM     35  H   UNL     1     -10.670  -5.943  15.794  0.00  0.00    +0.151 HD
ATOM     36  H   UNL     1     -11.216  -4.578  14.379  0.00  0.00    +0.156 HD
BRANCH  11  21
ATOM     21  C   UNL     1     -12.661  -4.448  12.908  0.00  0.00    +0.035 A 
ATOM     23  C   UNL     1     -12.081  -4.347  11.643  0.00  0.00    +0.035 A 
ATOM     24  C   UNL     1     -13.922  -3.898  13.142  0.00  0.00    +0.023 A 
ATOM     25  C   UNL     1     -12.762  -3.697  10.614  0.00  0.00    +0.057 A 
ATOM     28  C   UNL     1     -14.603  -3.247  12.113  0.00  0.00    +0.002 A 
ATOM     29  C   UNL     1     -14.022  -3.147  10.848  0.00  0.00    +0.012 A 
BRANCH  25  32
ATOM      1  F   UNL     1     -12.081  -4.777   8.591  0.00  0.00    -0.166 F 
ATOM      2  F   UNL     1     -10.855  -3.127   9.285  0.00  0.00    -0.166 F 
ATOM      3  F   UNL     1     -12.821  -2.738   8.439  0.00  0.00    -0.166 F 
ATOM     32  C   UNL     1     -12.142  -3.589   9.262  0.00  0.00    +0.417 C 
ENDBRANCH  25  32
ENDBRANCH  11  21
ENDBRANCH  15  10
BRANCH  16   6
ATOM      6  O   UNL     1      -7.492 -10.377  16.821  0.00  0.00    -0.442 OA
BRANCH   6  20
ATOM      8  O   UNL     1      -5.520  -9.281  16.449  0.00  0.00    -0.226 OA
ATOM     12  N   UNL     1      -6.670 -10.363  14.721  0.00  0.00    -0.251 N 
ATOM     20  C   UNL     1      -6.459  -9.941  16.018  0.00  0.00    +0.405 C 
ATOM     37  H   UNL     1      -7.515 -10.906  14.557  0.00  0.00    +0.158 HD
BRANCH  12  22
ATOM     22  C   UNL     1      -5.858 -10.135  13.587  0.00  0.00    +0.037 A 
ATOM     26  C   UNL     1      -4.596 -10.721  13.504  0.00  0.00    +0.027 A 
ATOM     27  C   UNL     1      -6.321  -9.323  12.550  0.00  0.00    +0.027 A 
ATOM     30  C   UNL     1      -3.794 -10.495  12.384  0.00  0.00    +0.047 A 
ATOM     31  C   UNL     1      -5.520  -9.098  11.430  0.00  0.00    +0.047 A 
ATOM     33  C   UNL     1      -4.257  -9.684  11.348  0.00  0.00    +0.120 A 
BRANCH  33   9
ATOM      9  O   UNL     1      -3.474  -9.465  10.256  0.00  0.00    -0.495 OA
ATOM     34  C   UNL     1      -4.106  -8.897   9.109  0.00  0.00    +0.277 C 
ENDBRANCH  33   9
ENDBRANCH  12  22
ENDBRANCH   6  20
ENDBRANCH  16   6
TORSDOF 7
ENDMDL
MODEL 5
REMARK VINA RESULT:      -7.2     22.599     26.116
REMARK  Name = 11884065
REMARK  8 active torsions:
REMARK  status: ('A' for Active; 'I' for Inactive)
REMARK    1  A    between atoms: O_6  and  C_16
REMARK    2  A    between atoms: O_6  and  C_20
REMARK    3  A    between atoms: O_9  and  C_33
REMARK    4  A    between atoms: O_9  and  C_34
REMARK    5  A    between atoms: N_10  and  C_15
REMARK    6  A    between atoms: N_11  and  C_21
REMARK    7  A    between atoms: N_12  and  C_22
REMARK    8  A    between atoms: C_25  and  C_32
REMARK                            x       y       z     vdW  Elec       q    Type
REMARK                         _______ _______ _______ _____ _____    ______ ____
ROOT
ATOM      4  O   UNL     1       4.797  11.218   3.939  0.00  0.00    -0.368 OA
ATOM      5  O   UNL     1       5.724  11.387   1.020  0.00  0.00    -0.368 OA
ATOM     13  C   UNL     1       4.778  10.513   1.675  0.00  0.00    +0.173 C 
ATOM     14  C   UNL     1       5.334  10.221   3.054  0.00  0.00    +0.192 C 
ATOM     15  C   UNL     1       3.493  11.256   1.953  0.00  0.00    +0.131 C 
ATOM     16  C   UNL     1       6.820  10.393   2.851  0.00  0.00    +0.235 C 
ATOM     17  C   UNL     1       3.821  12.000   3.235  0.00  0.00    +0.185 C 
ATOM     18  C   UNL     1       6.876  11.536   1.862  0.00  0.00    +0.207 C 
ENDROOT
BRANCH  15  10
ATOM      7  O   UNL     1       0.793  11.942   2.626  0.00  0.00    -0.252 OA
ATOM     10  N   UNL     1       2.392  10.343   2.142  0.00  0.00    -0.292 N 
ATOM     11  N   UNL     1       0.245   9.659   2.591  0.00  0.00    -0.269 N 
ATOM     19  C   UNL     1       1.096  10.761   2.471  0.00  0.00    +0.304 C 
ATOM     35  H   UNL     1       2.548   9.355   1.967  0.00  0.00    +0.151 HD
ATOM     36  H   UNL     1       0.657   8.744   2.432  0.00  0.00    +0.156 HD
BRANCH  11  21
ATOM     21  C   UNL     1      -1.133   9.658   2.910  0.00  0.00    +0.035 A 
ATOM     23  C   UNL     1      -1.561   9.203   4.158  0.00  0.00    +0.035 A 
ATOM     24  C   UNL     1      -2.065  10.112   1.976  0.00  0.00    +0.023 A 
ATOM     25  C   UNL     1      -2.920   9.203   4.471  0.00  0.00    +0.057 A 
ATOM     28  C   UNL     1      -3.425  10.111   2.289  0.00  0.00    +0.002 A 
ATOM     29  C   UNL     1      -3.852   9.656   3.537  0.00  0.00    +0.012 A 
BRANCH  25  32
ATOM      1  F   UNL     1      -4.572   9.247   6.200  0.00  0.00    -0.166 F 
ATOM      2  F   UNL     1      -2.507   9.002   6.819  0.00  0.00    -0.166 F 
ATOM      3  F   UNL     1      -3.548   7.363   5.840  0.00  0.00    -0.166 F 
ATOM     32  C   UNL     1      -3.377   8.717   5.804  0.00  0.00    +0.417 C 
ENDBRANCH  25  32
ENDBRANCH  11  21
ENDBRANCH  15  10
BRANCH  16   6
ATOM      6  O   UNL     1       7.520  10.686   4.039  0.00  0.00    -0.442 OA
BRANCH   6  20
ATOM      8  O   UNL     1       9.576   9.686   4.106  0.00  0.00    -0.226 OA
ATOM     12  N   UNL     1       7.785   8.900   5.391  0.00  0.00    -0.251 N 
ATOM     20  C   UNL     1       8.413   9.734   4.488  0.00  0.00    +0.405 C 
ATOM     37  H   UNL     1       6.806   9.100   5.583  0.00  0.00    +0.158 HD
BRANCH  12  22
ATOM     22  C   UNL     1       8.333   7.798   6.086  0.00  0.00    +0.037 A 
ATOM     26  C   UNL     1       8.671   7.920   7.433  0.00  0.00    +0.027 A 
ATOM     27  C   UNL     1       8.535   6.586   5.423  0.00  0.00    +0.027 A 
ATOM     30  C   UNL     1       9.212   6.832   8.118  0.00  0.00    +0.047 A 
ATOM     31  C   UNL     1       9.075   5.498   6.108  0.00  0.00    +0.047 A 
ATOM     33  C   UNL     1       9.413   5.621   7.456  0.00  0.00    +0.120 A 
BRANCH  33   9
ATOM      9  O   UNL     1       9.941   4.560   8.125  0.00  0.00    -0.495 OA
ATOM     34  C   UNL     1       9.418   4.286   9.424  0.00  0.00    +0.277 C 
ENDBRANCH  33   9
ENDBRANCH  12  22
ENDBRANCH   6  20
ENDBRANCH  16   6
TORSDOF 7
ENDMDL
MODEL 6
REMARK VINA RESULT:      -7.1     30.580     35.091
REMARK  Name = 11884065
REMARK  8 active torsions:
REMARK  status: ('A' for Active; 'I' for Inactive)
REMARK    1  A    between atoms: O_6  and  C_16
REMARK    2  A    between atoms: O_6  and  C_20
REMARK    3  A    between atoms: O_9  and  C_33
REMARK    4  A    between atoms: O_9  and  C_34
REMARK    5  A    between atoms: N_10  and  C_15
REMARK    6  A    between atoms: N_11  and  C_21
REMARK    7  A    between atoms: N_12  and  C_22
REMARK    8  A    between atoms: C_25  and  C_32
REMARK                            x       y       z     vdW  Elec       q    Type
REMARK                         _______ _______ _______ _____ _____    ______ ____
ROOT
ATOM      4  O   UNL     1      20.467   5.988  23.035  0.00  0.00    -0.368 OA
ATOM      5  O   UNL     1      22.114   7.245  20.775  0.00  0.00    -0.368 OA
ATOM     13  C   UNL     1      20.924   6.429  20.751  0.00  0.00    +0.173 C 
ATOM     14  C   UNL     1      21.068   5.411  21.864  0.00  0.00    +0.192 C 
ATOM     15  C   UNL     1      19.724   7.249  21.163  0.00  0.00    +0.131 C 
ATOM     16  C   UNL     1      22.566   5.290  22.004  0.00  0.00    +0.235 C 
ATOM     17  C   UNL     1      19.817   7.217  22.678  0.00  0.00    +0.185 C 
ATOM     18  C   UNL     1      23.027   6.706  21.742  0.00  0.00    +0.207 C 
ENDROOT
BRANCH  15  10
ATOM      7  O   UNL     1      17.281   8.611  20.539  0.00  0.00    -0.252 OA
ATOM     10  N   UNL     1      18.496   6.650  20.698  0.00  0.00    -0.292 N 
ATOM     11  N   UNL     1      16.314   6.543  19.987  0.00  0.00    -0.269 N 
ATOM     19  C   UNL     1      17.341   7.389  20.414  0.00  0.00    +0.304 C 
ATOM     35  H   UNL     1      18.488   5.652  20.507  0.00  0.00    +0.151 HD
ATOM     36  H   UNL     1      16.530   5.551  19.940  0.00  0.00    +0.156 HD
BRANCH  11  21
ATOM     21  C   UNL     1      15.000   6.898  19.607  0.00  0.00    +0.035 A 
ATOM     23  C   UNL     1      13.956   6.802  20.528  0.00  0.00    +0.035 A 
ATOM     24  C   UNL     1      14.745   7.344  18.309  0.00  0.00    +0.023 A 
ATOM     25  C   UNL     1      12.660   7.152  20.152  0.00  0.00    +0.057 A 
ATOM     28  C   UNL     1      13.448   7.694  17.933  0.00  0.00    +0.002 A 
ATOM     29  C   UNL     1      12.405   7.598  18.855  0.00  0.00    +0.012 A 
BRANCH  25  32
ATOM      1  F   UNL     1      11.853   7.556  22.368  0.00  0.00    -0.166 F 
ATOM      2  F   UNL     1      11.139   5.765  21.373  0.00  0.00    -0.166 F 
ATOM      3  F   UNL     1      10.425   7.719  20.735  0.00  0.00    -0.166 F 
ATOM     32  C   UNL     1      11.545   7.049  21.137  0.00  0.00    +0.417 C 
ENDBRANCH  25  32
ENDBRANCH  11  21
ENDBRANCH  15  10
BRANCH  16   6
ATOM      6  O   UNL     1      22.977   4.824  23.270  0.00  0.00    -0.442 OA
BRANCH   6  20
ATOM      8  O   UNL     1      22.212   2.718  23.726  0.00  0.00    -0.226 OA
ATOM     12  N   UNL     1      24.446   3.116  23.151  0.00  0.00    -0.251 N 
ATOM     20  C   UNL     1      23.134   3.461  23.412  0.00  0.00    +0.405 C 
ATOM     37  H   UNL     1      25.070   3.881  22.904  0.00  0.00    +0.158 HD
BRANCH  12  22
ATOM     22  C   UNL     1      25.031   1.831  23.183  0.00  0.00    +0.037 A 
ATOM     26  C   UNL     1      25.088   1.060  22.022  0.00  0.00    +0.027 A 
ATOM     27  C   UNL     1      25.554   1.333  24.378  0.00  0.00    +0.027 A 
ATOM     30  C   UNL     1      25.667  -0.209  22.055  0.00  0.00    +0.047 A 
ATOM     31  C   UNL     1      26.133   0.064  24.410  0.00  0.00    +0.047 A 
ATOM     33  C   UNL     1      26.190  -0.706  23.248  0.00  0.00    +0.120 A 
BRANCH  33   9
ATOM      9  O   UNL     1      26.754  -1.944  23.280  0.00  0.00    -0.495 OA
ATOM     34  C   UNL     1      27.062  -2.485  24.564  0.00  0.00    +0.277 C 
ENDBRANCH  33   9
ENDBRANCH  12  22
ENDBRANCH   6  20
ENDBRANCH  16   6
TORSDOF 7
ENDMDL
MODEL 7
REMARK VINA RESULT:      -7.1     29.868     34.426
REMARK  Name = 11884065
REMARK  8 active torsions:
REMARK  status: ('A' for Active; 'I' for Inactive)
REMARK    1  A    between atoms: O_6  and  C_16
REMARK    2  A    between atoms: O_6  and  C_20
REMARK    3  A    between atoms: O_9  and  C_33
REMARK    4  A    between atoms: O_9  and  C_34
REMARK    5  A    between atoms: N_10  and  C_15
REMARK    6  A    between atoms: N_11  and  C_21
REMARK    7  A    between atoms: N_12  and  C_22
REMARK    8  A    between atoms: C_25  and  C_32
REMARK                            x       y       z     vdW  Elec       q    Type
REMARK                         _______ _______ _______ _____ _____    ______ ____
ROOT
ATOM      4  O   UNL     1      20.503   5.697  22.819  0.00  0.00    -0.368 OA
ATOM      5  O   UNL     1      22.092   7.093  20.598  0.00  0.00    -0.368 OA
ATOM     13  C   UNL     1      20.894   6.288  20.556  0.00  0.00    +0.173 C 
ATOM     14  C   UNL     1      21.063   5.197  21.593  0.00  0.00    +0.192 C 
ATOM     15  C   UNL     1      19.715   7.088  21.059  0.00  0.00    +0.131 C 
ATOM     16  C   UNL     1      22.563   5.056  21.679  0.00  0.00    +0.235 C 
ATOM     17  C   UNL     1      19.854   6.953  22.565  0.00  0.00    +0.185 C 
ATOM     18  C   UNL     1      23.029   6.483  21.498  0.00  0.00    +0.207 C 
ENDROOT
BRANCH  15  10
ATOM      7  O   UNL     1      17.291   8.518  20.523  0.00  0.00    -0.252 OA
ATOM     10  N   UNL     1      18.468   6.529  20.594  0.00  0.00    -0.292 N 
ATOM     11  N   UNL     1      16.274   6.491  19.914  0.00  0.00    -0.269 N 
ATOM     19  C   UNL     1      17.325   7.301  20.355  0.00  0.00    +0.304 C 
ATOM     35  H   UNL     1      18.437   5.540  20.368  0.00  0.00    +0.151 HD
ATOM     36  H   UNL     1      16.469   5.497  19.830  0.00  0.00    +0.156 HD
BRANCH  11  21
ATOM     21  C   UNL     1      14.961   6.885  19.568  0.00  0.00    +0.035 A 
ATOM     23  C   UNL     1      13.934   6.795  20.508  0.00  0.00    +0.035 A 
ATOM     24  C   UNL     1      14.692   7.364  18.286  0.00  0.00    +0.023 A 
ATOM     25  C   UNL     1      12.640   7.185  20.166  0.00  0.00    +0.057 A 
ATOM     28  C   UNL     1      13.396   7.753  17.943  0.00  0.00    +0.002 A 
ATOM     29  C   UNL     1      12.370   7.663  18.884  0.00  0.00    +0.012 A 
BRANCH  25  32
ATOM      1  F   UNL     1      10.394   7.725  20.791  0.00  0.00    -0.166 F 
ATOM      2  F   UNL     1      11.862   7.628  22.385  0.00  0.00    -0.166 F 
ATOM      3  F   UNL     1      11.177   5.799  21.428  0.00  0.00    -0.166 F 
ATOM     32  C   UNL     1      11.542   7.088  21.171  0.00  0.00    +0.417 C 
ENDBRANCH  25  32
ENDBRANCH  11  21
ENDBRANCH  15  10
BRANCH  16   6
ATOM      6  O   UNL     1      23.008   4.503  22.897  0.00  0.00    -0.442 OA
BRANCH   6  20
ATOM      8  O   UNL     1      23.253   2.425  21.974  0.00  0.00    -0.226 OA
ATOM     12  N   UNL     1      22.964   2.720  24.279  0.00  0.00    -0.251 N 
ATOM     20  C   UNL     1      23.091   3.128  22.965  0.00  0.00    +0.405 C 
ATOM     37  H   UNL     1      22.835   3.458  24.967  0.00  0.00    +0.158 HD
BRANCH  12  22
ATOM     22  C   UNL     1      22.990   1.403  24.788  0.00  0.00    +0.037 A 
ATOM     26  C   UNL     1      21.818   0.814  25.261  0.00  0.00    +0.027 A 
ATOM     27  C   UNL     1      24.191   0.691  24.819  0.00  0.00    +0.027 A 
ATOM     30  C   UNL     1      21.844  -0.487  25.764  0.00  0.00    +0.047 A 
ATOM     31  C   UNL     1      24.217  -0.610  25.322  0.00  0.00    +0.047 A 
ATOM     33  C   UNL     1      23.043  -1.199  25.794  0.00  0.00    +0.120 A 
BRANCH  33   9
ATOM      9  O   UNL     1      23.069  -2.468  26.285  0.00  0.00    -0.495 OA
ATOM     34  C   UNL     1      22.134  -3.396  25.735  0.00  0.00    +0.277 C 
ENDBRANCH  33   9
ENDBRANCH  12  22
ENDBRANCH   6  20
ENDBRANCH  16   6
TORSDOF 7
ENDMDL
MODEL 8
REMARK VINA RESULT:      -7.0      5.865      7.230
REMARK  Name = 11884065
REMARK  8 active torsions:
REMARK  status: ('A' for Active; 'I' for Inactive)
REMARK    1  A    between atoms: O_6  and  C_16
REMARK    2  A    between atoms: O_6  and  C_20
REMARK    3  A    between atoms: O_9  and  C_33
REMARK    4  A    between atoms: O_9  and  C_34
REMARK    5  A    between atoms: N_10  and  C_15
REMARK    6  A    between atoms: N_11  and  C_21
REMARK    7  A    between atoms: N_12  and  C_22
REMARK    8  A    between atoms: C_25  and  C_32
REMARK                            x       y       z     vdW  Elec       q    Type
REMARK                         _______ _______ _______ _____ _____    ______ ____
ROOT
ATOM      4  O   UNL     1      -7.013 -10.722   8.658  0.00  0.00    -0.368 OA
ATOM      5  O   UNL     1      -4.467 -11.523   7.146  0.00  0.00    -0.368 OA
ATOM     13  C   UNL     1      -4.670 -10.675   8.297  0.00  0.00    +0.173 C 
ATOM     14  C   UNL     1      -5.969  -9.929   8.070  0.00  0.00    +0.192 C 
ATOM     15  C   UNL     1      -4.946 -11.519   9.520  0.00  0.00    +0.131 C 
ATOM     16  C   UNL     1      -6.069  -9.899   6.564  0.00  0.00    +0.235 C 
ATOM     17  C   UNL     1      -6.427 -11.819   9.376  0.00  0.00    +0.185 C 
ATOM     18  C   UNL     1      -5.489 -11.241   6.179  0.00  0.00    +0.207 C 
ENDROOT
BRANCH  15  10
ATOM      7  O   UNL     1      -3.491 -12.461  11.801  0.00  0.00    -0.252 OA
ATOM     10  N   UNL     1      -4.674 -10.786  10.733  0.00  0.00    -0.292 N 
ATOM     11  N   UNL     1      -3.848 -10.385  12.839  0.00  0.00    -0.269 N 
ATOM     19  C   UNL     1      -3.951 -11.321  11.807  0.00  0.00    +0.304 C 
ATOM     35  H   UNL     1      -4.964  -9.814  10.786  0.00  0.00    +0.151 HD
ATOM     36  H   UNL     1      -4.289  -9.483  12.683  0.00  0.00    +0.156 HD
BRANCH  11  21
ATOM     21  C   UNL     1      -3.200 -10.537  14.086  0.00  0.00    +0.035 A 
ATOM     23  C   UNL     1      -3.937 -10.885  15.219  0.00  0.00    +0.035 A 
ATOM     24  C   UNL     1      -1.822 -10.339  14.185  0.00  0.00    +0.023 A 
ATOM     25  C   UNL     1      -3.297 -11.035  16.448  0.00  0.00    +0.057 A 
ATOM     28  C   UNL     1      -1.182 -10.489  15.416  0.00  0.00    +0.002 A 
ATOM     29  C   UNL     1      -1.920 -10.837  16.548  0.00  0.00    +0.012 A 
BRANCH  25  32
ATOM      1  F   UNL     1      -4.962 -10.439  18.060  0.00  0.00    -0.166 F 
ATOM      2  F   UNL     1      -3.314 -11.665  18.757  0.00  0.00    -0.166 F 
ATOM      3  F   UNL     1      -4.840 -12.528  17.470  0.00  0.00    -0.166 F 
ATOM     32  C   UNL     1      -4.085 -11.407  17.659  0.00  0.00    +0.417 C 
ENDBRANCH  25  32
ENDBRANCH  11  21
ENDBRANCH  15  10
BRANCH  16   6
ATOM      6  O   UNL     1      -7.386  -9.735   6.090  0.00  0.00    -0.442 OA
BRANCH   6  20
ATOM      8  O   UNL     1      -7.825  -7.674   5.200  0.00  0.00    -0.226 OA
ATOM     12  N   UNL     1      -8.516  -8.252   7.361  0.00  0.00    -0.251 N 
ATOM     20  C   UNL     1      -7.912  -8.460   6.136  0.00  0.00    +0.405 C 
ATOM     37  H   UNL     1      -8.486  -9.031   8.015  0.00  0.00    +0.158 HD
BRANCH  12  22
ATOM     22  C   UNL     1      -9.173  -7.090   7.822  0.00  0.00    +0.037 A 
ATOM     26  C   UNL     1     -10.563  -7.073   7.937  0.00  0.00    +0.027 A 
ATOM     27  C   UNL     1      -8.431  -5.958   8.162  0.00  0.00    +0.027 A 
ATOM     30  C   UNL     1     -11.212  -5.924   8.392  0.00  0.00    +0.047 A 
ATOM     31  C   UNL     1      -9.080  -4.809   8.618  0.00  0.00    +0.047 A 
ATOM     33  C   UNL     1     -10.470  -4.794   8.733  0.00  0.00    +0.120 A 
BRANCH  33   9
ATOM      9  O   UNL     1     -11.103  -3.674   9.177  0.00  0.00    -0.495 OA
ATOM     34  C   UNL     1     -11.977  -3.822  10.295  0.00  0.00    +0.277 C 
ENDBRANCH  33   9
ENDBRANCH  12  22
ENDBRANCH   6  20
ENDBRANCH  16   6
TORSDOF 7
ENDMDL
MODEL 9
REMARK VINA RESULT:      -6.8     25.482     27.487
REMARK  Name = 11884065
REMARK  8 active torsions:
REMARK  status: ('A' for Active; 'I' for Inactive)
REMARK    1  A    between atoms: O_6  and  C_16
REMARK    2  A    between atoms: O_6  and  C_20
REMARK    3  A    between atoms: O_9  and  C_33
REMARK    4  A    between atoms: O_9  and  C_34
REMARK    5  A    between atoms: N_10  and  C_15
REMARK    6  A    between atoms: N_11  and  C_21
REMARK    7  A    between atoms: N_12  and  C_22
REMARK    8  A    between atoms: C_25  and  C_32
REMARK                            x       y       z     vdW  Elec       q    Type
REMARK                         _______ _______ _______ _____ _____    ______ ____
ROOT
ATOM      4  O   UNL     1       6.535   5.458  -5.357  0.00  0.00    -0.368 OA
ATOM      5  O   UNL     1       6.162   8.063  -3.783  0.00  0.00    -0.368 OA
ATOM     13  C   UNL     1       6.628   6.758  -3.377  0.00  0.00    +0.173 C 
ATOM     14  C   UNL     1       5.811   5.741  -4.148  0.00  0.00    +0.192 C 
ATOM     15  C   UNL     1       8.040   6.536  -3.866  0.00  0.00    +0.131 C 
ATOM     16  C   UNL     1       4.531   6.492  -4.424  0.00  0.00    +0.235 C 
ATOM     17  C   UNL     1       7.817   6.101  -5.304  0.00  0.00    +0.185 C 
ATOM     18  C   UNL     1       5.030   7.902  -4.649  0.00  0.00    +0.207 C 
ENDROOT
BRANCH  15  10
ATOM      7  O   UNL     1       9.507   6.886  -1.430  0.00  0.00    -0.252 OA
ATOM     10  N   UNL     1       8.702   5.506  -3.102  0.00  0.00    -0.292 N 
ATOM     11  N   UNL     1       9.936   4.577  -1.401  0.00  0.00    -0.269 N 
ATOM     19  C   UNL     1       9.401   5.762  -1.916  0.00  0.00    +0.304 C 
ATOM     35  H   UNL     1       8.603   4.542  -3.404  0.00  0.00    +0.151 HD
ATOM     36  H   UNL     1       9.756   3.728  -1.930  0.00  0.00    +0.156 HD
BRANCH  11  21
ATOM     21  C   UNL     1      10.703   4.411  -0.226  0.00  0.00    +0.035 A 
ATOM     23  C   UNL     1      12.092   4.301  -0.307  0.00  0.00    +0.035 A 
ATOM     24  C   UNL     1      10.072   4.357   1.018  0.00  0.00    +0.023 A 
ATOM     25  C   UNL     1      12.847   4.138   0.853  0.00  0.00    +0.057 A 
ATOM     28  C   UNL     1      10.828   4.192   2.179  0.00  0.00    +0.002 A 
ATOM     29  C   UNL     1      12.217   4.083   2.096  0.00  0.00    +0.012 A 
BRANCH  25  32
ATOM      1  F   UNL     1      14.773   3.547  -0.438  0.00  0.00    -0.166 F 
ATOM      2  F   UNL     1      14.871   3.179   1.698  0.00  0.00    -0.166 F 
ATOM      3  F   UNL     1      14.965   5.216   0.942  0.00  0.00    -0.166 F 
ATOM     32  C   UNL     1      14.332   4.020   0.765  0.00  0.00    +0.417 C 
ENDBRANCH  25  32
ENDBRANCH  11  21
ENDBRANCH  15  10
BRANCH  16   6
ATOM      6  O   UNL     1       3.817   5.998  -5.535  0.00  0.00    -0.442 OA
BRANCH   6  20
ATOM      8  O   UNL     1       1.865   5.427  -4.490  0.00  0.00    -0.226 OA
ATOM     12  N   UNL     1       2.911   3.989  -6.012  0.00  0.00    -0.251 N 
ATOM     20  C   UNL     1       2.765   5.146  -5.273  0.00  0.00    +0.405 C 
ATOM     37  H   UNL     1       3.731   3.939  -6.612  0.00  0.00    +0.158 HD
BRANCH  12  22
ATOM     22  C   UNL     1       2.060   2.861  -6.041  0.00  0.00    +0.037 A 
ATOM     26  C   UNL     1       1.020   2.795  -6.968  0.00  0.00    +0.027 A 
ATOM     27  C   UNL     1       2.262   1.812  -5.143  0.00  0.00    +0.027 A 
ATOM     30  C   UNL     1       0.181   1.681  -6.996  0.00  0.00    +0.047 A 
ATOM     31  C   UNL     1       1.422   0.698  -5.171  0.00  0.00    +0.047 A 
ATOM     33  C   UNL     1       0.382   0.633  -6.099  0.00  0.00    +0.120 A 
BRANCH  33   9
ATOM      9  O   UNL     1      -0.437  -0.454  -6.127  0.00  0.00    -0.495 OA
ATOM     34  C   UNL     1      -1.553  -0.403  -7.014  0.00  0.00    +0.277 C 
ENDBRANCH  33   9
ENDBRANCH  12  22
ENDBRANCH   6  20
ENDBRANCH  16   6
TORSDOF 7
ENDMDL
MODEL 10
REMARK VINA RESULT:      -6.7     25.890     28.853
REMARK  Name = 11884065
REMARK  8 active torsions:
REMARK  status: ('A' for Active; 'I' for Inactive)
REMARK    1  A    between atoms: O_6  and  C_16
REMARK    2  A    between atoms: O_6  and  C_20
REMARK    3  A    between atoms: O_9  and  C_33
REMARK    4  A    between atoms: O_9  and  C_34
REMARK    5  A    between atoms: N_10  and  C_15
REMARK    6  A    between atoms: N_11  and  C_21
REMARK    7  A    between atoms: N_12  and  C_22
REMARK    8  A    between atoms: C_25  and  C_32
REMARK                            x       y       z     vdW  Elec       q    Type
REMARK                         _______ _______ _______ _____ _____    ______ ____
ROOT
ATOM      4  O   UNL     1      10.251   6.844  -0.902  0.00  0.00    -0.368 OA
ATOM      5  O   UNL     1      10.609   4.362  -2.666  0.00  0.00    -0.368 OA
ATOM     13  C   UNL     1       9.426   4.982  -2.117  0.00  0.00    +0.173 C 
ATOM     14  C   UNL     1       9.798   5.490  -0.738  0.00  0.00    +0.192 C 
ATOM     15  C   UNL     1       9.094   6.238  -2.888  0.00  0.00    +0.131 C 
ATOM     16  C   UNL     1      10.925   4.567  -0.343  0.00  0.00    +0.235 C 
ATOM     17  C   UNL     1      10.025   7.259  -2.258  0.00  0.00    +0.185 C 
ATOM     18  C   UNL     1      11.632   4.343  -1.661  0.00  0.00    +0.207 C 
ENDROOT
BRANCH  15  10
ATOM      7  O   UNL     1       6.949   5.777  -4.731  0.00  0.00    -0.252 OA
ATOM     10  N   UNL     1       7.711   6.609  -2.712  0.00  0.00    -0.292 N 
ATOM     11  N   UNL     1       5.480   6.819  -3.223  0.00  0.00    -0.269 N 
ATOM     19  C   UNL     1       6.719   6.346  -3.666  0.00  0.00    +0.304 C 
ATOM     35  H   UNL     1       7.430   7.023  -1.828  0.00  0.00    +0.151 HD
ATOM     36  H   UNL     1       5.463   7.269  -2.312  0.00  0.00    +0.156 HD
BRANCH  11  21
ATOM     21  C   UNL     1       4.236   6.748  -3.891  0.00  0.00    +0.035 A 
ATOM     23  C   UNL     1       3.581   5.523  -4.019  0.00  0.00    +0.035 A 
ATOM     24  C   UNL     1       3.663   7.904  -4.422  0.00  0.00    +0.023 A 
ATOM     25  C   UNL     1       2.354   5.455  -4.678  0.00  0.00    +0.057 A 
ATOM     28  C   UNL     1       2.436   7.835  -5.082  0.00  0.00    +0.002 A 
ATOM     29  C   UNL     1       1.781   6.610  -5.209  0.00  0.00    +0.012 A 
BRANCH  25  32
ATOM      1  F   UNL     1       0.961   4.015  -5.986  0.00  0.00    -0.166 F 
ATOM      2  F   UNL     1       0.736   3.909  -3.830  0.00  0.00    -0.166 F 
ATOM      3  F   UNL     1       2.511   3.084  -4.778  0.00  0.00    -0.166 F 
ATOM     32  C   UNL     1       1.654   4.145  -4.815  0.00  0.00    +0.417 C 
ENDBRANCH  25  32
ENDBRANCH  11  21
ENDBRANCH  15  10
BRANCH  16   6
ATOM      6  O   UNL     1      11.783   5.112   0.634  0.00  0.00    -0.442 OA
BRANCH   6  20
ATOM      8  O   UNL     1      11.809   3.515   2.270  0.00  0.00    -0.226 OA
ATOM     12  N   UNL     1      11.195   5.729   2.722  0.00  0.00    -0.251 N 
ATOM     20  C   UNL     1      11.610   4.675   1.931  0.00  0.00    +0.405 C 
ATOM     37  H   UNL     1      11.085   6.626   2.255  0.00  0.00    +0.158 HD
BRANCH  12  22
ATOM     22  C   UNL     1      10.904   5.717   4.105  0.00  0.00    +0.037 A 
ATOM     26  C   UNL     1      11.687   6.458   4.989  0.00  0.00    +0.027 A 
ATOM     27  C   UNL     1       9.831   4.964   4.585  0.00  0.00    +0.027 A 
ATOM     30  C   UNL     1      11.398   6.446   6.354  0.00  0.00    +0.047 A 
ATOM     31  C   UNL     1       9.543   4.952   5.950  0.00  0.00    +0.047 A 
ATOM     33  C   UNL     1      10.326   5.694   6.834  0.00  0.00    +0.120 A 
BRANCH  33   9
ATOM      9  O   UNL     1      10.045   5.683   8.166  0.00  0.00    -0.495 OA
ATOM     34  C   UNL     1       9.693   4.427   8.745  0.00  0.00    +0.277 C 
ENDBRANCH  33   9
ENDBRANCH  12  22
ENDBRANCH   6  20
ENDBRANCH  16   6
TORSDOF 7
ENDMDL
