MODEL 1
REMARK VINA RESULT:      -7.1      0.000      0.000
REMARK  Name = 51138142
REMARK  9 active torsions:
REMARK  status: ('A' for Active; 'I' for Inactive)
REMARK    1  A    between atoms: N_3  and  C_7
REMARK    2  A    between atoms: N_5  and  C_23
REMARK    3  A    between atoms: C_10  and  C_17
REMARK    4  A    between atoms: C_11  and  C_16
REMARK    5  A    between atoms: C_16  and  C_19
REMARK    6  A    between atoms: C_19  and  C_25
REMARK    7  A    between atoms: C_19  and  C_26
REMARK    8  A    between atoms: C_23  and  C_27
REMARK    9  A    between atoms: C_29  and  C_30
REMARK                            x       y       z     vdW  Elec       q    Type
REMARK                         _______ _______ _______ _____ _____    ______ ____
ROOT
ATOM      4  N   UNL     1      18.964   8.810  22.684  0.00  0.00    -0.299 NA
ATOM      5  N   UNL     1      15.094   8.220  19.492  0.00  0.00    -0.340 N 
ATOM     10  C   UNL     1      18.609  10.059  22.025  0.00  0.00    +0.145 C 
ATOM     11  C   UNL     1      19.359   7.727  21.774  0.00  0.00    +0.085 C 
ATOM     12  C   UNL     1      17.098  10.189  21.845  0.00  0.00    +0.065 C 
ATOM     13  C   UNL     1      18.274   7.227  20.816  0.00  0.00    -0.021 A 
ATOM     14  C   UNL     1      17.070   7.924  20.505  0.00  0.00    +0.008 A 
ATOM     15  C   UNL     1      16.513   9.186  20.909  0.00  0.00    -0.020 A 
ATOM     18  C   UNL     1      16.164   7.361  19.598  0.00  0.00    +0.050 A 
ATOM     20  C   UNL     1      15.296   9.322  20.271  0.00  0.00    +0.091 A 
ATOM     21  C   UNL     1      18.495   6.016  20.112  0.00  0.00    +0.006 A 
ATOM     22  C   UNL     1      16.379   6.145  18.950  0.00  0.00    +0.026 A 
ATOM     24  C   UNL     1      17.572   5.484  19.214  0.00  0.00    +0.002 A 
ATOM     32  H   UNL     1      18.223   8.503  23.314  0.00  0.00    +0.123 HD
ENDROOT
BRANCH  10  17
ATOM      1  O   UNL     1      20.240  11.565  22.907  0.00  0.00    -0.274 OA
ATOM      3  N   UNL     1      18.108  11.550  23.836  0.00  0.00    -0.311 N 
ATOM     17  C   UNL     1      19.088  11.138  22.948  0.00  0.00    +0.231 C 
ATOM     31  H   UNL     1      17.180  11.137  23.795  0.00  0.00    +0.149 HD
BRANCH   3   7
ATOM      7  C   UNL     1      18.345  12.553  24.834  0.00  0.00    +0.073 C 
ATOM      8  C   UNL     1      17.759  13.929  24.704  0.00  0.00    +0.024 C 
ATOM      9  C   UNL     1      17.256  12.996  25.767  0.00  0.00    +0.024 C 
ENDBRANCH   3   7
ENDBRANCH  10  17
BRANCH  11  16
ATOM     16  C   UNL     1      19.887   6.615  22.699  0.00  0.00    +0.026 C 
BRANCH  16  19
ATOM     19  C   UNL     1      21.354   6.262  22.433  0.00  0.00    -0.015 C 
ATOM     25  C   UNL     1      21.914   7.204  21.364  0.00  0.00    +0.007 C 
ATOM     26  C   UNL     1      21.541   4.810  21.992  0.00  0.00    +0.007 C 
ENDBRANCH  16  19
ENDBRANCH  11  16
BRANCH   5  23
ATOM     23  C   UNL     1      13.926   8.012  18.663  0.00  0.00    +0.180 C 
BRANCH  23  27
ATOM      2  O   UNL     1      10.536   8.246  19.874  0.00  0.00    -0.360 OA
ATOM      6  N   UNL     1      11.511   8.435  18.903  0.00  0.00    -0.081 NA
ATOM     27  C   UNL     1      12.638   7.968  19.448  0.00  0.00    +0.103 A 
ATOM     28  C   UNL     1      12.438   7.478  20.750  0.00  0.00    +0.072 A 
ATOM     29  C   UNL     1      11.101   7.676  20.970  0.00  0.00    +0.135 A 
ATOM     30  C   UNL     1      10.205   7.404  22.101  0.00  0.00    +0.089 C 
ENDBRANCH  23  27
ENDBRANCH   5  23
TORSDOF 6
ENDMDL
MODEL 2
REMARK VINA RESULT:      -7.0     28.164     30.553
REMARK  Name = 51138142
REMARK  9 active torsions:
REMARK  status: ('A' for Active; 'I' for Inactive)
REMARK    1  A    between atoms: N_3  and  C_7
REMARK    2  A    between atoms: N_5  and  C_23
REMARK    3  A    between atoms: C_10  and  C_17
REMARK    4  A    between atoms: C_11  and  C_16
REMARK    5  A    between atoms: C_16  and  C_19
REMARK    6  A    between atoms: C_19  and  C_25
REMARK    7  A    between atoms: C_19  and  C_26
REMARK    8  A    between atoms: C_23  and  C_27
REMARK    9  A    between atoms: C_29  and  C_30
REMARK                            x       y       z     vdW  Elec       q    Type
REMARK                         _______ _______ _______ _____ _____    ______ ____
ROOT
ATOM      4  N   UNL     1      -6.634 -10.951  16.753  0.00  0.00    -0.299 NA
ATOM      5  N   UNL     1      -3.531 -10.477  12.796  0.00  0.00    -0.340 N 
ATOM     10  C   UNL     1      -7.031  -9.855  15.880  0.00  0.00    +0.145 C 
ATOM     11  C   UNL     1      -5.283 -10.827  17.317  0.00  0.00    +0.085 C 
ATOM     12  C   UNL     1      -6.809 -10.200  14.409  0.00  0.00    +0.065 C 
ATOM     13  C   UNL     1      -4.131 -10.854  16.310  0.00  0.00    -0.021 A 
ATOM     14  C   UNL     1      -4.264 -10.649  14.905  0.00  0.00    +0.008 A 
ATOM     15  C   UNL     1      -5.374 -10.367  14.037  0.00  0.00    -0.020 A 
ATOM     18  C   UNL     1      -3.124 -10.686  14.093  0.00  0.00    +0.050 A 
ATOM     20  C   UNL     1      -4.880 -10.279  12.751  0.00  0.00    +0.091 A 
ATOM     21  C   UNL     1      -2.808 -11.017  16.794  0.00  0.00    +0.006 A 
ATOM     22  C   UNL     1      -1.836 -10.894  14.585  0.00  0.00    +0.026 A 
ATOM     24  C   UNL     1      -1.694 -11.047  15.958  0.00  0.00    +0.002 A 
ATOM     32  H   UNL     1      -6.753 -11.851  16.289  0.00  0.00    +0.123 HD
ENDROOT
BRANCH  10  17
ATOM      1  O   UNL     1      -9.194 -10.562  16.607  0.00  0.00    -0.274 OA
ATOM      3  N   UNL     1      -8.950  -8.425  15.724  0.00  0.00    -0.311 N 
ATOM     17  C   UNL     1      -8.498  -9.671  16.126  0.00  0.00    +0.231 C 
ATOM     31  H   UNL     1      -8.298  -7.749  15.334  0.00  0.00    +0.149 HD
BRANCH   3   7
ATOM      7  C   UNL     1     -10.325  -8.032  15.834  0.00  0.00    +0.073 C 
ATOM      8  C   UNL     1     -10.853  -7.399  17.088  0.00  0.00    +0.024 C 
ATOM      9  C   UNL     1     -10.726  -6.585  15.833  0.00  0.00    +0.024 C 
ENDBRANCH   3   7
ENDBRANCH  10  17
BRANCH  11  16
ATOM     16  C   UNL     1      -5.189 -11.964  18.352  0.00  0.00    +0.026 C 
BRANCH  16  19
ATOM     19  C   UNL     1      -5.985 -11.678  19.629  0.00  0.00    -0.015 C 
ATOM     25  C   UNL     1      -7.268 -12.513  19.621  0.00  0.00    +0.007 C 
ATOM     26  C   UNL     1      -6.333 -10.197  19.788  0.00  0.00    +0.007 C 
ENDBRANCH  16  19
ENDBRANCH  11  16
BRANCH   5  23
ATOM     23  C   UNL     1      -2.665 -10.448  11.636  0.00  0.00    +0.180 C 
BRANCH  23  27
ATOM      2  O   UNL     1      -4.131  -8.801   8.781  0.00  0.00    -0.360 OA
ATOM      6  N   UNL     1      -3.400  -8.796   9.962  0.00  0.00    -0.081 NA
ATOM     27  C   UNL     1      -3.384 -10.070  10.364  0.00  0.00    +0.103 A 
ATOM     28  C   UNL     1      -4.083 -10.916   9.485  0.00  0.00    +0.072 A 
ATOM     29  C   UNL     1      -4.532 -10.069   8.507  0.00  0.00    +0.135 A 
ATOM     30  C   UNL     1      -5.322 -10.256   7.284  0.00  0.00    +0.089 C 
ENDBRANCH  23  27
ENDBRANCH   5  23
TORSDOF 6
ENDMDL
MODEL 3
REMARK VINA RESULT:      -7.0      4.127      7.399
REMARK  Name = 51138142
REMARK  9 active torsions:
REMARK  status: ('A' for Active; 'I' for Inactive)
REMARK    1  A    between atoms: N_3  and  C_7
REMARK    2  A    between atoms: N_5  and  C_23
REMARK    3  A    between atoms: C_10  and  C_17
REMARK    4  A    between atoms: C_11  and  C_16
REMARK    5  A    between atoms: C_16  and  C_19
REMARK    6  A    between atoms: C_19  and  C_25
REMARK    7  A    between atoms: C_19  and  C_26
REMARK    8  A    between atoms: C_23  and  C_27
REMARK    9  A    between atoms: C_29  and  C_30
REMARK                            x       y       z     vdW  Elec       q    Type
REMARK                         _______ _______ _______ _____ _____    ______ ____
ROOT
ATOM      4  N   UNL     1      14.049   9.238  18.676  0.00  0.00    -0.299 NA
ATOM      5  N   UNL     1      11.252  10.958  22.514  0.00  0.00    -0.340 N 
ATOM     10  C   UNL     1      13.401  10.501  18.352  0.00  0.00    +0.145 C 
ATOM     11  C   UNL     1      13.128   8.146  19.019  0.00  0.00    +0.085 C 
ATOM     12  C   UNL     1      13.362  11.438  19.558  0.00  0.00    +0.065 C 
ATOM     13  C   UNL     1      12.288   8.350  20.283  0.00  0.00    -0.021 A 
ATOM     14  C   UNL     1      12.078   9.600  20.936  0.00  0.00    +0.008 A 
ATOM     15  C   UNL     1      12.507  10.948  20.677  0.00  0.00    -0.020 A 
ATOM     18  C   UNL     1      11.274   9.653  22.081  0.00  0.00    +0.050 A 
ATOM     20  C   UNL     1      11.985  11.745  21.675  0.00  0.00    +0.091 A 
ATOM     21  C   UNL     1      11.591   7.239  20.822  0.00  0.00    +0.006 A 
ATOM     22  C   UNL     1      10.634   8.538  22.623  0.00  0.00    +0.026 A 
ATOM     24  C   UNL     1      10.797   7.327  21.964  0.00  0.00    +0.002 A 
ATOM     32  H   UNL     1      14.753   9.362  19.404  0.00  0.00    +0.123 HD
ENDROOT
BRANCH  10  17
ATOM      1  O   UNL     1      15.417  11.445  17.486  0.00  0.00    -0.274 OA
ATOM      3  N   UNL     1      13.566  11.279  16.089  0.00  0.00    -0.311 N 
ATOM     17  C   UNL     1      14.252  11.114  17.281  0.00  0.00    +0.231 C 
ATOM     31  H   UNL     1      12.599  10.975  16.013  0.00  0.00    +0.149 HD
BRANCH   3   7
ATOM      7  C   UNL     1      14.167  11.873  14.930  0.00  0.00    +0.073 C 
ATOM      8  C   UNL     1      13.350  12.203  13.716  0.00  0.00    +0.024 C 
ATOM      9  C   UNL     1      13.909  13.307  14.566  0.00  0.00    +0.024 C 
ENDBRANCH   3   7
ENDBRANCH  10  17
BRANCH  11  16
ATOM     16  C   UNL     1      14.021   6.895  19.100  0.00  0.00    +0.026 C 
BRANCH  16  19
ATOM     19  C   UNL     1      15.399   7.182  19.706  0.00  0.00    -0.015 C 
ATOM     25  C   UNL     1      16.425   6.220  19.102  0.00  0.00    +0.007 C 
ATOM     26  C   UNL     1      15.410   7.061  21.230  0.00  0.00    +0.007 C 
ENDBRANCH  16  19
ENDBRANCH  11  16
BRANCH   5  23
ATOM     23  C   UNL     1      10.543  11.447  23.677  0.00  0.00    +0.180 C 
BRANCH  23  27
ATOM      2  O   UNL     1      12.997  12.435  26.130  0.00  0.00    -0.360 OA
ATOM      6  N   UNL     1      12.370  11.489  25.328  0.00  0.00    -0.081 NA
ATOM     27  C   UNL     1      11.433  12.167  24.660  0.00  0.00    +0.103 A 
ATOM     28  C   UNL     1      11.421  13.532  24.996  0.00  0.00    +0.072 A 
ATOM     29  C   UNL     1      12.422  13.648  25.923  0.00  0.00    +0.135 A 
ATOM     30  C   UNL     1      12.966  14.771  26.696  0.00  0.00    +0.089 C 
ENDBRANCH  23  27
ENDBRANCH   5  23
TORSDOF 6
ENDMDL
MODEL 4
REMARK VINA RESULT:      -6.9      2.711      6.995
REMARK  Name = 51138142
REMARK  9 active torsions:
REMARK  status: ('A' for Active; 'I' for Inactive)
REMARK    1  A    between atoms: N_3  and  C_7
REMARK    2  A    between atoms: N_5  and  C_23
REMARK    3  A    between atoms: C_10  and  C_17
REMARK    4  A    between atoms: C_11  and  C_16
REMARK    5  A    between atoms: C_16  and  C_19
REMARK    6  A    between atoms: C_19  and  C_25
REMARK    7  A    between atoms: C_19  and  C_26
REMARK    8  A    between atoms: C_23  and  C_27
REMARK    9  A    between atoms: C_29  and  C_30
REMARK                            x       y       z     vdW  Elec       q    Type
REMARK                         _______ _______ _______ _____ _____    ______ ____
ROOT
ATOM      4  N   UNL     1      14.048   9.070  19.936  0.00  0.00    -0.299 NA
ATOM      5  N   UNL     1      18.764   8.289  21.567  0.00  0.00    -0.340 N 
ATOM     10  C   UNL     1      14.171   9.298  21.369  0.00  0.00    +0.145 C 
ATOM     11  C   UNL     1      14.401   7.713  19.499  0.00  0.00    +0.085 C 
ATOM     12  C   UNL     1      15.504   9.955  21.721  0.00  0.00    +0.065 C 
ATOM     13  C   UNL     1      15.860   7.299  19.713  0.00  0.00    -0.021 A 
ATOM     14  C   UNL     1      16.782   7.959  20.577  0.00  0.00    +0.008 A 
ATOM     15  C   UNL     1      16.692   9.092  21.457  0.00  0.00    -0.020 A 
ATOM     18  C   UNL     1      18.088   7.469  20.693  0.00  0.00    +0.050 A 
ATOM     20  C   UNL     1      17.933   9.264  22.035  0.00  0.00    +0.091 A 
ATOM     21  C   UNL     1      16.334   6.126  19.072  0.00  0.00    +0.006 A 
ATOM     22  C   UNL     1      18.549   6.339  20.018  0.00  0.00    +0.026 A 
ATOM     24  C   UNL     1      17.641   5.665  19.211  0.00  0.00    +0.002 A 
ATOM     32  H   UNL     1      14.567   9.770  19.407  0.00  0.00    +0.123 HD
ENDROOT
BRANCH  10  17
ATOM      1  O   UNL     1      12.198  10.558  20.894  0.00  0.00    -0.274 OA
ATOM      3  N   UNL     1      13.134  10.699  23.017  0.00  0.00    -0.311 N 
ATOM     17  C   UNL     1      13.055  10.237  21.714  0.00  0.00    +0.231 C 
ATOM     31  H   UNL     1      13.882  10.377  23.626  0.00  0.00    +0.149 HD
BRANCH   3   7
ATOM      7  C   UNL     1      12.190  11.631  23.563  0.00  0.00    +0.073 C 
ATOM      8  C   UNL     1      10.953  11.158  24.269  0.00  0.00    +0.024 C 
ATOM      9  C   UNL     1      12.052  11.823  25.045  0.00  0.00    +0.024 C 
ENDBRANCH   3   7
ENDBRANCH  10  17
BRANCH  11  16
ATOM     16  C   UNL     1      13.985   7.662  18.017  0.00  0.00    +0.026 C 
BRANCH  16  19
ATOM     19  C   UNL     1      13.319   8.955  17.538  0.00  0.00    -0.015 C 
ATOM     25  C   UNL     1      11.848   8.677  17.219  0.00  0.00    +0.007 C 
ATOM     26  C   UNL     1      14.009   9.555  16.313  0.00  0.00    +0.007 C 
ENDBRANCH  16  19
ENDBRANCH  11  16
BRANCH   5  23
ATOM     23  C   UNL     1      20.149   8.142  21.960  0.00  0.00    +0.180 C 
BRANCH  23  27
ATOM      2  O   UNL     1      20.446   6.350  25.077  0.00  0.00    -0.360 OA
ATOM      6  N   UNL     1      20.248   6.404  23.703  0.00  0.00    -0.081 NA
ATOM     27  C   UNL     1      20.320   7.701  23.393  0.00  0.00    +0.103 A 
ATOM     28  C   UNL     1      20.559   8.507  24.520  0.00  0.00    +0.072 A 
ATOM     29  C   UNL     1      20.631   7.609  25.551  0.00  0.00    +0.135 A 
ATOM     30  C   UNL     1      20.857   7.737  26.996  0.00  0.00    +0.089 C 
ENDBRANCH  23  27
ENDBRANCH   5  23
TORSDOF 6
ENDMDL
MODEL 5
REMARK VINA RESULT:      -6.9      2.063      4.894
REMARK  Name = 51138142
REMARK  9 active torsions:
REMARK  status: ('A' for Active; 'I' for Inactive)
REMARK    1  A    between atoms: N_3  and  C_7
REMARK    2  A    between atoms: N_5  and  C_23
REMARK    3  A    between atoms: C_10  and  C_17
REMARK    4  A    between atoms: C_11  and  C_16
REMARK    5  A    between atoms: C_16  and  C_19
REMARK    6  A    between atoms: C_19  and  C_25
REMARK    7  A    between atoms: C_19  and  C_26
REMARK    8  A    between atoms: C_23  and  C_27
REMARK    9  A    between atoms: C_29  and  C_30
REMARK                            x       y       z     vdW  Elec       q    Type
REMARK                         _______ _______ _______ _____ _____    ______ ____
ROOT
ATOM      4  N   UNL     1      19.818   8.375  21.873  0.00  0.00    -0.299 NA
ATOM      5  N   UNL     1      15.523   7.502  19.363  0.00  0.00    -0.340 N 
ATOM     10  C   UNL     1      19.259   7.070  22.194  0.00  0.00    +0.145 C 
ATOM     11  C   UNL     1      18.939   9.512  22.180  0.00  0.00    +0.085 C 
ATOM     12  C   UNL     1      18.632   6.411  20.966  0.00  0.00    +0.065 C 
ATOM     13  C   UNL     1      17.630   9.578  21.389  0.00  0.00    -0.021 A 
ATOM     14  C   UNL     1      17.055   8.496  20.661  0.00  0.00    +0.008 A 
ATOM     15  C   UNL     1      17.432   7.126  20.443  0.00  0.00    -0.020 A 
ATOM     18  C   UNL     1      15.841   8.685  19.989  0.00  0.00    +0.050 A 
ATOM     20  C   UNL     1      16.469   6.557  19.634  0.00  0.00    +0.091 A 
ATOM     21  C   UNL     1      16.872  10.776  21.429  0.00  0.00    +0.006 A 
ATOM     22  C   UNL     1      15.134   9.887  20.003  0.00  0.00    +0.026 A 
ATOM     24  C   UNL     1      15.666  10.931  20.749  0.00  0.00    +0.002 A 
ATOM     32  H   UNL     1      20.136   8.412  20.905  0.00  0.00    +0.123 HD
ENDROOT
BRANCH  10  17
ATOM      1  O   UNL     1      20.807   6.254  23.820  0.00  0.00    -0.274 OA
ATOM      3  N   UNL     1      21.006   5.530  21.620  0.00  0.00    -0.311 N 
ATOM     17  C   UNL     1      20.424   6.246  22.652  0.00  0.00    +0.231 C 
ATOM     31  H   UNL     1      20.619   5.587  20.681  0.00  0.00    +0.149 HD
BRANCH   3   7
ATOM      7  C   UNL     1      22.155   4.693  21.814  0.00  0.00    +0.073 C 
ATOM      8  C   UNL     1      22.034   3.352  22.477  0.00  0.00    +0.024 C 
ATOM      9  C   UNL     1      22.350   3.439  21.012  0.00  0.00    +0.024 C 
ENDBRANCH   3   7
ENDBRANCH  10  17
BRANCH  11  16
ATOM     16  C   UNL     1      19.822  10.755  21.966  0.00  0.00    +0.026 C 
BRANCH  16  19
ATOM     19  C   UNL     1      20.477  10.792  20.582  0.00  0.00    -0.015 C 
ATOM     25  C   UNL     1      21.994  10.911  20.746  0.00  0.00    +0.007 C 
ATOM     26  C   UNL     1      19.959  11.940  19.715  0.00  0.00    +0.007 C 
ENDBRANCH  16  19
ENDBRANCH  11  16
BRANCH   5  23
ATOM     23  C   UNL     1      14.350   7.269  18.549  0.00  0.00    +0.180 C 
BRANCH  23  27
ATOM      2  O   UNL     1      10.993   7.897  19.711  0.00  0.00    -0.360 OA
ATOM      6  N   UNL     1      11.992   7.956  18.748  0.00  0.00    -0.081 NA
ATOM     27  C   UNL     1      13.057   7.384  19.318  0.00  0.00    +0.103 A 
ATOM     28  C   UNL     1      12.791   6.949  20.629  0.00  0.00    +0.072 A 
ATOM     29  C   UNL     1      11.481   7.295  20.827  0.00  0.00    +0.135 A 
ATOM     30  C   UNL     1      10.551   7.149  21.952  0.00  0.00    +0.089 C 
ENDBRANCH  23  27
ENDBRANCH   5  23
TORSDOF 6
ENDMDL
MODEL 6
REMARK VINA RESULT:      -6.9     31.199     34.041
REMARK  Name = 51138142
REMARK  9 active torsions:
REMARK  status: ('A' for Active; 'I' for Inactive)
REMARK    1  A    between atoms: N_3  and  C_7
REMARK    2  A    between atoms: N_5  and  C_23
REMARK    3  A    between atoms: C_10  and  C_17
REMARK    4  A    between atoms: C_11  and  C_16
REMARK    5  A    between atoms: C_16  and  C_19
REMARK    6  A    between atoms: C_19  and  C_25
REMARK    7  A    between atoms: C_19  and  C_26
REMARK    8  A    between atoms: C_23  and  C_27
REMARK    9  A    between atoms: C_29  and  C_30
REMARK                            x       y       z     vdW  Elec       q    Type
REMARK                         _______ _______ _______ _____ _____    ______ ____
ROOT
ATOM      4  N   UNL     1     -15.140   2.696  28.905  0.00  0.00    -0.299 NA
ATOM      5  N   UNL     1     -15.875   6.384  32.277  0.00  0.00    -0.340 N 
ATOM     10  C   UNL     1     -16.420   3.361  28.711  0.00  0.00    +0.145 C 
ATOM     11  C   UNL     1     -14.966   2.072  30.223  0.00  0.00    +0.085 C 
ATOM     12  C   UNL     1     -16.319   4.863  28.973  0.00  0.00    +0.065 C 
ATOM     13  C   UNL     1     -14.958   3.026  31.421  0.00  0.00    -0.021 A 
ATOM     14  C   UNL     1     -15.430   4.371  31.401  0.00  0.00    +0.008 A 
ATOM     15  C   UNL     1     -16.019   5.209  30.393  0.00  0.00    -0.020 A 
ATOM     18  C   UNL     1     -15.380   5.136  32.573  0.00  0.00    +0.050 A 
ATOM     20  C   UNL     1     -16.267   6.438  30.971  0.00  0.00    +0.091 A 
ATOM     21  C   UNL     1     -14.525   2.535  32.678  0.00  0.00    +0.006 A 
ATOM     22  C   UNL     1     -14.905   4.647  33.790  0.00  0.00    +0.026 A 
ATOM     24  C   UNL     1     -14.488   3.323  33.827  0.00  0.00    +0.002 A 
ATOM     32  H   UNL     1     -14.364   3.324  28.695  0.00  0.00    +0.123 HD
ENDROOT
BRANCH  10  17
ATOM      1  O   UNL     1     -17.813   2.596  26.927  0.00  0.00    -0.274 OA
ATOM      3  N   UNL     1     -15.768   3.575  26.413  0.00  0.00    -0.311 N 
ATOM     17  C   UNL     1     -16.764   3.137  27.269  0.00  0.00    +0.231 C 
ATOM     31  H   UNL     1     -14.930   4.012  26.789  0.00  0.00    +0.149 HD
BRANCH   3   7
ATOM      7  C   UNL     1     -15.862   3.438  24.988  0.00  0.00    +0.073 C 
ATOM      8  C   UNL     1     -16.572   4.464  24.156  0.00  0.00    +0.024 C 
ATOM      9  C   UNL     1     -15.080   4.328  24.066  0.00  0.00    +0.024 C 
ENDBRANCH   3   7
ENDBRANCH  10  17
BRANCH  11  16
ATOM     16  C   UNL     1     -13.660   1.265  30.103  0.00  0.00    +0.026 C 
BRANCH  16  19
ATOM     19  C   UNL     1     -13.841  -0.219  30.438  0.00  0.00    -0.015 C 
ATOM     25  C   UNL     1     -13.360  -1.064  29.256  0.00  0.00    +0.007 C 
ATOM     26  C   UNL     1     -15.289  -0.576  30.775  0.00  0.00    +0.007 C 
ENDBRANCH  16  19
ENDBRANCH  11  16
BRANCH   5  23
ATOM     23  C   UNL     1     -15.990   7.487  33.207  0.00  0.00    +0.180 C 
BRANCH  23  27
ATOM      2  O   UNL     1     -13.509  10.053  33.733  0.00  0.00    -0.360 OA
ATOM      6  N   UNL     1     -14.805   9.559  33.816  0.00  0.00    -0.081 NA
ATOM     27  C   UNL     1     -14.744   8.336  33.284  0.00  0.00    +0.103 A 
ATOM     28  C   UNL     1     -13.448   8.006  32.851  0.00  0.00    +0.072 A 
ATOM     29  C   UNL     1     -12.710   9.118  33.156  0.00  0.00    +0.135 A 
ATOM     30  C   UNL     1     -11.297   9.478  32.990  0.00  0.00    +0.089 C 
ENDBRANCH  23  27
ENDBRANCH   5  23
TORSDOF 6
ENDMDL
MODEL 7
REMARK VINA RESULT:      -6.6     27.307     30.834
REMARK  Name = 51138142
REMARK  9 active torsions:
REMARK  status: ('A' for Active; 'I' for Inactive)
REMARK    1  A    between atoms: N_3  and  C_7
REMARK    2  A    between atoms: N_5  and  C_23
REMARK    3  A    between atoms: C_10  and  C_17
REMARK    4  A    between atoms: C_11  and  C_16
REMARK    5  A    between atoms: C_16  and  C_19
REMARK    6  A    between atoms: C_19  and  C_25
REMARK    7  A    between atoms: C_19  and  C_26
REMARK    8  A    between atoms: C_23  and  C_27
REMARK    9  A    between atoms: C_29  and  C_30
REMARK                            x       y       z     vdW  Elec       q    Type
REMARK                         _______ _______ _______ _____ _____    ______ ____
ROOT
ATOM      4  N   UNL     1      -4.634 -10.515  14.546  0.00  0.00    -0.299 NA
ATOM      5  N   UNL     1      -8.906  -9.699  17.114  0.00  0.00    -0.340 N 
ATOM     10  C   UNL     1      -5.806 -10.960  13.805  0.00  0.00    +0.145 C 
ATOM     11  C   UNL     1      -4.448 -11.169  15.848  0.00  0.00    +0.085 C 
ATOM     12  C   UNL     1      -6.990 -10.016  14.007  0.00  0.00    +0.065 C 
ATOM     13  C   UNL     1      -5.539 -10.910  16.890  0.00  0.00    -0.021 A 
ATOM     14  C   UNL     1      -6.838 -10.395  16.607  0.00  0.00    +0.008 A 
ATOM     15  C   UNL     1      -7.515  -9.995  15.403  0.00  0.00    -0.020 A 
ATOM     18  C   UNL     1      -7.752 -10.217  17.653  0.00  0.00    +0.050 A 
ATOM     20  C   UNL     1      -8.776  -9.566  15.763  0.00  0.00    +0.091 A 
ATOM     21  C   UNL     1      -5.292 -11.275  18.238  0.00  0.00    +0.006 A 
ATOM     22  C   UNL     1      -7.472 -10.539  18.981  0.00  0.00    +0.026 A 
ATOM     24  C   UNL     1      -6.225 -11.086  19.256  0.00  0.00    +0.002 A 
ATOM     32  H   UNL     1      -4.624  -9.500  14.644  0.00  0.00    +0.123 HD
ENDROOT
BRANCH  10  17
ATOM      1  O   UNL     1      -6.127 -11.341  11.468  0.00  0.00    -0.274 OA
ATOM      3  N   UNL     1      -4.117 -10.421  12.189  0.00  0.00    -0.311 N 
ATOM     17  C   UNL     1      -5.394 -10.928  12.364  0.00  0.00    +0.231 C 
ATOM     31  H   UNL     1      -3.582 -10.103  12.993  0.00  0.00    +0.149 HD
BRANCH   3   7
ATOM      7  C   UNL     1      -3.498 -10.322  10.899  0.00  0.00    +0.073 C 
ATOM      8  C   UNL     1      -3.728  -9.129  10.018  0.00  0.00    +0.024 C 
ATOM      9  C   UNL     1      -2.382  -9.351  10.643  0.00  0.00    +0.024 C 
ENDBRANCH   3   7
ENDBRANCH  10  17
BRANCH  11  16
ATOM     16  C   UNL     1      -3.058 -10.704  16.321  0.00  0.00    +0.026 C 
BRANCH  16  19
ATOM     19  C   UNL     1      -2.046 -10.586  15.178  0.00  0.00    -0.015 C 
ATOM     25  C   UNL     1      -1.713 -11.984  14.652  0.00  0.00    +0.007 C 
ATOM     26  C   UNL     1      -0.761  -9.872  15.599  0.00  0.00    +0.007 C 
ENDBRANCH  16  19
ENDBRANCH  11  16
BRANCH   5  23
ATOM     23  C   UNL     1     -10.101  -9.356  17.855  0.00  0.00    +0.180 C 
BRANCH  23  27
ATOM      2  O   UNL     1     -11.525  -6.374  16.408  0.00  0.00    -0.360 OA
ATOM      6  N   UNL     1     -10.523  -7.053  17.089  0.00  0.00    -0.081 NA
ATOM     27  C   UNL     1     -10.951  -8.316  17.168  0.00  0.00    +0.103 A 
ATOM     28  C   UNL     1     -12.207  -8.492  16.560  0.00  0.00    +0.072 A 
ATOM     29  C   UNL     1     -12.522  -7.242  16.098  0.00  0.00    +0.135 A 
ATOM     30  C   UNL     1     -13.670  -6.687  15.371  0.00  0.00    +0.089 C 
ENDBRANCH  23  27
ENDBRANCH   5  23
TORSDOF 6
ENDMDL
MODEL 8
REMARK VINA RESULT:      -6.6     16.582     19.920
REMARK  Name = 51138142
REMARK  9 active torsions:
REMARK  status: ('A' for Active; 'I' for Inactive)
REMARK    1  A    between atoms: N_3  and  C_7
REMARK    2  A    between atoms: N_5  and  C_23
REMARK    3  A    between atoms: C_10  and  C_17
REMARK    4  A    between atoms: C_11  and  C_16
REMARK    5  A    between atoms: C_16  and  C_19
REMARK    6  A    between atoms: C_19  and  C_25
REMARK    7  A    between atoms: C_19  and  C_26
REMARK    8  A    between atoms: C_23  and  C_27
REMARK    9  A    between atoms: C_29  and  C_30
REMARK                            x       y       z     vdW  Elec       q    Type
REMARK                         _______ _______ _______ _____ _____    ______ ____
ROOT
ATOM      4  N   UNL     1      11.810   6.196   5.495  0.00  0.00    -0.299 NA
ATOM      5  N   UNL     1      12.296   4.283   0.845  0.00  0.00    -0.340 N 
ATOM     10  C   UNL     1      10.518   5.990   4.855  0.00  0.00    +0.145 C 
ATOM     11  C   UNL     1      12.710   7.110   4.780  0.00  0.00    +0.085 C 
ATOM     12  C   UNL     1      10.505   4.716   4.013  0.00  0.00    +0.065 C 
ATOM     13  C   UNL     1      13.167   6.651   3.392  0.00  0.00    -0.021 A 
ATOM     14  C   UNL     1      12.548   5.623   2.623  0.00  0.00    +0.008 A 
ATOM     15  C   UNL     1      11.415   4.764   2.831  0.00  0.00    -0.020 A 
ATOM     18  C   UNL     1      13.058   5.308   1.357  0.00  0.00    +0.050 A 
ATOM     20  C   UNL     1      11.303   3.952   1.720  0.00  0.00    +0.091 A 
ATOM     21  C   UNL     1      14.239   7.339   2.768  0.00  0.00    +0.006 A 
ATOM     22  C   UNL     1      14.144   5.966   0.780  0.00  0.00    +0.026 A 
ATOM     24  C   UNL     1      14.721   7.001   1.505  0.00  0.00    +0.002 A 
ATOM     32  H   UNL     1      12.271   5.307   5.686  0.00  0.00    +0.123 HD
ENDROOT
BRANCH  10  17
ATOM      1  O   UNL     1       8.344   6.083   5.841  0.00  0.00    -0.274 OA
ATOM      3  N   UNL     1      10.149   5.448   7.162  0.00  0.00    -0.311 N 
ATOM     17  C   UNL     1       9.542   5.843   5.982  0.00  0.00    +0.231 C 
ATOM     31  H   UNL     1      11.151   5.273   7.184  0.00  0.00    +0.149 HD
BRANCH   3   7
ATOM      7  C   UNL     1       9.418   5.271   8.384  0.00  0.00    +0.073 C 
ATOM      8  C   UNL     1       9.418   3.954   9.102  0.00  0.00    +0.024 C 
ATOM      9  C   UNL     1      10.124   5.135   9.702  0.00  0.00    +0.024 C 
ENDBRANCH   3   7
ENDBRANCH  10  17
BRANCH  11  16
ATOM     16  C   UNL     1      13.888   7.331   5.746  0.00  0.00    +0.026 C 
BRANCH  16  19
ATOM     19  C   UNL     1      13.980   8.771   6.259  0.00  0.00    -0.015 C 
ATOM     25  C   UNL     1      12.944   9.632   5.532  0.00  0.00    +0.007 C 
ATOM     26  C   UNL     1      15.373   9.374   6.078  0.00  0.00    +0.007 C 
ENDBRANCH  16  19
ENDBRANCH  11  16
BRANCH   5  23
ATOM     23  C   UNL     1      12.492   3.650  -0.441  0.00  0.00    +0.180 C 
BRANCH  23  27
ATOM      2  O   UNL     1       9.792   3.372  -2.817  0.00  0.00    -0.360 OA
ATOM      6  N   UNL     1      10.805   2.828  -2.036  0.00  0.00    -0.081 NA
ATOM     27  C   UNL     1      11.344   3.869  -1.396  0.00  0.00    +0.103 A 
ATOM     28  C   UNL     1      10.720   5.083  -1.729  0.00  0.00    +0.072 A 
ATOM     29  C   UNL     1       9.752   4.716  -2.625  0.00  0.00    +0.135 A 
ATOM     30  C   UNL     1       8.732   5.454  -3.379  0.00  0.00    +0.089 C 
ENDBRANCH  23  27
ENDBRANCH   5  23
TORSDOF 6
ENDMDL
MODEL 9
REMARK VINA RESULT:      -6.4     29.501     30.928
REMARK  Name = 51138142
REMARK  9 active torsions:
REMARK  status: ('A' for Active; 'I' for Inactive)
REMARK    1  A    between atoms: N_3  and  C_7
REMARK    2  A    between atoms: N_5  and  C_23
REMARK    3  A    between atoms: C_10  and  C_17
REMARK    4  A    between atoms: C_11  and  C_16
REMARK    5  A    between atoms: C_16  and  C_19
REMARK    6  A    between atoms: C_19  and  C_25
REMARK    7  A    between atoms: C_19  and  C_26
REMARK    8  A    between atoms: C_23  and  C_27
REMARK    9  A    between atoms: C_29  and  C_30
REMARK                            x       y       z     vdW  Elec       q    Type
REMARK                         _______ _______ _______ _____ _____    ______ ____
ROOT
ATOM      4  N   UNL     1      -4.818 -10.795  14.017  0.00  0.00    -0.299 NA
ATOM      5  N   UNL     1      -7.446  -9.347   9.954  0.00  0.00    -0.340 N 
ATOM     10  C   UNL     1      -5.898  -9.884  14.367  0.00  0.00    +0.145 C 
ATOM     11  C   UNL     1      -3.831 -10.245  13.079  0.00  0.00    +0.085 C 
ATOM     12  C   UNL     1      -7.144 -10.138  13.519  0.00  0.00    +0.065 C 
ATOM     13  C   UNL     1      -4.354  -9.900  11.682  0.00  0.00    -0.021 A 
ATOM     14  C   UNL     1      -5.729  -9.747  11.335  0.00  0.00    +0.008 A 
ATOM     15  C   UNL     1      -6.961  -9.836  12.070  0.00  0.00    -0.020 A 
ATOM     18  C   UNL     1      -6.074  -9.415  10.020  0.00  0.00    +0.050 A 
ATOM     20  C   UNL     1      -7.989  -9.593  11.182  0.00  0.00    +0.091 A 
ATOM     21  C   UNL     1      -3.417  -9.630  10.653  0.00  0.00    +0.006 A 
ATOM     22  C   UNL     1      -5.137  -9.199   9.010  0.00  0.00    +0.026 A 
ATOM     24  C   UNL     1      -3.795  -9.300   9.353  0.00  0.00    +0.002 A 
ATOM     32  H   UNL     1      -5.183 -11.686  13.681  0.00  0.00    +0.123 HD
ENDROOT
BRANCH  10  17
ATOM      1  O   UNL     1      -7.019  -9.511  16.443  0.00  0.00    -0.274 OA
ATOM      3  N   UNL     1      -5.479 -11.246  16.296  0.00  0.00    -0.311 N 
ATOM     17  C   UNL     1      -6.212 -10.180  15.802  0.00  0.00    +0.231 C 
ATOM     31  H   UNL     1      -4.832 -11.742  15.689  0.00  0.00    +0.149 HD
BRANCH   3   7
ATOM      7  C   UNL     1      -5.590 -11.694  17.654  0.00  0.00    +0.073 C 
ATOM      8  C   UNL     1      -4.864 -12.919  18.128  0.00  0.00    +0.024 C 
ATOM      9  C   UNL     1      -4.443 -11.563  18.614  0.00  0.00    +0.024 C 
ENDBRANCH   3   7
ENDBRANCH  10  17
BRANCH  11  16
ATOM     16  C   UNL     1      -2.702 -11.292  13.044  0.00  0.00    +0.026 C 
BRANCH  16  19
ATOM     19  C   UNL     1      -3.223 -12.732  13.029  0.00  0.00    -0.015 C 
ATOM     25  C   UNL     1      -2.366 -13.589  13.964  0.00  0.00    +0.007 C 
ATOM     26  C   UNL     1      -3.228 -13.343  11.627  0.00  0.00    +0.007 C 
ENDBRANCH  16  19
ENDBRANCH  11  16
BRANCH   5  23
ATOM     23  C   UNL     1      -8.219  -9.041   8.770  0.00  0.00    +0.180 C 
BRANCH  23  27
ATOM      2  O   UNL     1      -8.476  -5.476   8.283  0.00  0.00    -0.360 OA
ATOM      6  N   UNL     1      -7.782  -6.678   8.226  0.00  0.00    -0.081 NA
ATOM     27  C   UNL     1      -8.639  -7.594   8.688  0.00  0.00    +0.103 A 
ATOM     28  C   UNL     1      -9.876  -7.033   9.049  0.00  0.00    +0.072 A 
ATOM     29  C   UNL     1      -9.722  -5.701   8.775  0.00  0.00    +0.135 A 
ATOM     30  C   UNL     1     -10.596  -4.528   8.902  0.00  0.00    +0.089 C 
ENDBRANCH  23  27
ENDBRANCH   5  23
TORSDOF 6
ENDMDL
MODEL 10
REMARK VINA RESULT:      -6.4     16.432     20.163
REMARK  Name = 51138142
REMARK  9 active torsions:
REMARK  status: ('A' for Active; 'I' for Inactive)
REMARK    1  A    between atoms: N_3  and  C_7
REMARK    2  A    between atoms: N_5  and  C_23
REMARK    3  A    between atoms: C_10  and  C_17
REMARK    4  A    between atoms: C_11  and  C_16
REMARK    5  A    between atoms: C_16  and  C_19
REMARK    6  A    between atoms: C_19  and  C_25
REMARK    7  A    between atoms: C_19  and  C_26
REMARK    8  A    between atoms: C_23  and  C_27
REMARK    9  A    between atoms: C_29  and  C_30
REMARK                            x       y       z     vdW  Elec       q    Type
REMARK                         _______ _______ _______ _____ _____    ______ ____
ROOT
ATOM      4  N   UNL     1      12.561   6.050   0.749  0.00  0.00    -0.299 NA
ATOM      5  N   UNL     1      11.059   7.376   5.386  0.00  0.00    -0.340 N 
ATOM     10  C   UNL     1      11.572   5.125   1.284  0.00  0.00    +0.145 C 
ATOM     11  C   UNL     1      13.788   6.165   1.548  0.00  0.00    +0.085 C 
ATOM     12  C   UNL     1      10.505   5.854   2.099  0.00  0.00    +0.065 C 
ATOM     13  C   UNL     1      13.618   6.738   2.958  0.00  0.00    -0.021 A 
ATOM     14  C   UNL     1      12.381   6.842   3.658  0.00  0.00    +0.008 A 
ATOM     15  C   UNL     1      11.024   6.484   3.347  0.00  0.00    -0.020 A 
ATOM     18  C   UNL     1      12.364   7.374   4.953  0.00  0.00    +0.050 A 
ATOM     20  C   UNL     1      10.246   6.838   4.431  0.00  0.00    +0.091 A 
ATOM     21  C   UNL     1      14.776   7.132   3.675  0.00  0.00    +0.006 A 
ATOM     22  C   UNL     1      13.511   7.800   5.624  0.00  0.00    +0.026 A 
ATOM     24  C   UNL     1      14.725   7.658   4.964  0.00  0.00    +0.002 A 
ATOM     32  H   UNL     1      12.151   6.968   0.578  0.00  0.00    +0.123 HD
ENDROOT
BRANCH  10  17
ATOM      1  O   UNL     1       9.710   4.394  -0.022  0.00  0.00    -0.274 OA
ATOM      3  N   UNL     1      11.858   4.050  -0.841  0.00  0.00    -0.311 N 
ATOM     17  C   UNL     1      10.930   4.500   0.082  0.00  0.00    +0.231 C 
ATOM     31  H   UNL     1      12.852   4.182  -0.668  0.00  0.00    +0.149 HD
BRANCH   3   7
ATOM      7  C   UNL     1      11.479   3.390  -2.057  0.00  0.00    +0.073 C 
ATOM      8  C   UNL     1      12.498   3.049  -3.104  0.00  0.00    +0.024 C 
ATOM      9  C   UNL     1      11.841   1.956  -2.312  0.00  0.00    +0.024 C 
ENDBRANCH   3   7
ENDBRANCH  10  17
BRANCH  11  16
ATOM     16  C   UNL     1      14.740   7.008   0.679  0.00  0.00    +0.026 C 
BRANCH  16  19
ATOM     19  C   UNL     1      15.526   6.169  -0.333  0.00  0.00    -0.015 C 
ATOM     25  C   UNL     1      15.814   4.792   0.268  0.00  0.00    +0.007 C 
ATOM     26  C   UNL     1      16.836   6.833  -0.759  0.00  0.00    +0.007 C 
ENDBRANCH  16  19
ENDBRANCH  11  16
BRANCH   5  23
ATOM     23  C   UNL     1      10.599   7.855   6.672  0.00  0.00    +0.180 C 
BRANCH  23  27
ATOM      2  O   UNL     1      10.784   4.996   8.865  0.00  0.00    -0.360 OA
ATOM      6  N   UNL     1      11.323   5.855   7.915  0.00  0.00    -0.081 NA
ATOM     27  C   UNL     1      10.361   6.749   7.670  0.00  0.00    +0.103 A 
ATOM     28  C   UNL     1       9.203   6.507   8.430  0.00  0.00    +0.072 A 
ATOM     29  C   UNL     1       9.521   5.396   9.163  0.00  0.00    +0.135 A 
ATOM     30  C   UNL     1       8.799   4.594  10.158  0.00  0.00    +0.089 C 
ENDBRANCH  23  27
ENDBRANCH   5  23
TORSDOF 6
ENDMDL
