REMARK  Name = 56774712
REMARK  13 active torsions:
REMARK  status: ('A' for Active; 'I' for Inactive)
REMARK    1  A    between atoms: O_2  and  C_8
REMARK    2  A    between atoms: N_5  and  C_9
REMARK    3  A    between atoms: N_6  and  C_24
REMARK    4  A    between atoms: C_7  and  C_8
REMARK    5  A    between atoms: C_8  and  C_13
REMARK    6  A    between atoms: C_9  and  C_11
REMARK    7  A    between atoms: C_11  and  C_16
REMARK    8  A    between atoms: C_11  and  C_17
REMARK    9  A    between atoms: C_15  and  C_18
REMARK   10  A    between atoms: C_15  and  C_21
REMARK   11  A    between atoms: C_15  and  C_22
REMARK   12  A    between atoms: C_15  and  C_23
REMARK   13  A    between atoms: C_18  and  C_27
REMARK                            x       y       z     vdW  Elec       q    Type
REMARK                         _______ _______ _______ _____ _____    ______ ____
ROOT
ATOM     13  C   UNL     1      -0.372   0.172   0.875  0.00  0.00    -0.017 A 
ATOM     19  C   UNL     1       0.106   1.337   0.276  0.00  0.00    +0.008 A 
ATOM     20  C   UNL     1       0.523  -0.797   1.330  0.00  0.00    +0.008 A 
ATOM     24  C   UNL     1       2.375   0.565   0.586  0.00  0.00    +0.033 A 
ATOM     25  C   UNL     1       1.480   1.533   0.131  0.00  0.00    +0.023 A 
ATOM     26  C   UNL     1       1.896  -0.601   1.185  0.00  0.00    +0.023 A 
ENDROOT
BRANCH  24   6
ATOM      4  O   UNL     1       4.684  -1.190   1.363  0.00  0.00    -0.275 OA
ATOM      6  N   UNL     1       3.768   0.765   0.439  0.00  0.00    -0.285 N 
ATOM     27  C   UNL     1       4.791  -0.091   0.825  0.00  0.00    +0.218 C 
ATOM     29  H   UNL     1       4.030   1.645   0.001  0.00  0.00    +0.155 HD
BRANCH  27  18
ATOM     18  C   UNL     1       6.167   0.475   0.498  0.00  0.00    +0.102 C 
BRANCH  18  15
ATOM     15  C   UNL     1       6.684   0.142  -0.922  0.00  0.00    -0.029 C 
ATOM     21  C   UNL     1       6.807  -1.378  -1.123  0.00  0.00    +0.011 C 
ATOM     22  C   UNL     1       5.766   0.724  -2.009  0.00  0.00    +0.011 C 
ATOM     23  C   UNL     1       8.083   0.769  -1.080  0.00  0.00    +0.011 C 
ENDBRANCH  18  15
ENDBRANCH  27  18
ENDBRANCH  24   6
BRANCH  13   8
ATOM      8  C   UNL     1      -1.840  -0.039   1.031  0.00  0.00    +0.167 C 
BRANCH   8   7
ATOM      1  O   UNL     1      -2.361  -2.355  -0.693  0.00  0.00    -0.369 OA
ATOM      3  O   UNL     1      -5.784  -1.675   0.235  0.00  0.00    -0.273 OA
ATOM      5  N   UNL     1      -4.030  -0.182  -0.097  0.00  0.00    -0.291 N 
ATOM      7  C   UNL     1      -2.587  -0.007  -0.306  0.00  0.00    +0.135 C 
ATOM     10  C   UNL     1      -2.063  -1.081  -1.252  0.00  0.00    +0.185 C 
ATOM     12  C   UNL     1      -4.621  -1.444  -0.101  0.00  0.00    +0.242 C 
ATOM     14  C   UNL     1      -3.754  -2.573  -0.646  0.00  0.00    +0.255 C 
BRANCH   5   9
ATOM      9  C   UNL     1      -4.799   0.990   0.298  0.00  0.00    +0.111 C 
BRANCH   9  11
ATOM     11  C   UNL     1      -6.039   1.196  -0.579  0.00  0.00    +0.000 C 
ATOM     16  C   UNL     1      -5.623   1.383  -2.039  0.00  0.00    +0.009 C 
ATOM     17  C   UNL     1      -6.866   2.397  -0.114  0.00  0.00    +0.009 C 
ENDBRANCH   9  11
ENDBRANCH   5   9
ENDBRANCH   8   7
BRANCH   8   2
ATOM      2  O   UNL     1      -2.389   0.966   1.891  0.00  0.00    -0.385 OA
ATOM     28  H   UNL     1      -1.789   1.078   2.648  0.00  0.00    +0.210 HD
ENDBRANCH   8   2
ENDBRANCH  13   8
TORSDOF 8
