MODEL 1
REMARK VINA RESULT:      -7.3      0.000      0.000
REMARK  Name = 7164746
REMARK  6 active torsions:
REMARK  status: ('A' for Active; 'I' for Inactive)
REMARK    1  A    between atoms: O_4  and  C_29
REMARK    2  A    between atoms: O_4  and  C_35
REMARK    3  A    between atoms: N_7  and  C_21
REMARK    4  A    between atoms: N_8  and  C_19
REMARK    5  A    between atoms: C_22  and  C_25
REMARK    6  A    between atoms: C_25  and  C_28
REMARK                            x       y       z     vdW  Elec       q    Type
REMARK                         _______ _______ _______ _____ _____    ______ ____
ROOT
ATOM      1  O   UNL     1      12.854   8.269   3.835  0.00  0.00    -0.266 OA
ATOM      2  O   UNL     1       8.656   9.806   6.252  0.00  0.00    -0.252 OA
ATOM      5  N   UNL     1       8.894   7.560   6.743  0.00  0.00    -0.284 N 
ATOM      6  N   UNL     1      11.597   6.915   5.266  0.00  0.00    -0.310 N 
ATOM      7  N   UNL     1       9.634   9.199   8.267  0.00  0.00    -0.269 N 
ATOM      9  C   UNL     1       9.212   6.159   4.715  0.00  0.00    +0.027 C 
ATOM     10  C   UNL     1      10.249   5.489   6.849  0.00  0.00    +0.054 C 
ATOM     11  C   UNL     1       9.543   4.960   5.599  0.00  0.00    +0.018 C 
ATOM     12  C   UNL     1       8.304   7.153   5.465  0.00  0.00    +0.114 C 
ATOM     13  C   UNL     1      10.527   6.808   4.263  0.00  0.00    +0.130 C 
ATOM     14  C   UNL     1       9.297   6.435   7.604  0.00  0.00    +0.119 C 
ATOM     15  C   UNL     1      11.524   6.227   6.482  0.00  0.00    +0.027 A 
ATOM     16  C   UNL     1      12.560   6.253   7.338  0.00  0.00    +0.024 A 
ATOM     17  C   UNL     1      12.736   7.662   4.901  0.00  0.00    +0.273 A 
ATOM     18  C   UNL     1       9.025   8.933   7.042  0.00  0.00    +0.306 C 
ATOM     19  C   UNL     1      13.857   7.686   5.893  0.00  0.00    +0.099 A 
ATOM     20  C   UNL     1      13.748   6.999   7.035  0.00  0.00    +0.030 A 
ATOM     36  H   UNL     1       9.528   8.523   9.014  0.00  0.00    +0.156 HD
ENDROOT
BRANCH   7  21
ATOM     21  C   UNL     1      10.419  10.328   8.609  0.00  0.00    +0.035 A 
ATOM     23  C   UNL     1       9.950  11.243   9.552  0.00  0.00    +0.027 A 
ATOM     24  C   UNL     1      11.659  10.526   8.002  0.00  0.00    +0.027 A 
ATOM     26  C   UNL     1      10.721  12.355   9.889  0.00  0.00    +0.047 A 
ATOM     27  C   UNL     1      12.431  11.639   8.338  0.00  0.00    +0.047 A 
ATOM     29  C   UNL     1      11.962  12.553   9.282  0.00  0.00    +0.120 A 
BRANCH  29   4
ATOM      4  O   UNL     1      12.714  13.638   9.610  0.00  0.00    -0.495 OA
ATOM     35  C   UNL     1      14.120  13.546   9.384  0.00  0.00    +0.277 C 
ENDBRANCH  29   4
ENDBRANCH   7  21
BRANCH  19   8
ATOM      3  O   UNL     1      16.029   6.842   4.231  0.00  0.00    -0.275 OA
ATOM      8  N   UNL     1      14.968   8.413   5.584  0.00  0.00    -0.281 N 
ATOM     22  C   UNL     1      15.993   7.946   4.767  0.00  0.00    +0.222 C 
ATOM     37  H   UNL     1      15.147   9.233   6.159  0.00  0.00    +0.155 HD
BRANCH  22  25
ATOM     25  C   UNL     1      17.089   8.984   4.611  0.00  0.00    +0.131 C 
BRANCH  25  28
ATOM     28  C   UNL     1      18.419   8.535   5.157  0.00  0.00    -0.039 A 
ATOM     30  C   UNL     1      19.282   7.786   4.357  0.00  0.00    +0.004 A 
ATOM     31  C   UNL     1      18.788   8.869   6.460  0.00  0.00    +0.004 A 
ATOM     32  C   UNL     1      20.514   7.369   4.861  0.00  0.00    +0.000 A 
ATOM     33  C   UNL     1      20.020   8.453   6.964  0.00  0.00    +0.000 A 
ATOM     34  C   UNL     1      20.884   7.704   6.165  0.00  0.00    +0.000 A 
ENDBRANCH  25  28
ENDBRANCH  22  25
ENDBRANCH  19   8
TORSDOF 5
ENDMDL
MODEL 2
REMARK VINA RESULT:      -7.2     10.380     13.302
REMARK  Name = 7164746
REMARK  6 active torsions:
REMARK  status: ('A' for Active; 'I' for Inactive)
REMARK    1  A    between atoms: O_4  and  C_29
REMARK    2  A    between atoms: O_4  and  C_35
REMARK    3  A    between atoms: N_7  and  C_21
REMARK    4  A    between atoms: N_8  and  C_19
REMARK    5  A    between atoms: C_22  and  C_25
REMARK    6  A    between atoms: C_25  and  C_28
REMARK                            x       y       z     vdW  Elec       q    Type
REMARK                         _______ _______ _______ _____ _____    ______ ____
ROOT
ATOM      1  O   UNL     1      12.424   9.628  16.975  0.00  0.00    -0.266 OA
ATOM      2  O   UNL     1      10.611   9.007  21.681  0.00  0.00    -0.252 OA
ATOM      5  N   UNL     1      12.794   8.252  21.729  0.00  0.00    -0.284 N 
ATOM      6  N   UNL     1      13.701   8.876  18.781  0.00  0.00    -0.310 N 
ATOM      7  N   UNL     1      12.268  10.426  22.472  0.00  0.00    -0.269 N 
ATOM      9  C   UNL     1      13.289   6.619  19.922  0.00  0.00    +0.027 C 
ATOM     10  C   UNL     1      15.067   8.108  20.756  0.00  0.00    +0.054 C 
ATOM     11  C   UNL     1      14.773   6.688  20.270  0.00  0.00    +0.018 C 
ATOM     12  C   UNL     1      12.425   6.956  21.154  0.00  0.00    +0.114 C 
ATOM     13  C   UNL     1      13.019   7.573  18.751  0.00  0.00    +0.130 C 
ATOM     14  C   UNL     1      14.232   8.393  22.018  0.00  0.00    +0.119 C 
ATOM     15  C   UNL     1      14.742   9.129  19.681  0.00  0.00    +0.027 A 
ATOM     16  C   UNL     1      15.423  10.287  19.620  0.00  0.00    +0.024 A 
ATOM     17  C   UNL     1      13.321   9.813  17.800  0.00  0.00    +0.273 A 
ATOM     18  C   UNL     1      11.794   9.220  21.957  0.00  0.00    +0.306 C 
ATOM     19  C   UNL     1      14.087  11.100  17.782  0.00  0.00    +0.099 A 
ATOM     20  C   UNL     1      15.085  11.290  18.650  0.00  0.00    +0.030 A 
ATOM     36  H   UNL     1      13.101  10.409  23.048  0.00  0.00    +0.156 HD
ENDROOT
BRANCH   7  21
ATOM     21  C   UNL     1      11.721  11.718  22.276  0.00  0.00    +0.035 A 
ATOM     23  C   UNL     1      11.962  12.404  21.085  0.00  0.00    +0.027 A 
ATOM     24  C   UNL     1      10.941  12.304  23.273  0.00  0.00    +0.027 A 
ATOM     26  C   UNL     1      11.424  13.676  20.891  0.00  0.00    +0.047 A 
ATOM     27  C   UNL     1      10.403  13.577  23.079  0.00  0.00    +0.047 A 
ATOM     29  C   UNL     1      10.645  14.263  21.888  0.00  0.00    +0.120 A 
BRANCH  29   4
ATOM      4  O   UNL     1      10.120  15.504  21.699  0.00  0.00    -0.495 OA
ATOM     35  C   UNL     1       8.741  15.578  21.338  0.00  0.00    +0.277 C 
ENDBRANCH  29   4
ENDBRANCH   7  21
BRANCH  19   8
ATOM      3  O   UNL     1      15.099  11.316  15.113  0.00  0.00    -0.275 OA
ATOM      8  N   UNL     1      13.736  12.039  16.858  0.00  0.00    -0.281 N 
ATOM     22  C   UNL     1      14.265  12.092  15.572  0.00  0.00    +0.222 C 
ATOM     37  H   UNL     1      13.242  12.856  17.209  0.00  0.00    +0.155 HD
BRANCH  22  25
ATOM     25  C   UNL     1      13.678  13.248  14.784  0.00  0.00    +0.131 C 
BRANCH  25  28
ATOM     28  C   UNL     1      13.272  12.870  13.383  0.00  0.00    -0.039 A 
ATOM     30  C   UNL     1      14.211  12.908  12.352  0.00  0.00    +0.004 A 
ATOM     31  C   UNL     1      11.959  12.482  13.118  0.00  0.00    +0.004 A 
ATOM     32  C   UNL     1      13.836  12.559  11.055  0.00  0.00    +0.000 A 
ATOM     33  C   UNL     1      11.584  12.132  11.822  0.00  0.00    +0.000 A 
ATOM     34  C   UNL     1      12.522  12.170  10.789  0.00  0.00    +0.000 A 
ENDBRANCH  25  28
ENDBRANCH  22  25
ENDBRANCH  19   8
TORSDOF 5
ENDMDL
MODEL 3
REMARK VINA RESULT:      -7.1      4.042      7.619
REMARK  Name = 7164746
REMARK  6 active torsions:
REMARK  status: ('A' for Active; 'I' for Inactive)
REMARK    1  A    between atoms: O_4  and  C_29
REMARK    2  A    between atoms: O_4  and  C_35
REMARK    3  A    between atoms: N_7  and  C_21
REMARK    4  A    between atoms: N_8  and  C_19
REMARK    5  A    between atoms: C_22  and  C_25
REMARK    6  A    between atoms: C_25  and  C_28
REMARK                            x       y       z     vdW  Elec       q    Type
REMARK                         _______ _______ _______ _____ _____    ______ ____
ROOT
ATOM      1  O   UNL     1       9.471   7.930   2.519  0.00  0.00    -0.266 OA
ATOM      2  O   UNL     1      12.034   9.715   6.528  0.00  0.00    -0.252 OA
ATOM      5  N   UNL     1      10.828   7.899   7.293  0.00  0.00    -0.284 N 
ATOM      6  N   UNL     1       9.475   6.920   4.627  0.00  0.00    -0.310 N 
ATOM      7  N   UNL     1      13.102   7.663   6.717  0.00  0.00    -0.269 N 
ATOM      9  C   UNL     1       8.420   8.016   6.688  0.00  0.00    +0.027 C 
ATOM     10  C   UNL     1       9.532   5.826   6.896  0.00  0.00    +0.054 C 
ATOM     11  C   UNL     1       8.232   6.582   7.174  0.00  0.00    +0.018 C 
ATOM     12  C   UNL     1       9.600   8.687   7.420  0.00  0.00    +0.114 C 
ATOM     13  C   UNL     1       8.625   7.991   5.167  0.00  0.00    +0.130 C 
ATOM     14  C   UNL     1      10.678   6.487   7.685  0.00  0.00    +0.119 C 
ATOM     15  C   UNL     1       9.857   5.829   5.414  0.00  0.00    +0.027 A 
ATOM     16  C   UNL     1      10.543   4.809   4.870  0.00  0.00    +0.024 A 
ATOM     17  C   UNL     1       9.800   6.999   3.257  0.00  0.00    +0.273 A 
ATOM     18  C   UNL     1      12.008   8.520   6.832  0.00  0.00    +0.306 C 
ATOM     19  C   UNL     1      10.587   5.855   2.696  0.00  0.00    +0.099 A 
ATOM     20  C   UNL     1      10.915   4.826   3.484  0.00  0.00    +0.030 A 
ATOM     36  H   UNL     1      13.156   6.866   7.340  0.00  0.00    +0.156 HD
ENDROOT
BRANCH   7  21
ATOM     21  C   UNL     1      14.178   7.763   5.801  0.00  0.00    +0.035 A 
ATOM     23  C   UNL     1      14.019   7.322   4.488  0.00  0.00    +0.027 A 
ATOM     24  C   UNL     1      15.397   8.302   6.213  0.00  0.00    +0.027 A 
ATOM     26  C   UNL     1      15.078   7.419   3.586  0.00  0.00    +0.047 A 
ATOM     27  C   UNL     1      16.457   8.399   5.311  0.00  0.00    +0.047 A 
ATOM     29  C   UNL     1      16.297   7.957   3.997  0.00  0.00    +0.120 A 
BRANCH  29   4
ATOM      4  O   UNL     1      17.331   8.052   3.117  0.00  0.00    -0.495 OA
ATOM     35  C   UNL     1      18.609   8.395   3.651  0.00  0.00    +0.277 C 
ENDBRANCH  29   4
ENDBRANCH   7  21
BRANCH  19   8
ATOM      3  O   UNL     1       9.421   4.330   0.573  0.00  0.00    -0.275 OA
ATOM      8  N   UNL     1      10.936   5.905   1.379  0.00  0.00    -0.281 N 
ATOM     22  C   UNL     1      10.330   5.136   0.391  0.00  0.00    +0.222 C 
ATOM     37  H   UNL     1      11.823   6.355   1.163  0.00  0.00    +0.155 HD
BRANCH  22  25
ATOM     25  C   UNL     1      10.936   5.415  -0.972  0.00  0.00    +0.131 C 
BRANCH  25  28
ATOM     28  C   UNL     1      10.523   4.420  -2.024  0.00  0.00    -0.039 A 
ATOM     30  C   UNL     1       9.473   4.720  -2.892  0.00  0.00    +0.004 A 
ATOM     31  C   UNL     1      11.190   3.200  -2.131  0.00  0.00    +0.004 A 
ATOM     32  C   UNL     1       9.089   3.799  -3.867  0.00  0.00    +0.000 A 
ATOM     33  C   UNL     1      10.808   2.279  -3.106  0.00  0.00    +0.000 A 
ATOM     34  C   UNL     1       9.757   2.578  -3.975  0.00  0.00    +0.000 A 
ENDBRANCH  25  28
ENDBRANCH  22  25
ENDBRANCH  19   8
TORSDOF 5
ENDMDL
MODEL 4
REMARK VINA RESULT:      -7.0      2.978      6.118
REMARK  Name = 7164746
REMARK  6 active torsions:
REMARK  status: ('A' for Active; 'I' for Inactive)
REMARK    1  A    between atoms: O_4  and  C_29
REMARK    2  A    between atoms: O_4  and  C_35
REMARK    3  A    between atoms: N_7  and  C_21
REMARK    4  A    between atoms: N_8  and  C_19
REMARK    5  A    between atoms: C_22  and  C_25
REMARK    6  A    between atoms: C_25  and  C_28
REMARK                            x       y       z     vdW  Elec       q    Type
REMARK                         _______ _______ _______ _____ _____    ______ ____
ROOT
ATOM      1  O   UNL     1      13.719   6.586   7.544  0.00  0.00    -0.266 OA
ATOM      2  O   UNL     1      10.393   3.950   4.748  0.00  0.00    -0.252 OA
ATOM      5  N   UNL     1       9.516   6.079   4.951  0.00  0.00    -0.284 N 
ATOM      6  N   UNL     1      11.803   7.508   6.572  0.00  0.00    -0.310 N 
ATOM      7  N   UNL     1      10.706   5.459   3.012  0.00  0.00    -0.269 N 
ATOM      9  C   UNL     1       9.434   6.867   7.307  0.00  0.00    +0.027 C 
ATOM     10  C   UNL     1       9.755   8.488   5.478  0.00  0.00    +0.054 C 
ATOM     11  C   UNL     1       9.062   8.265   6.823  0.00  0.00    +0.018 C 
ATOM     12  C   UNL     1       8.984   5.801   6.288  0.00  0.00    +0.114 C 
ATOM     13  C   UNL     1      10.948   6.825   7.554  0.00  0.00    +0.130 C 
ATOM     14  C   UNL     1       9.243   7.444   4.468  0.00  0.00    +0.119 C 
ATOM     15  C   UNL     1      11.262   8.374   5.616  0.00  0.00    +0.027 A 
ATOM     16  C   UNL     1      12.071   9.071   4.800  0.00  0.00    +0.024 A 
ATOM     17  C   UNL     1      13.195   7.323   6.706  0.00  0.00    +0.273 A 
ATOM     18  C   UNL     1      10.214   5.068   4.257  0.00  0.00    +0.306 C 
ATOM     19  C   UNL     1      14.059   8.098   5.760  0.00  0.00    +0.099 A 
ATOM     20  C   UNL     1      13.497   8.927   4.875  0.00  0.00    +0.030 A 
ATOM     36  H   UNL     1      10.204   6.175   2.500  0.00  0.00    +0.156 HD
ENDROOT
BRANCH   7  21
ATOM     21  C   UNL     1      11.864   4.974   2.355  0.00  0.00    +0.035 A 
ATOM     23  C   UNL     1      11.912   3.651   1.916  0.00  0.00    +0.027 A 
ATOM     24  C   UNL     1      12.954   5.818   2.149  0.00  0.00    +0.027 A 
ATOM     26  C   UNL     1      13.051   3.172   1.269  0.00  0.00    +0.047 A 
ATOM     27  C   UNL     1      14.094   5.338   1.502  0.00  0.00    +0.047 A 
ATOM     29  C   UNL     1      14.142   4.016   1.062  0.00  0.00    +0.120 A 
BRANCH  29   4
ATOM      4  O   UNL     1      15.254   3.548   0.432  0.00  0.00    -0.495 OA
ATOM     35  C   UNL     1      16.103   4.513  -0.188  0.00  0.00    +0.277 C 
ENDBRANCH  29   4
ENDBRANCH   7  21
BRANCH  19   8
ATOM      3  O   UNL     1      16.002  10.165   6.138  0.00  0.00    -0.275 OA
ATOM      8  N   UNL     1      15.410   7.932   5.847  0.00  0.00    -0.281 N 
ATOM     22  C   UNL     1      16.306   8.980   6.032  0.00  0.00    +0.222 C 
ATOM     37  H   UNL     1      15.775   7.034   5.537  0.00  0.00    +0.155 HD
BRANCH  22  25
ATOM     25  C   UNL     1      17.736   8.477   6.088  0.00  0.00    +0.131 C 
BRANCH  25  28
ATOM     28  C   UNL     1      18.364   8.308   4.729  0.00  0.00    -0.039 A 
ATOM     30  C   UNL     1      17.626   8.594   3.580  0.00  0.00    +0.004 A 
ATOM     31  C   UNL     1      19.683   7.868   4.619  0.00  0.00    +0.004 A 
ATOM     32  C   UNL     1      18.206   8.437   2.322  0.00  0.00    +0.000 A 
ATOM     33  C   UNL     1      20.264   7.713   3.362  0.00  0.00    +0.000 A 
ATOM     34  C   UNL     1      19.526   7.998   2.212  0.00  0.00    +0.000 A 
ENDBRANCH  25  28
ENDBRANCH  22  25
ENDBRANCH  19   8
TORSDOF 5
ENDMDL
MODEL 5
REMARK VINA RESULT:      -6.9     25.307     29.038
REMARK  Name = 7164746
REMARK  6 active torsions:
REMARK  status: ('A' for Active; 'I' for Inactive)
REMARK    1  A    between atoms: O_4  and  C_29
REMARK    2  A    between atoms: O_4  and  C_35
REMARK    3  A    between atoms: N_7  and  C_21
REMARK    4  A    between atoms: N_8  and  C_19
REMARK    5  A    between atoms: C_22  and  C_25
REMARK    6  A    between atoms: C_25  and  C_28
REMARK                            x       y       z     vdW  Elec       q    Type
REMARK                         _______ _______ _______ _____ _____    ______ ____
ROOT
ATOM      1  O   UNL     1      -5.029 -13.652  15.435  0.00  0.00    -0.266 OA
ATOM      2  O   UNL     1      -9.940 -12.412  15.851  0.00  0.00    -0.252 OA
ATOM      5  N   UNL     1      -8.863 -11.369  17.610  0.00  0.00    -0.284 N 
ATOM      6  N   UNL     1      -5.876 -12.174  17.035  0.00  0.00    -0.310 N 
ATOM      7  N   UNL     1      -9.359 -10.175  15.639  0.00  0.00    -0.269 N 
ATOM      9  C   UNL     1      -7.436 -12.923  18.924  0.00  0.00    +0.027 C 
ATOM     10  C   UNL     1      -6.807 -10.549  18.722  0.00  0.00    +0.054 C 
ATOM     11  C   UNL     1      -6.849 -11.737  19.683  0.00  0.00    +0.018 C 
ATOM     12  C   UNL     1      -8.853 -12.595  18.413  0.00  0.00    +0.114 C 
ATOM     13  C   UNL     1      -6.481 -13.288  17.779  0.00  0.00    +0.130 C 
ATOM     14  C   UNL     1      -8.242 -10.211  18.274  0.00  0.00    +0.119 C 
ATOM     15  C   UNL     1      -5.949 -10.859  17.509  0.00  0.00    +0.027 A 
ATOM     16  C   UNL     1      -5.297  -9.872  16.871  0.00  0.00    +0.024 A 
ATOM     17  C   UNL     1      -5.138 -12.508  15.881  0.00  0.00    +0.273 A 
ATOM     18  C   UNL     1      -9.441 -11.387  16.323  0.00  0.00    +0.306 C 
ATOM     19  C   UNL     1      -4.448 -11.376  15.185  0.00  0.00    +0.099 A 
ATOM     20  C   UNL     1      -4.534 -10.139  15.685  0.00  0.00    +0.030 A 
ATOM     36  H   UNL     1      -9.344  -9.318  16.178  0.00  0.00    +0.156 HD
ENDROOT
BRANCH   7  21
ATOM     21  C   UNL     1      -9.280  -9.984  14.237  0.00  0.00    +0.035 A 
ATOM     23  C   UNL     1     -10.445  -9.808  13.491  0.00  0.00    +0.027 A 
ATOM     24  C   UNL     1      -8.038  -9.973  13.603  0.00  0.00    +0.027 A 
ATOM     26  C   UNL     1     -10.369  -9.621  12.111  0.00  0.00    +0.047 A 
ATOM     27  C   UNL     1      -7.961  -9.786  12.222  0.00  0.00    +0.047 A 
ATOM     29  C   UNL     1      -9.126  -9.610  11.477  0.00  0.00    +0.120 A 
BRANCH  29   4
ATOM      4  O   UNL     1      -9.052  -9.427  10.130  0.00  0.00    -0.495 OA
ATOM     35  C   UNL     1      -7.813  -8.950   9.607  0.00  0.00    +0.277 C 
ENDBRANCH  29   4
ENDBRANCH   7  21
BRANCH  19   8
ATOM      3  O   UNL     1      -1.599 -11.517  14.958  0.00  0.00    -0.275 OA
ATOM      8  N   UNL     1      -3.740 -11.657  14.054  0.00  0.00    -0.281 N 
ATOM     22  C   UNL     1      -2.351 -11.712  14.007  0.00  0.00    +0.222 C 
ATOM     37  H   UNL     1      -4.250 -11.599  13.176  0.00  0.00    +0.155 HD
BRANCH  22  25
ATOM     25  C   UNL     1      -1.861 -12.048  12.612  0.00  0.00    +0.131 C 
BRANCH  25  28
ATOM     28  C   UNL     1      -2.578 -11.288  11.527  0.00  0.00    -0.039 A 
ATOM     30  C   UNL     1      -2.308  -9.934  11.329  0.00  0.00    +0.004 A 
ATOM     31  C   UNL     1      -3.512 -11.938  10.720  0.00  0.00    +0.004 A 
ATOM     32  C   UNL     1      -2.972  -9.229  10.326  0.00  0.00    +0.000 A 
ATOM     33  C   UNL     1      -4.176 -11.234   9.716  0.00  0.00    +0.000 A 
ATOM     34  C   UNL     1      -3.906  -9.880   9.518  0.00  0.00    +0.000 A 
ENDBRANCH  25  28
ENDBRANCH  22  25
ENDBRANCH  19   8
TORSDOF 5
ENDMDL
MODEL 6
REMARK VINA RESULT:      -6.8     25.892     28.843
REMARK  Name = 7164746
REMARK  6 active torsions:
REMARK  status: ('A' for Active; 'I' for Inactive)
REMARK    1  A    between atoms: O_4  and  C_29
REMARK    2  A    between atoms: O_4  and  C_35
REMARK    3  A    between atoms: N_7  and  C_21
REMARK    4  A    between atoms: N_8  and  C_19
REMARK    5  A    between atoms: C_22  and  C_25
REMARK    6  A    between atoms: C_25  and  C_28
REMARK                            x       y       z     vdW  Elec       q    Type
REMARK                         _______ _______ _______ _____ _____    ______ ____
ROOT
ATOM      1  O   UNL     1      -5.780 -10.524  13.536  0.00  0.00    -0.266 OA
ATOM      2  O   UNL     1      -6.095 -14.585  10.498  0.00  0.00    -0.252 OA
ATOM      5  N   UNL     1      -5.347 -12.847   9.172  0.00  0.00    -0.284 N 
ATOM      6  N   UNL     1      -5.109 -10.540  11.298  0.00  0.00    -0.310 N 
ATOM      7  N   UNL     1      -3.821 -14.402  10.072  0.00  0.00    -0.269 N 
ATOM      9  C   UNL     1      -6.762 -10.812   9.360  0.00  0.00    +0.027 C 
ATOM     10  C   UNL     1      -4.351 -10.596   8.895  0.00  0.00    +0.054 C 
ATOM     11  C   UNL     1      -5.730 -10.024   8.559  0.00  0.00    +0.018 C 
ATOM     12  C   UNL     1      -6.700 -12.311   9.001  0.00  0.00    +0.114 C 
ATOM     13  C   UNL     1      -6.510 -10.567  10.853  0.00  0.00    +0.130 C 
ATOM     14  C   UNL     1      -4.303 -12.077   8.473  0.00  0.00    +0.119 C 
ATOM     15  C   UNL     1      -4.057 -10.472  10.378  0.00  0.00    +0.027 A 
ATOM     16  C   UNL     1      -2.790 -10.339  10.808  0.00  0.00    +0.024 A 
ATOM     17  C   UNL     1      -4.886 -10.486  12.689  0.00  0.00    +0.273 A 
ATOM     18  C   UNL     1      -5.153 -14.007   9.951  0.00  0.00    +0.306 C 
ATOM     19  C   UNL     1      -3.459 -10.364  13.126  0.00  0.00    +0.099 A 
ATOM     20  C   UNL     1      -2.489 -10.286  12.210  0.00  0.00    +0.030 A 
ATOM     36  H   UNL     1      -3.184 -14.184   9.316  0.00  0.00    +0.156 HD
ENDROOT
BRANCH   7  21
ATOM     21  C   UNL     1      -3.223 -15.083  11.162  0.00  0.00    +0.035 A 
ATOM     23  C   UNL     1      -2.525 -14.365  12.133  0.00  0.00    +0.027 A 
ATOM     24  C   UNL     1      -3.333 -16.469  11.262  0.00  0.00    +0.027 A 
ATOM     26  C   UNL     1      -1.936 -15.035  13.205  0.00  0.00    +0.047 A 
ATOM     27  C   UNL     1      -2.743 -17.139  12.336  0.00  0.00    +0.047 A 
ATOM     29  C   UNL     1      -2.045 -16.422  13.306  0.00  0.00    +0.120 A 
BRANCH  29   4
ATOM      4  O   UNL     1      -1.469 -17.074  14.353  0.00  0.00    -0.495 OA
ATOM     35  C   UNL     1      -2.045 -16.867  15.642  0.00  0.00    +0.277 C 
ENDBRANCH  29   4
ENDBRANCH   7  21
BRANCH  19   8
ATOM      3  O   UNL     1      -3.559 -12.581  14.934  0.00  0.00    -0.275 OA
ATOM      8  N   UNL     1      -3.202 -10.328  14.465  0.00  0.00    -0.281 N 
ATOM     22  C   UNL     1      -3.267 -11.443  15.293  0.00  0.00    +0.222 C 
ATOM     37  H   UNL     1      -3.186  -9.407  14.897  0.00  0.00    +0.155 HD
BRANCH  22  25
ATOM     25  C   UNL     1      -2.927 -11.084  16.728  0.00  0.00    +0.131 C 
BRANCH  25  28
ATOM     28  C   UNL     1      -4.122 -11.093  17.644  0.00  0.00    -0.039 A 
ATOM     30  C   UNL     1      -4.063 -11.777  18.859  0.00  0.00    +0.004 A 
ATOM     31  C   UNL     1      -5.286 -10.417  17.281  0.00  0.00    +0.004 A 
ATOM     32  C   UNL     1      -5.169 -11.787  19.708  0.00  0.00    +0.000 A 
ATOM     33  C   UNL     1      -6.392 -10.424  18.130  0.00  0.00    +0.000 A 
ATOM     34  C   UNL     1      -6.334 -11.109  19.345  0.00  0.00    +0.000 A 
ENDBRANCH  25  28
ENDBRANCH  22  25
ENDBRANCH  19   8
TORSDOF 5
ENDMDL
MODEL 7
REMARK VINA RESULT:      -6.8      3.777      6.209
REMARK  Name = 7164746
REMARK  6 active torsions:
REMARK  status: ('A' for Active; 'I' for Inactive)
REMARK    1  A    between atoms: O_4  and  C_29
REMARK    2  A    between atoms: O_4  and  C_35
REMARK    3  A    between atoms: N_7  and  C_21
REMARK    4  A    between atoms: N_8  and  C_19
REMARK    5  A    between atoms: C_22  and  C_25
REMARK    6  A    between atoms: C_25  and  C_28
REMARK                            x       y       z     vdW  Elec       q    Type
REMARK                         _______ _______ _______ _____ _____    ______ ____
ROOT
ATOM      1  O   UNL     1      10.109   7.609   1.226  0.00  0.00    -0.266 OA
ATOM      2  O   UNL     1      11.660   9.575   5.648  0.00  0.00    -0.252 OA
ATOM      5  N   UNL     1      10.376   7.729   6.181  0.00  0.00    -0.284 N 
ATOM      6  N   UNL     1       9.680   6.643   3.311  0.00  0.00    -0.310 N 
ATOM      7  N   UNL     1      12.727   7.570   6.127  0.00  0.00    -0.269 N 
ATOM      9  C   UNL     1       8.159   7.739   5.057  0.00  0.00    +0.027 C 
ATOM     10  C   UNL     1       9.270   5.599   5.568  0.00  0.00    +0.054 C 
ATOM     11  C   UNL     1       7.916   6.309   5.530  0.00  0.00    +0.018 C 
ATOM     12  C   UNL     1       9.124   8.471   6.011  0.00  0.00    +0.114 C 
ATOM     13  C   UNL     1       8.696   7.691   3.620  0.00  0.00    +0.130 C 
ATOM     14  C   UNL     1      10.190   6.320   6.570  0.00  0.00    +0.119 C 
ATOM     15  C   UNL     1       9.915   5.584   4.194  0.00  0.00    +0.027 A 
ATOM     16  C   UNL     1      10.738   4.581   3.844  0.00  0.00    +0.024 A 
ATOM     17  C   UNL     1      10.298   6.707   2.045  0.00  0.00    +0.273 A 
ATOM     18  C   UNL     1      11.607   8.386   5.974  0.00  0.00    +0.306 C 
ATOM     19  C   UNL     1      11.227   5.584   1.704  0.00  0.00    +0.099 A 
ATOM     20  C   UNL     1      11.406   4.584   2.574  0.00  0.00    +0.030 A 
ATOM     36  H   UNL     1      12.669   6.789   6.769  0.00  0.00    +0.156 HD
ENDROOT
BRANCH   7  21
ATOM     21  C   UNL     1      13.976   7.693   5.469  0.00  0.00    +0.035 A 
ATOM     23  C   UNL     1      15.078   8.204   6.155  0.00  0.00    +0.027 A 
ATOM     24  C   UNL     1      14.103   7.305   4.135  0.00  0.00    +0.027 A 
ATOM     26  C   UNL     1      16.307   8.326   5.507  0.00  0.00    +0.047 A 
ATOM     27  C   UNL     1      15.333   7.427   3.487  0.00  0.00    +0.047 A 
ATOM     29  C   UNL     1      16.434   7.938   4.173  0.00  0.00    +0.120 A 
BRANCH  29   4
ATOM      4  O   UNL     1      17.634   8.058   3.542  0.00  0.00    -0.495 OA
ATOM     35  C   UNL     1      17.639   8.718   2.277  0.00  0.00    +0.277 C 
ENDBRANCH  29   4
ENDBRANCH   7  21
BRANCH  19   8
ATOM      3  O   UNL     1      10.735   3.849  -0.518  0.00  0.00    -0.275 OA
ATOM      8  N   UNL     1      11.857   5.620   0.496  0.00  0.00    -0.281 N 
ATOM     22  C   UNL     1      11.572   4.747  -0.549  0.00  0.00    +0.222 C 
ATOM     37  H   UNL     1      12.718   6.160   0.451  0.00  0.00    +0.155 HD
BRANCH  22  25
ATOM     25  C   UNL     1      12.438   5.038  -1.761  0.00  0.00    +0.131 C 
BRANCH  25  28
ATOM     28  C   UNL     1      13.910   5.076  -1.448  0.00  0.00    -0.039 A 
ATOM     30  C   UNL     1      14.697   6.127  -1.921  0.00  0.00    +0.004 A 
ATOM     31  C   UNL     1      14.488   4.062  -0.684  0.00  0.00    +0.004 A 
ATOM     32  C   UNL     1      16.060   6.162  -1.633  0.00  0.00    +0.000 A 
ATOM     33  C   UNL     1      15.852   4.098  -0.394  0.00  0.00    +0.000 A 
ATOM     34  C   UNL     1      16.638   5.148  -0.868  0.00  0.00    +0.000 A 
ENDBRANCH  25  28
ENDBRANCH  22  25
ENDBRANCH  19   8
TORSDOF 5
ENDMDL
MODEL 8
REMARK VINA RESULT:      -6.7      2.908      6.035
REMARK  Name = 7164746
REMARK  6 active torsions:
REMARK  status: ('A' for Active; 'I' for Inactive)
REMARK    1  A    between atoms: O_4  and  C_29
REMARK    2  A    between atoms: O_4  and  C_35
REMARK    3  A    between atoms: N_7  and  C_21
REMARK    4  A    between atoms: N_8  and  C_19
REMARK    5  A    between atoms: C_22  and  C_25
REMARK    6  A    between atoms: C_25  and  C_28
REMARK                            x       y       z     vdW  Elec       q    Type
REMARK                         _______ _______ _______ _____ _____    ______ ____
ROOT
ATOM      1  O   UNL     1      14.099   6.578   6.892  0.00  0.00    -0.266 OA
ATOM      2  O   UNL     1      10.168   3.899   5.105  0.00  0.00    -0.252 OA
ATOM      5  N   UNL     1       9.324   5.972   5.679  0.00  0.00    -0.284 N 
ATOM      6  N   UNL     1      11.948   7.444   6.601  0.00  0.00    -0.310 N 
ATOM      7  N   UNL     1       9.882   5.490   3.440  0.00  0.00    -0.269 N 
ATOM      9  C   UNL     1       9.941   6.659   7.986  0.00  0.00    +0.027 C 
ATOM     10  C   UNL     1       9.631   8.366   6.236  0.00  0.00    +0.054 C 
ATOM     11  C   UNL     1       9.391   8.056   7.714  0.00  0.00    +0.018 C 
ATOM     12  C   UNL     1       9.237   5.615   7.097  0.00  0.00    +0.114 C 
ATOM     13  C   UNL     1      11.458   6.681   7.758  0.00  0.00    +0.130 C 
ATOM     14  C   UNL     1       8.869   7.340   5.375  0.00  0.00    +0.119 C 
ATOM     15  C   UNL     1      11.110   8.321   5.903  0.00  0.00    +0.027 A 
ATOM     16  C   UNL     1      11.606   9.089   4.917  0.00  0.00    +0.024 A 
ATOM     17  C   UNL     1      13.319   7.322   6.294  0.00  0.00    +0.273 A 
ATOM     18  C   UNL     1       9.810   5.025   4.753  0.00  0.00    +0.306 C 
ATOM     19  C   UNL     1      13.825   8.176   5.173  0.00  0.00    +0.099 A 
ATOM     20  C   UNL     1      12.990   9.011   4.547  0.00  0.00    +0.030 A 
ATOM     36  H   UNL     1       9.224   6.200   3.144  0.00  0.00    +0.156 HD
ENDROOT
BRANCH   7  21
ATOM     21  C   UNL     1      10.799   5.088   2.436  0.00  0.00    +0.035 A 
ATOM     23  C   UNL     1      12.145   5.435   2.544  0.00  0.00    +0.027 A 
ATOM     24  C   UNL     1      10.354   4.347   1.342  0.00  0.00    +0.027 A 
ATOM     26  C   UNL     1      13.048   5.041   1.556  0.00  0.00    +0.047 A 
ATOM     27  C   UNL     1      11.257   3.953   0.353  0.00  0.00    +0.047 A 
ATOM     29  C   UNL     1      12.603   4.300   0.461  0.00  0.00    +0.120 A 
BRANCH  29   4
ATOM      4  O   UNL     1      13.484   3.916  -0.503  0.00  0.00    -0.495 OA
ATOM     35  C   UNL     1      14.383   4.910  -0.995  0.00  0.00    +0.277 C 
ENDBRANCH  29   4
ENDBRANCH   7  21
BRANCH  19   8
ATOM      3  O   UNL     1      15.971   9.766   6.202  0.00  0.00    -0.275 OA
ATOM      8  N   UNL     1      15.142   8.072   4.835  0.00  0.00    -0.281 N 
ATOM     22  C   UNL     1      16.141   8.877   5.372  0.00  0.00    +0.222 C 
ATOM     37  H   UNL     1      15.352   7.539   3.995  0.00  0.00    +0.155 HD
BRANCH  22  25
ATOM     25  C   UNL     1      17.501   8.520   4.800  0.00  0.00    +0.131 C 
BRANCH  25  28
ATOM     28  C   UNL     1      18.647   9.139   5.555  0.00  0.00    -0.039 A 
ATOM     30  C   UNL     1      19.231   8.453   6.620  0.00  0.00    +0.004 A 
ATOM     31  C   UNL     1      19.126  10.397   5.189  0.00  0.00    +0.004 A 
ATOM     32  C   UNL     1      20.293   9.026   7.320  0.00  0.00    +0.000 A 
ATOM     33  C   UNL     1      20.189  10.969   5.887  0.00  0.00    +0.000 A 
ATOM     34  C   UNL     1      20.773  10.284   6.953  0.00  0.00    +0.000 A 
ENDBRANCH  25  28
ENDBRANCH  22  25
ENDBRANCH  19   8
TORSDOF 5
ENDMDL
MODEL 9
REMARK VINA RESULT:      -6.7     11.044     13.631
REMARK  Name = 7164746
REMARK  6 active torsions:
REMARK  status: ('A' for Active; 'I' for Inactive)
REMARK    1  A    between atoms: O_4  and  C_29
REMARK    2  A    between atoms: O_4  and  C_35
REMARK    3  A    between atoms: N_7  and  C_21
REMARK    4  A    between atoms: N_8  and  C_19
REMARK    5  A    between atoms: C_22  and  C_25
REMARK    6  A    between atoms: C_25  and  C_28
REMARK                            x       y       z     vdW  Elec       q    Type
REMARK                         _______ _______ _______ _____ _____    ______ ____
ROOT
ATOM      1  O   UNL     1      13.180  11.993  18.668  0.00  0.00    -0.266 OA
ATOM      2  O   UNL     1      14.739   9.938  23.047  0.00  0.00    -0.252 OA
ATOM      5  N   UNL     1      13.523   8.297  21.964  0.00  0.00    -0.284 N 
ATOM      6  N   UNL     1      12.816   9.764  19.271  0.00  0.00    -0.310 N 
ATOM      7  N   UNL     1      15.877   8.314  21.841  0.00  0.00    -0.269 N 
ATOM      9  C   UNL     1      11.289   9.089  21.215  0.00  0.00    +0.027 C 
ATOM     10  C   UNL     1      12.476   7.354  19.927  0.00  0.00    +0.054 C 
ATOM     11  C   UNL     1      11.100   7.797  20.426  0.00  0.00    +0.018 C 
ATOM     12  C   UNL     1      12.246   8.865  22.403  0.00  0.00    +0.114 C 
ATOM     13  C   UNL     1      11.804  10.172  20.257  0.00  0.00    +0.130 C 
ATOM     14  C   UNL     1      13.389   7.085  21.138  0.00  0.00    +0.119 C 
ATOM     15  C   UNL     1      13.099   8.414  19.037  0.00  0.00    +0.027 A 
ATOM     16  C   UNL     1      13.948   8.061  18.057  0.00  0.00    +0.024 A 
ATOM     17  C   UNL     1      13.411  10.792  18.511  0.00  0.00    +0.273 A 
ATOM     18  C   UNL     1      14.729   8.920  22.349  0.00  0.00    +0.306 C 
ATOM     19  C   UNL     1      14.370  10.357  17.447  0.00  0.00    +0.099 A 
ATOM     20  C   UNL     1      14.595   9.054  17.249  0.00  0.00    +0.030 A 
ATOM     36  H   UNL     1      15.855   7.318  21.659  0.00  0.00    +0.156 HD
ENDROOT
BRANCH   7  21
ATOM     21  C   UNL     1      17.110   8.937  21.527  0.00  0.00    +0.035 A 
ATOM     23  C   UNL     1      18.310   8.270  21.774  0.00  0.00    +0.027 A 
ATOM     24  C   UNL     1      17.124  10.216  20.972  0.00  0.00    +0.027 A 
ATOM     26  C   UNL     1      19.525   8.883  21.466  0.00  0.00    +0.047 A 
ATOM     27  C   UNL     1      18.340  10.830  20.665  0.00  0.00    +0.047 A 
ATOM     29  C   UNL     1      19.539  10.163  20.911  0.00  0.00    +0.120 A 
BRANCH  29   4
ATOM      4  O   UNL     1      20.725  10.760  20.611  0.00  0.00    -0.495 OA
ATOM     35  C   UNL     1      20.705  11.773  19.606  0.00  0.00    +0.277 C 
ENDBRANCH  29   4
ENDBRANCH   7  21
BRANCH  19   8
ATOM      3  O   UNL     1      13.969  10.855  14.657  0.00  0.00    -0.275 OA
ATOM      8  N   UNL     1      14.980  11.323  16.702  0.00  0.00    -0.281 N 
ATOM     22  C   UNL     1      14.742  11.517  15.345  0.00  0.00    +0.222 C 
ATOM     37  H   UNL     1      15.800  11.761  17.114  0.00  0.00    +0.155 HD
BRANCH  22  25
ATOM     25  C   UNL     1      15.568  12.667  14.800  0.00  0.00    +0.131 C 
BRANCH  25  28
ATOM     28  C   UNL     1      17.031  12.564  15.139  0.00  0.00    -0.039 A 
ATOM     30  C   UNL     1      17.844  11.661  14.452  0.00  0.00    +0.004 A 
ATOM     31  C   UNL     1      17.575  13.371  16.138  0.00  0.00    +0.004 A 
ATOM     32  C   UNL     1      19.199  11.565  14.766  0.00  0.00    +0.000 A 
ATOM     33  C   UNL     1      18.931  13.276  16.451  0.00  0.00    +0.000 A 
ATOM     34  C   UNL     1      19.744  12.374  15.765  0.00  0.00    +0.000 A 
ENDBRANCH  25  28
ENDBRANCH  22  25
ENDBRANCH  19   8
TORSDOF 5
ENDMDL
MODEL 10
REMARK VINA RESULT:      -6.7     25.699     29.932
REMARK  Name = 7164746
REMARK  6 active torsions:
REMARK  status: ('A' for Active; 'I' for Inactive)
REMARK    1  A    between atoms: O_4  and  C_29
REMARK    2  A    between atoms: O_4  and  C_35
REMARK    3  A    between atoms: N_7  and  C_21
REMARK    4  A    between atoms: N_8  and  C_19
REMARK    5  A    between atoms: C_22  and  C_25
REMARK    6  A    between atoms: C_25  and  C_28
REMARK                            x       y       z     vdW  Elec       q    Type
REMARK                         _______ _______ _______ _____ _____    ______ ____
ROOT
ATOM      1  O   UNL     1      -3.974 -12.874  16.094  0.00  0.00    -0.266 OA
ATOM      2  O   UNL     1      -8.685 -14.182  17.481  0.00  0.00    -0.252 OA
ATOM      5  N   UNL     1      -8.314 -12.081  18.369  0.00  0.00    -0.284 N 
ATOM      6  N   UNL     1      -5.436 -11.468  17.256  0.00  0.00    -0.310 N 
ATOM      7  N   UNL     1      -9.499 -12.328  16.346  0.00  0.00    -0.269 N 
ATOM      9  C   UNL     1      -6.194 -11.939  19.657  0.00  0.00    +0.027 C 
ATOM     10  C   UNL     1      -7.046  -9.955  18.469  0.00  0.00    +0.054 C 
ATOM     11  C   UNL     1      -6.354 -10.425  19.750  0.00  0.00    +0.018 C 
ATOM     12  C   UNL     1      -7.567 -12.624  19.506  0.00  0.00    +0.114 C 
ATOM     13  C   UNL     1      -5.259 -12.258  18.483  0.00  0.00    +0.130 C 
ATOM     14  C   UNL     1      -8.436 -10.613  18.376  0.00  0.00    +0.119 C 
ATOM     15  C   UNL     1      -6.225 -10.312  17.244  0.00  0.00    +0.027 A 
ATOM     16  C   UNL     1      -6.286  -9.545  16.142  0.00  0.00    +0.024 A 
ATOM     17  C   UNL     1      -4.697 -11.875  16.126  0.00  0.00    +0.273 A 
ATOM     18  C   UNL     1      -8.840 -12.961  17.399  0.00  0.00    +0.306 C 
ATOM     19  C   UNL     1      -4.812 -11.008  14.911  0.00  0.00    +0.099 A 
ATOM     20  C   UNL     1      -5.565  -9.904  14.953  0.00  0.00    +0.030 A 
ATOM     36  H   UNL     1      -9.950 -11.439  16.525  0.00  0.00    +0.156 HD
ENDROOT
BRANCH   7  21
ATOM     21  C   UNL     1      -9.611 -12.781  15.008  0.00  0.00    +0.035 A 
ATOM     23  C   UNL     1     -10.645 -13.646  14.650  0.00  0.00    +0.027 A 
ATOM     24  C   UNL     1      -8.688 -12.363  14.050  0.00  0.00    +0.027 A 
ATOM     26  C   UNL     1     -10.756 -14.092  13.333  0.00  0.00    +0.047 A 
ATOM     27  C   UNL     1      -8.799 -12.810  12.732  0.00  0.00    +0.047 A 
ATOM     29  C   UNL     1      -9.833 -13.675  12.374  0.00  0.00    +0.120 A 
BRANCH  29   4
ATOM      4  O   UNL     1      -9.942 -14.111  11.090  0.00  0.00    -0.495 OA
ATOM     35  C   UNL     1     -11.229 -14.553  10.662  0.00  0.00    +0.277 C 
ENDBRANCH  29   4
ENDBRANCH   7  21
BRANCH  19   8
ATOM      3  O   UNL     1      -2.117 -10.299  14.260  0.00  0.00    -0.275 OA
ATOM      8  N   UNL     1      -4.127 -11.380  13.793  0.00  0.00    -0.281 N 
ATOM     22  C   UNL     1      -2.813 -11.002  13.532  0.00  0.00    +0.222 C 
ATOM     37  H   UNL     1      -4.680 -11.757  13.027  0.00  0.00    +0.155 HD
BRANCH  22  25
ATOM     25  C   UNL     1      -2.329 -11.572  12.213  0.00  0.00    +0.131 C 
BRANCH  25  28
ATOM     28  C   UNL     1      -3.073 -11.034  11.020  0.00  0.00    -0.039 A 
ATOM     30  C   UNL     1      -3.813 -11.898  10.212  0.00  0.00    +0.004 A 
ATOM     31  C   UNL     1      -3.024  -9.672  10.722  0.00  0.00    +0.004 A 
ATOM     32  C   UNL     1      -4.502 -11.400   9.106  0.00  0.00    +0.000 A 
ATOM     33  C   UNL     1      -3.714  -9.174   9.618  0.00  0.00    +0.000 A 
ATOM     34  C   UNL     1      -4.454 -10.037   8.810  0.00  0.00    +0.000 A 
ENDBRANCH  25  28
ENDBRANCH  22  25
ENDBRANCH  19   8
TORSDOF 5
ENDMDL
