MODEL 1
REMARK VINA RESULT:      -6.6      0.000      0.000
REMARK  Name = 45783373
REMARK  8 active torsions:
REMARK  status: ('A' for Active; 'I' for Inactive)
REMARK    1  A    between atoms: O_3  and  C_28
REMARK    2  A    between atoms: O_3  and  C_29
REMARK    3  A    between atoms: N_4  and  C_13
REMARK    4  A    between atoms: N_7  and  C_25
REMARK    5  A    between atoms: C_9  and  C_14
REMARK    6  A    between atoms: C_13  and  C_15
REMARK    7  A    between atoms: C_16  and  C_19
REMARK    8  A    between atoms: C_25  and  C_28
REMARK                            x       y       z     vdW  Elec       q    Type
REMARK                         _______ _______ _______ _____ _____    ______ ____
ROOT
ATOM      2  O   UNL     1      14.625  10.038  22.645  0.00  0.00    -0.336 OA
ATOM      5  N   UNL     1      15.104  10.001  20.458  0.00  0.00    -0.190 NA
ATOM      6  N   UNL     1      15.235   8.800  22.400  0.00  0.00    -0.056 NA
ATOM     14  C   UNL     1      14.588  10.682  21.450  0.00  0.00    +0.245 A 
ATOM     16  C   UNL     1      15.487   8.854  21.090  0.00  0.00    +0.205 A 
ENDROOT
BRANCH  16  19
ATOM      7  N   UNL     1      14.460   7.864  18.633  0.00  0.00    -0.326 N 
ATOM      8  N   UNL     1      16.207   6.274  18.491  0.00  0.00    -0.240 NA
ATOM     19  C   UNL     1      16.120   7.779  20.380  0.00  0.00    +0.062 A 
ATOM     23  C   UNL     1      15.633   7.285  19.181  0.00  0.00    +0.130 A 
ATOM     24  C   UNL     1      17.271   7.200  20.904  0.00  0.00    +0.016 A 
ATOM     26  C   UNL     1      17.890   6.159  20.223  0.00  0.00    +0.020 A 
ATOM     27  C   UNL     1      17.324   5.736  19.031  0.00  0.00    +0.113 A 
ATOM     30  H   UNL     1      14.256   8.814  18.923  0.00  0.00    +0.148 HD
BRANCH   7  25
ATOM     25  C   UNL     1      13.887   7.422  17.405  0.00  0.00    +0.131 C 
BRANCH  25  28
ATOM     28  C   UNL     1      13.583   8.615  16.513  0.00  0.00    +0.178 C 
BRANCH  28   3
ATOM      3  O   UNL     1      12.409   9.268  16.981  0.00  0.00    -0.381 OA
ATOM     29  C   UNL     1      11.310   9.051  16.106  0.00  0.00    +0.194 C 
ENDBRANCH  28   3
ENDBRANCH  25  28
ENDBRANCH   7  25
ENDBRANCH  16  19
BRANCH  14   9
ATOM      4  N   UNL     1      12.729  12.133  22.246  0.00  0.00    -0.287 NA
ATOM      9  C   UNL     1      13.968  12.063  21.446  0.00  0.00    +0.146 C 
ATOM     10  C   UNL     1      14.891  13.132  22.059  0.00  0.00    +0.030 C 
ATOM     11  C   UNL     1      14.066  13.788  23.156  0.00  0.00    +0.017 C 
ATOM     12  C   UNL     1      12.635  13.506  22.743  0.00  0.00    +0.085 C 
BRANCH   4  13
ATOM     13  C   UNL     1      11.540  11.736  21.503  0.00  0.00    +0.120 C 
BRANCH  13  15
ATOM      1 CL   UNL     1      10.739   5.774  21.564  0.00  0.00    -0.084 Cl
ATOM     15  C   UNL     1      11.341  10.244  21.517  0.00  0.00    -0.033 A 
ATOM     17  C   UNL     1      10.991   9.599  22.704  0.00  0.00    +0.006 A 
ATOM     18  C   UNL     1      11.505   9.507  20.345  0.00  0.00    +0.006 A 
ATOM     20  C   UNL     1      10.807   8.216  22.719  0.00  0.00    +0.020 A 
ATOM     21  C   UNL     1      11.319   8.124  20.360  0.00  0.00    +0.020 A 
ATOM     22  C   UNL     1      10.971   7.479  21.546  0.00  0.00    +0.041 A 
ENDBRANCH  13  15
ENDBRANCH   4  13
ENDBRANCH  14   9
TORSDOF 7
ENDMDL
MODEL 2
REMARK VINA RESULT:      -6.4      3.273      6.291
REMARK  Name = 45783373
REMARK  8 active torsions:
REMARK  status: ('A' for Active; 'I' for Inactive)
REMARK    1  A    between atoms: O_3  and  C_28
REMARK    2  A    between atoms: O_3  and  C_29
REMARK    3  A    between atoms: N_4  and  C_13
REMARK    4  A    between atoms: N_7  and  C_25
REMARK    5  A    between atoms: C_9  and  C_14
REMARK    6  A    between atoms: C_13  and  C_15
REMARK    7  A    between atoms: C_16  and  C_19
REMARK    8  A    between atoms: C_25  and  C_28
REMARK                            x       y       z     vdW  Elec       q    Type
REMARK                         _______ _______ _______ _____ _____    ______ ____
ROOT
ATOM      2  O   UNL     1      12.402   8.262  16.474  0.00  0.00    -0.336 OA
ATOM      5  N   UNL     1      13.694   9.670  17.643  0.00  0.00    -0.190 NA
ATOM      6  N   UNL     1      13.028   9.090  15.532  0.00  0.00    -0.056 NA
ATOM     14  C   UNL     1      12.850   8.670  17.689  0.00  0.00    +0.245 A 
ATOM     16  C   UNL     1      13.772   9.893  16.298  0.00  0.00    +0.205 A 
ENDROOT
BRANCH  16  19
ATOM      7  N   UNL     1      13.708  12.552  17.295  0.00  0.00    -0.326 N 
ATOM      8  N   UNL     1      15.356  13.225  15.736  0.00  0.00    -0.240 NA
ATOM     19  C   UNL     1      14.602  10.928  15.754  0.00  0.00    +0.062 A 
ATOM     23  C   UNL     1      14.585  12.230  16.229  0.00  0.00    +0.130 A 
ATOM     24  C   UNL     1      15.468  10.628  14.708  0.00  0.00    +0.016 A 
ATOM     26  C   UNL     1      16.277  11.625  14.175  0.00  0.00    +0.020 A 
ATOM     27  C   UNL     1      16.184  12.896  14.720  0.00  0.00    +0.113 A 
ATOM     30  H   UNL     1      13.427  11.780  17.890  0.00  0.00    +0.148 HD
BRANCH   7  25
ATOM     25  C   UNL     1      13.621  13.864  17.849  0.00  0.00    +0.131 C 
BRANCH  25  28
ATOM     28  C   UNL     1      12.993  13.803  19.232  0.00  0.00    +0.178 C 
BRANCH  28   3
ATOM      3  O   UNL     1      12.813  12.444  19.611  0.00  0.00    -0.381 OA
ATOM     29  C   UNL     1      12.690  12.307  21.020  0.00  0.00    +0.194 C 
ENDBRANCH  28   3
ENDBRANCH  25  28
ENDBRANCH   7  25
ENDBRANCH  16  19
BRANCH  14   9
ATOM      4  N   UNL     1      13.245   7.951  20.039  0.00  0.00    -0.287 NA
ATOM      9  C   UNL     1      12.316   7.921  18.892  0.00  0.00    +0.146 C 
ATOM     10  C   UNL     1      11.005   8.521  19.434  0.00  0.00    +0.030 C 
ATOM     11  C   UNL     1      11.275   8.802  20.905  0.00  0.00    +0.017 C 
ATOM     12  C   UNL     1      12.417   7.866  21.243  0.00  0.00    +0.085 C 
BRANCH   4  13
ATOM     13  C   UNL     1      14.252   6.899  19.991  0.00  0.00    +0.120 C 
BRANCH  13  15
ATOM      1 CL   UNL     1      19.667   8.894  21.691  0.00  0.00    -0.084 Cl
ATOM     15  C   UNL     1      15.606   7.399  20.417  0.00  0.00    -0.033 A 
ATOM     17  C   UNL     1      16.584   6.495  20.835  0.00  0.00    +0.006 A 
ATOM     18  C   UNL     1      15.885   8.765  20.393  0.00  0.00    +0.006 A 
ATOM     20  C   UNL     1      17.838   6.958  21.231  0.00  0.00    +0.020 A 
ATOM     21  C   UNL     1      17.141   9.227  20.788  0.00  0.00    +0.020 A 
ATOM     22  C   UNL     1      18.117   8.324  21.207  0.00  0.00    +0.041 A 
ENDBRANCH  13  15
ENDBRANCH   4  13
ENDBRANCH  14   9
TORSDOF 7
ENDMDL
MODEL 3
REMARK VINA RESULT:      -6.4     16.218     20.632
REMARK  Name = 45783373
REMARK  8 active torsions:
REMARK  status: ('A' for Active; 'I' for Inactive)
REMARK    1  A    between atoms: O_3  and  C_28
REMARK    2  A    between atoms: O_3  and  C_29
REMARK    3  A    between atoms: N_4  and  C_13
REMARK    4  A    between atoms: N_7  and  C_25
REMARK    5  A    between atoms: C_9  and  C_14
REMARK    6  A    between atoms: C_13  and  C_15
REMARK    7  A    between atoms: C_16  and  C_19
REMARK    8  A    between atoms: C_25  and  C_28
REMARK                            x       y       z     vdW  Elec       q    Type
REMARK                         _______ _______ _______ _____ _____    ______ ____
ROOT
ATOM      2  O   UNL     1      11.880   3.032   2.495  0.00  0.00    -0.336 OA
ATOM      5  N   UNL     1      11.964   5.207   1.968  0.00  0.00    -0.190 NA
ATOM      6  N   UNL     1      10.833   3.645   3.197  0.00  0.00    -0.056 NA
ATOM     14  C   UNL     1      12.494   4.022   1.797  0.00  0.00    +0.245 A 
ATOM     16  C   UNL     1      10.948   4.925   2.835  0.00  0.00    +0.205 A 
ENDROOT
BRANCH  16  19
ATOM      7  N   UNL     1      10.126   5.035   5.552  0.00  0.00    -0.326 N 
ATOM      8  N   UNL     1       8.829   6.969   5.129  0.00  0.00    -0.240 NA
ATOM     19  C   UNL     1      10.068   5.948   3.321  0.00  0.00    +0.062 A 
ATOM     23  C   UNL     1       9.658   6.017   4.643  0.00  0.00    +0.130 A 
ATOM     24  C   UNL     1       9.599   6.919   2.442  0.00  0.00    +0.016 A 
ATOM     26  C   UNL     1       8.746   7.914   2.905  0.00  0.00    +0.020 A 
ATOM     27  C   UNL     1       8.394   7.894   4.245  0.00  0.00    +0.113 A 
ATOM     30  H   UNL     1      10.996   4.576   5.302  0.00  0.00    +0.148 HD
BRANCH   7  25
ATOM     25  C   UNL     1       9.758   5.025   6.929  0.00  0.00    +0.131 C 
BRANCH  25  28
ATOM     28  C   UNL     1      10.866   5.643   7.768  0.00  0.00    +0.178 C 
BRANCH  28   3
ATOM      3  O   UNL     1      10.584   5.439   9.147  0.00  0.00    -0.381 OA
ATOM     29  C   UNL     1       9.512   4.524   9.330  0.00  0.00    +0.194 C 
ENDBRANCH  28   3
ENDBRANCH  25  28
ENDBRANCH   7  25
ENDBRANCH  16  19
BRANCH  14   9
ATOM      4  N   UNL     1      13.468   3.904  -0.490  0.00  0.00    -0.287 NA
ATOM      9  C   UNL     1      13.675   3.614   0.942  0.00  0.00    +0.146 C 
ATOM     10  C   UNL     1      14.966   4.367   1.312  0.00  0.00    +0.030 C 
ATOM     11  C   UNL     1      15.443   5.000   0.013  0.00  0.00    +0.017 C 
ATOM     12  C   UNL     1      14.794   4.147  -1.059  0.00  0.00    +0.085 C 
BRANCH   4  13
ATOM     13  C   UNL     1      12.755   2.846  -1.195  0.00  0.00    +0.120 C 
BRANCH  13  15
ATOM      1 CL   UNL     1       7.969   4.955  -4.168  0.00  0.00    -0.084 Cl
ATOM     15  C   UNL     1      11.558   3.375  -1.939  0.00  0.00    -0.033 A 
ATOM     17  C   UNL     1      11.044   2.667  -3.026  0.00  0.00    +0.006 A 
ATOM     18  C   UNL     1      10.962   4.571  -1.541  0.00  0.00    +0.006 A 
ATOM     20  C   UNL     1       9.936   3.157  -3.717  0.00  0.00    +0.020 A 
ATOM     21  C   UNL     1       9.852   5.060  -2.231  0.00  0.00    +0.020 A 
ATOM     22  C   UNL     1       9.339   4.354  -3.319  0.00  0.00    +0.041 A 
ENDBRANCH  13  15
ENDBRANCH   4  13
ENDBRANCH  14   9
TORSDOF 7
ENDMDL
MODEL 4
REMARK VINA RESULT:      -6.3      3.871      6.538
REMARK  Name = 45783373
REMARK  8 active torsions:
REMARK  status: ('A' for Active; 'I' for Inactive)
REMARK    1  A    between atoms: O_3  and  C_28
REMARK    2  A    between atoms: O_3  and  C_29
REMARK    3  A    between atoms: N_4  and  C_13
REMARK    4  A    between atoms: N_7  and  C_25
REMARK    5  A    between atoms: C_9  and  C_14
REMARK    6  A    between atoms: C_13  and  C_15
REMARK    7  A    between atoms: C_16  and  C_19
REMARK    8  A    between atoms: C_25  and  C_28
REMARK                            x       y       z     vdW  Elec       q    Type
REMARK                         _______ _______ _______ _____ _____    ______ ____
ROOT
ATOM      2  O   UNL     1      12.324   8.729  15.963  0.00  0.00    -0.336 OA
ATOM      5  N   UNL     1      13.600  10.009  17.286  0.00  0.00    -0.190 NA
ATOM      6  N   UNL     1      12.927   9.677  15.125  0.00  0.00    -0.056 NA
ATOM     14  C   UNL     1      12.774   8.996  17.216  0.00  0.00    +0.245 A 
ATOM     16  C   UNL     1      13.663  10.395  15.978  0.00  0.00    +0.205 A 
ENDROOT
BRANCH  16  19
ATOM      7  N   UNL     1      12.848  12.146  13.896  0.00  0.00    -0.326 N 
ATOM      8  N   UNL     1      14.829  13.420  14.129  0.00  0.00    -0.240 NA
ATOM     19  C   UNL     1      14.471  11.503  15.558  0.00  0.00    +0.062 A 
ATOM     23  C   UNL     1      14.088  12.368  14.545  0.00  0.00    +0.130 A 
ATOM     24  C   UNL     1      15.691  11.734  16.185  0.00  0.00    +0.016 A 
ATOM     26  C   UNL     1      16.480  12.805  15.785  0.00  0.00    +0.020 A 
ATOM     27  C   UNL     1      16.008  13.612  14.761  0.00  0.00    +0.113 A 
ATOM     30  H   UNL     1      12.154  11.629  14.425  0.00  0.00    +0.148 HD
BRANCH   7  25
ATOM     25  C   UNL     1      12.371  12.983  12.844  0.00  0.00    +0.131 C 
BRANCH  25  28
ATOM     28  C   UNL     1      11.165  12.343  12.177  0.00  0.00    +0.178 C 
BRANCH  28   3
ATOM      3  O   UNL     1      10.338  11.745  13.168  0.00  0.00    -0.381 OA
ATOM     29  C   UNL     1       9.088  12.412  13.275  0.00  0.00    +0.194 C 
ENDBRANCH  28   3
ENDBRANCH  25  28
ENDBRANCH   7  25
ENDBRANCH  16  19
BRANCH  14   9
ATOM      4  N   UNL     1      13.183   8.034  19.475  0.00  0.00    -0.287 NA
ATOM      9  C   UNL     1      12.262   8.097  18.322  0.00  0.00    +0.146 C 
ATOM     10  C   UNL     1      10.927   8.583  18.914  0.00  0.00    +0.030 C 
ATOM     11  C   UNL     1      11.177   8.708  20.410  0.00  0.00    +0.017 C 
ATOM     12  C   UNL     1      12.353   7.783  20.654  0.00  0.00    +0.085 C 
BRANCH   4  13
ATOM     13  C   UNL     1      14.231   7.033  19.320  0.00  0.00    +0.120 C 
BRANCH  13  15
ATOM      1 CL   UNL     1      19.372   8.737  21.937  0.00  0.00    -0.084 Cl
ATOM     15  C   UNL     1      15.517   7.460  19.975  0.00  0.00    -0.033 A 
ATOM     17  C   UNL     1      16.461   6.503  20.347  0.00  0.00    +0.006 A 
ATOM     18  C   UNL     1      15.765   8.812  20.210  0.00  0.00    +0.006 A 
ATOM     20  C   UNL     1      17.653   6.898  20.956  0.00  0.00    +0.020 A 
ATOM     21  C   UNL     1      16.957   9.207  20.818  0.00  0.00    +0.020 A 
ATOM     22  C   UNL     1      17.901   8.250  21.191  0.00  0.00    +0.041 A 
ENDBRANCH  13  15
ENDBRANCH   4  13
ENDBRANCH  14   9
TORSDOF 7
ENDMDL
MODEL 5
REMARK VINA RESULT:      -6.2     27.322     29.169
REMARK  Name = 45783373
REMARK  8 active torsions:
REMARK  status: ('A' for Active; 'I' for Inactive)
REMARK    1  A    between atoms: O_3  and  C_28
REMARK    2  A    between atoms: O_3  and  C_29
REMARK    3  A    between atoms: N_4  and  C_13
REMARK    4  A    between atoms: N_7  and  C_25
REMARK    5  A    between atoms: C_9  and  C_14
REMARK    6  A    between atoms: C_13  and  C_15
REMARK    7  A    between atoms: C_16  and  C_19
REMARK    8  A    between atoms: C_25  and  C_28
REMARK                            x       y       z     vdW  Elec       q    Type
REMARK                         _______ _______ _______ _____ _____    ______ ____
ROOT
ATOM      2  O   UNL     1      -7.327 -10.596  11.380  0.00  0.00    -0.336 OA
ATOM      5  N   UNL     1      -5.979  -9.093  12.350  0.00  0.00    -0.190 NA
ATOM      6  N   UNL     1      -7.114 -11.050  12.688  0.00  0.00    -0.056 NA
ATOM     14  C   UNL     1      -6.624  -9.439  11.264  0.00  0.00    +0.245 A 
ATOM     16  C   UNL     1      -6.310 -10.111  13.196  0.00  0.00    +0.205 A 
ENDROOT
BRANCH  16  19
ATOM      7  N   UNL     1      -7.912  -9.339  15.410  0.00  0.00    -0.326 N 
ATOM      8  N   UNL     1      -6.150  -9.825  16.914  0.00  0.00    -0.240 NA
ATOM     19  C   UNL     1      -5.819 -10.161  14.542  0.00  0.00    +0.062 A 
ATOM     23  C   UNL     1      -6.587  -9.789  15.634  0.00  0.00    +0.130 A 
ATOM     24  C   UNL     1      -4.521 -10.601  14.779  0.00  0.00    +0.016 A 
ATOM     26  C   UNL     1      -4.036 -10.653  16.080  0.00  0.00    +0.020 A 
ATOM     27  C   UNL     1      -4.884 -10.258  17.104  0.00  0.00    +0.113 A 
ATOM     30  H   UNL     1      -8.351  -9.654  14.551  0.00  0.00    +0.148 HD
BRANCH   7  25
ATOM     25  C   UNL     1      -8.776  -8.935  16.471  0.00  0.00    +0.131 C 
BRANCH  25  28
ATOM     28  C   UNL     1     -10.021  -8.274  15.904  0.00  0.00    +0.178 C 
BRANCH  28   3
ATOM      3  O   UNL     1     -10.235  -7.028  16.557  0.00  0.00    -0.381 OA
ATOM     29  C   UNL     1     -10.963  -6.127  15.735  0.00  0.00    +0.194 C 
ENDBRANCH  28   3
ENDBRANCH  25  28
ENDBRANCH   7  25
ENDBRANCH  16  19
BRANCH  14   9
ATOM      4  N   UNL     1      -6.107  -9.542   8.832  0.00  0.00    -0.287 NA
ATOM      9  C   UNL     1      -6.692  -8.738   9.924  0.00  0.00    +0.146 C 
ATOM     10  C   UNL     1      -8.136  -8.457   9.472  0.00  0.00    +0.030 C 
ATOM     11  C   UNL     1      -8.252  -9.089   8.092  0.00  0.00    +0.017 C 
ATOM     12  C   UNL     1      -6.817  -9.159   7.611  0.00  0.00    +0.085 C 
BRANCH   4  13
ATOM     13  C   UNL     1      -4.665  -9.374   8.703  0.00  0.00    +0.120 C 
BRANCH  13  15
ATOM      1 CL   UNL     1      -1.670 -12.367  12.976  0.00  0.00    -0.084 Cl
ATOM     15  C   UNL     1      -3.915 -10.124   9.771  0.00  0.00    -0.033 A 
ATOM     17  C   UNL     1      -2.969  -9.462  10.555  0.00  0.00    +0.006 A 
ATOM     18  C   UNL     1      -4.166 -11.480   9.979  0.00  0.00    +0.006 A 
ATOM     20  C   UNL     1      -2.274 -10.156  11.545  0.00  0.00    +0.020 A 
ATOM     21  C   UNL     1      -3.471 -12.174  10.970  0.00  0.00    +0.020 A 
ATOM     22  C   UNL     1      -2.525 -11.512  11.752  0.00  0.00    +0.041 A 
ENDBRANCH  13  15
ENDBRANCH   4  13
ENDBRANCH  14   9
TORSDOF 7
ENDMDL
MODEL 6
REMARK VINA RESULT:      -6.1     26.003     28.792
REMARK  Name = 45783373
REMARK  8 active torsions:
REMARK  status: ('A' for Active; 'I' for Inactive)
REMARK    1  A    between atoms: O_3  and  C_28
REMARK    2  A    between atoms: O_3  and  C_29
REMARK    3  A    between atoms: N_4  and  C_13
REMARK    4  A    between atoms: N_7  and  C_25
REMARK    5  A    between atoms: C_9  and  C_14
REMARK    6  A    between atoms: C_13  and  C_15
REMARK    7  A    between atoms: C_16  and  C_19
REMARK    8  A    between atoms: C_25  and  C_28
REMARK                            x       y       z     vdW  Elec       q    Type
REMARK                         _______ _______ _______ _____ _____    ______ ____
ROOT
ATOM      2  O   UNL     1      -5.034  -9.632  15.897  0.00  0.00    -0.336 OA
ATOM      5  N   UNL     1      -5.304 -11.520  17.070  0.00  0.00    -0.190 NA
ATOM      6  N   UNL     1      -6.243  -9.490  16.590  0.00  0.00    -0.056 NA
ATOM     14  C   UNL     1      -4.547 -10.853  16.236  0.00  0.00    +0.245 A 
ATOM     16  C   UNL     1      -6.333 -10.643  17.258  0.00  0.00    +0.205 A 
ENDROOT
BRANCH  16  19
ATOM      7  N   UNL     1      -8.649  -9.003  17.384  0.00  0.00    -0.326 N 
ATOM      8  N   UNL     1      -9.629 -10.430  18.996  0.00  0.00    -0.240 NA
ATOM     19  C   UNL     1      -7.437 -10.953  18.120  0.00  0.00    +0.062 A 
ATOM     23  C   UNL     1      -8.574 -10.164  18.193  0.00  0.00    +0.130 A 
ATOM     24  C   UNL     1      -7.380 -12.088  18.921  0.00  0.00    +0.016 A 
ATOM     26  C   UNL     1      -8.445 -12.396  19.759  0.00  0.00    +0.020 A 
ATOM     27  C   UNL     1      -9.537 -11.542  19.760  0.00  0.00    +0.113 A 
ATOM     30  H   UNL     1      -8.071  -9.004  16.549  0.00  0.00    +0.148 HD
BRANCH   7  25
ATOM     25  C   UNL     1      -9.778  -8.131  17.391  0.00  0.00    +0.131 C 
BRANCH  25  28
ATOM     28  C   UNL     1     -10.069  -7.646  15.981  0.00  0.00    +0.178 C 
BRANCH  28   3
ATOM      3  O   UNL     1     -10.496  -6.290  16.026  0.00  0.00    -0.381 OA
ATOM     29  C   UNL     1     -11.578  -6.055  15.135  0.00  0.00    +0.194 C 
ENDBRANCH  28   3
ENDBRANCH  25  28
ENDBRANCH   7  25
ENDBRANCH  16  19
BRANCH  14   9
ATOM      4  N   UNL     1      -3.008 -10.621  14.294  0.00  0.00    -0.287 NA
ATOM      9  C   UNL     1      -3.226 -11.251  15.611  0.00  0.00    +0.146 C 
ATOM     10  C   UNL     1      -2.014 -10.822  16.457  0.00  0.00    +0.030 C 
ATOM     11  C   UNL     1      -1.142 -10.003  15.515  0.00  0.00    +0.017 C 
ATOM     12  C   UNL     1      -1.559 -10.480  14.139  0.00  0.00    +0.085 C 
BRANCH   4  13
ATOM     13  C   UNL     1      -3.607 -11.365  13.193  0.00  0.00    +0.120 C 
BRANCH  13  15
ATOM      1 CL   UNL     1      -6.241  -7.725   9.193  0.00  0.00    -0.084 Cl
ATOM     15  C   UNL     1      -4.267 -10.453  12.194  0.00  0.00    -0.033 A 
ATOM     17  C   UNL     1      -3.596 -10.103  11.021  0.00  0.00    +0.006 A 
ATOM     18  C   UNL     1      -5.548  -9.959  12.438  0.00  0.00    +0.006 A 
ATOM     20  C   UNL     1      -4.206  -9.258  10.094  0.00  0.00    +0.020 A 
ATOM     21  C   UNL     1      -6.158  -9.114  11.510  0.00  0.00    +0.020 A 
ATOM     22  C   UNL     1      -5.487  -8.764  10.338  0.00  0.00    +0.041 A 
ENDBRANCH  13  15
ENDBRANCH   4  13
ENDBRANCH  14   9
TORSDOF 7
ENDMDL
MODEL 7
REMARK VINA RESULT:      -6.0     26.052     28.407
REMARK  Name = 45783373
REMARK  8 active torsions:
REMARK  status: ('A' for Active; 'I' for Inactive)
REMARK    1  A    between atoms: O_3  and  C_28
REMARK    2  A    between atoms: O_3  and  C_29
REMARK    3  A    between atoms: N_4  and  C_13
REMARK    4  A    between atoms: N_7  and  C_25
REMARK    5  A    between atoms: C_9  and  C_14
REMARK    6  A    between atoms: C_13  and  C_15
REMARK    7  A    between atoms: C_16  and  C_19
REMARK    8  A    between atoms: C_25  and  C_28
REMARK                            x       y       z     vdW  Elec       q    Type
REMARK                         _______ _______ _______ _____ _____    ______ ____
ROOT
ATOM      2  O   UNL     1      -7.615 -11.285  14.243  0.00  0.00    -0.336 OA
ATOM      5  N   UNL     1      -6.421  -9.987  15.623  0.00  0.00    -0.190 NA
ATOM      6  N   UNL     1      -6.269 -11.518  13.931  0.00  0.00    -0.056 NA
ATOM     14  C   UNL     1      -7.615 -10.372  15.248  0.00  0.00    +0.245 A 
ATOM     16  C   UNL     1      -5.628 -10.716  14.786  0.00  0.00    +0.205 A 
ENDROOT
BRANCH  16  19
ATOM      7  N   UNL     1      -4.077 -10.292  12.444  0.00  0.00    -0.326 N 
ATOM      8  N   UNL     1      -2.077 -10.317  13.709  0.00  0.00    -0.240 NA
ATOM     19  C   UNL     1      -4.197 -10.620  14.830  0.00  0.00    +0.062 A 
ATOM     23  C   UNL     1      -3.425 -10.412  13.698  0.00  0.00    +0.130 A 
ATOM     24  C   UNL     1      -3.543 -10.735  16.052  0.00  0.00    +0.016 A 
ATOM     26  C   UNL     1      -2.158 -10.642  16.104  0.00  0.00    +0.020 A 
ATOM     27  C   UNL     1      -1.477 -10.434  14.915  0.00  0.00    +0.113 A 
ATOM     30  H   UNL     1      -5.046  -9.994  12.473  0.00  0.00    +0.148 HD
BRANCH   7  25
ATOM     25  C   UNL     1      -3.366 -10.077  11.227  0.00  0.00    +0.131 C 
BRANCH  25  28
ATOM     28  C   UNL     1      -4.208  -9.244  10.274  0.00  0.00    +0.178 C 
BRANCH  28   3
ATOM      3  O   UNL     1      -5.427  -8.883  10.912  0.00  0.00    -0.381 OA
ATOM     29  C   UNL     1      -6.485  -8.748   9.973  0.00  0.00    +0.194 C 
ENDBRANCH  28   3
ENDBRANCH  25  28
ENDBRANCH   7  25
ENDBRANCH  16  19
BRANCH  14   9
ATOM      4  N   UNL     1      -8.904  -9.417  17.151  0.00  0.00    -0.287 NA
ATOM      9  C   UNL     1      -8.970  -9.947  15.775  0.00  0.00    +0.146 C 
ATOM     10  C   UNL     1      -9.601  -8.813  14.947  0.00  0.00    +0.030 C 
ATOM     11  C   UNL     1      -9.909  -7.712  15.952  0.00  0.00    +0.017 C 
ATOM     12  C   UNL     1      -9.995  -8.449  17.273  0.00  0.00    +0.085 C 
BRANCH   4  13
ATOM     13  C   UNL     1      -8.974 -10.455  18.172  0.00  0.00    +0.120 C 
BRANCH  13  15
ATOM      1 CL   UNL     1      -3.518 -12.496  19.671  0.00  0.00    -0.084 Cl
ATOM     15  C   UNL     1      -7.610 -10.965  18.548  0.00  0.00    -0.033 A 
ATOM     17  C   UNL     1      -7.226 -12.258  18.191  0.00  0.00    +0.006 A 
ATOM     18  C   UNL     1      -6.728 -10.145  19.252  0.00  0.00    +0.006 A 
ATOM     20  C   UNL     1      -5.961 -12.732  18.540  0.00  0.00    +0.020 A 
ATOM     21  C   UNL     1      -5.462 -10.620  19.600  0.00  0.00    +0.020 A 
ATOM     22  C   UNL     1      -5.079 -11.913  19.244  0.00  0.00    +0.041 A 
ENDBRANCH  13  15
ENDBRANCH   4  13
ENDBRANCH  14   9
TORSDOF 7
ENDMDL
MODEL 8
REMARK VINA RESULT:      -6.0      3.013      7.207
REMARK  Name = 45783373
REMARK  8 active torsions:
REMARK  status: ('A' for Active; 'I' for Inactive)
REMARK    1  A    between atoms: O_3  and  C_28
REMARK    2  A    between atoms: O_3  and  C_29
REMARK    3  A    between atoms: N_4  and  C_13
REMARK    4  A    between atoms: N_7  and  C_25
REMARK    5  A    between atoms: C_9  and  C_14
REMARK    6  A    between atoms: C_13  and  C_15
REMARK    7  A    between atoms: C_16  and  C_19
REMARK    8  A    between atoms: C_25  and  C_28
REMARK                            x       y       z     vdW  Elec       q    Type
REMARK                         _______ _______ _______ _____ _____    ______ ____
ROOT
ATOM      2  O   UNL     1      12.299  11.342  20.642  0.00  0.00    -0.336 OA
ATOM      5  N   UNL     1      12.460  10.240  22.585  0.00  0.00    -0.190 NA
ATOM      6  N   UNL     1      12.589  12.308  21.615  0.00  0.00    -0.056 NA
ATOM     14  C   UNL     1      12.242  10.154  21.297  0.00  0.00    +0.245 A 
ATOM     16  C   UNL     1      12.667  11.581  22.733  0.00  0.00    +0.205 A 
ENDROOT
BRANCH  16  19
ATOM      7  N   UNL     1      11.027  13.608  23.861  0.00  0.00    -0.326 N 
ATOM      8  N   UNL     1      12.403  13.716  25.784  0.00  0.00    -0.240 NA
ATOM     19  C   UNL     1      12.951  12.162  24.014  0.00  0.00    +0.062 A 
ATOM     23  C   UNL     1      12.161  13.150  24.579  0.00  0.00    +0.130 A 
ATOM     24  C   UNL     1      14.059  11.724  24.731  0.00  0.00    +0.016 A 
ATOM     26  C   UNL     1      14.340  12.281  25.973  0.00  0.00    +0.020 A 
ATOM     27  C   UNL     1      13.489  13.265  26.451  0.00  0.00    +0.113 A 
ATOM     30  H   UNL     1      10.642  12.962  23.180  0.00  0.00    +0.148 HD
BRANCH   7  25
ATOM     25  C   UNL     1      10.157  14.620  24.362  0.00  0.00    +0.131 C 
BRANCH  25  28
ATOM     28  C   UNL     1       9.051  14.899  23.358  0.00  0.00    +0.178 C 
BRANCH  28   3
ATOM      3  O   UNL     1       9.517  14.604  22.047  0.00  0.00    -0.381 OA
ATOM     29  C   UNL     1       8.664  15.157  21.054  0.00  0.00    +0.194 C 
ENDBRANCH  28   3
ENDBRANCH  25  28
ENDBRANCH   7  25
ENDBRANCH  16  19
BRANCH  14   9
ATOM      4  N   UNL     1      13.070   7.983  20.405  0.00  0.00    -0.287 NA
ATOM      9  C   UNL     1      11.940   8.932  20.455  0.00  0.00    +0.146 C 
ATOM     10  C   UNL     1      10.760   8.108  21.001  0.00  0.00    +0.030 C 
ATOM     11  C   UNL     1      11.306   6.698  21.173  0.00  0.00    +0.017 C 
ATOM     12  C   UNL     1      12.486   6.654  20.223  0.00  0.00    +0.085 C 
BRANCH   4  13
ATOM     13  C   UNL     1      14.044   8.301  19.368  0.00  0.00    +0.120 C 
BRANCH  13  15
ATOM      1 CL   UNL     1      19.433   5.901  20.548  0.00  0.00    -0.084 Cl
ATOM     15  C   UNL     1      15.392   7.701  19.662  0.00  0.00    -0.033 A 
ATOM     17  C   UNL     1      16.211   8.269  20.639  0.00  0.00    +0.006 A 
ATOM     18  C   UNL     1      15.823   6.575  18.959  0.00  0.00    +0.006 A 
ATOM     20  C   UNL     1      17.461   7.714  20.911  0.00  0.00    +0.020 A 
ATOM     21  C   UNL     1      17.074   6.020  19.233  0.00  0.00    +0.020 A 
ATOM     22  C   UNL     1      17.892   6.589  20.208  0.00  0.00    +0.041 A 
ENDBRANCH  13  15
ENDBRANCH   4  13
ENDBRANCH  14   9
TORSDOF 7
ENDMDL
MODEL 9
REMARK VINA RESULT:      -5.9     25.590     28.085
REMARK  Name = 45783373
REMARK  8 active torsions:
REMARK  status: ('A' for Active; 'I' for Inactive)
REMARK    1  A    between atoms: O_3  and  C_28
REMARK    2  A    between atoms: O_3  and  C_29
REMARK    3  A    between atoms: N_4  and  C_13
REMARK    4  A    between atoms: N_7  and  C_25
REMARK    5  A    between atoms: C_9  and  C_14
REMARK    6  A    between atoms: C_13  and  C_15
REMARK    7  A    between atoms: C_16  and  C_19
REMARK    8  A    between atoms: C_25  and  C_28
REMARK                            x       y       z     vdW  Elec       q    Type
REMARK                         _______ _______ _______ _____ _____    ______ ____
ROOT
ATOM      2  O   UNL     1     -11.742   6.782  20.835  0.00  0.00    -0.336 OA
ATOM      5  N   UNL     1     -13.938   7.212  20.929  0.00  0.00    -0.190 NA
ATOM      6  N   UNL     1     -12.310   5.752  21.598  0.00  0.00    -0.056 NA
ATOM     14  C   UNL     1     -12.770   7.597  20.481  0.00  0.00    +0.245 A 
ATOM     16  C   UNL     1     -13.606   6.076  21.608  0.00  0.00    +0.205 A 
ENDROOT
BRANCH  16  19
ATOM      7  N   UNL     1     -16.034   5.302  20.354  0.00  0.00    -0.326 N 
ATOM      8  N   UNL     1     -16.732   4.161  22.306  0.00  0.00    -0.240 NA
ATOM     19  C   UNL     1     -14.594   5.289  22.288  0.00  0.00    +0.062 A 
ATOM     23  C   UNL     1     -15.783   4.902  21.691  0.00  0.00    +0.130 A 
ATOM     24  C   UNL     1     -14.363   4.888  23.599  0.00  0.00    +0.016 A 
ATOM     26  C   UNL     1     -15.314   4.125  24.265  0.00  0.00    +0.020 A 
ATOM     27  C   UNL     1     -16.472   3.791  23.580  0.00  0.00    +0.113 A 
ATOM     30  H   UNL     1     -15.217   5.514  19.792  0.00  0.00    +0.148 HD
BRANCH   7  25
ATOM     25  C   UNL     1     -17.229   4.952  19.659  0.00  0.00    +0.131 C 
BRANCH  25  28
ATOM     28  C   UNL     1     -17.357   5.785  18.394  0.00  0.00    +0.178 C 
BRANCH  28   3
ATOM      3  O   UNL     1     -16.458   6.886  18.459  0.00  0.00    -0.381 OA
ATOM     29  C   UNL     1     -16.668   7.793  17.386  0.00  0.00    +0.194 C 
ENDBRANCH  28   3
ENDBRANCH  25  28
ENDBRANCH   7  25
ENDBRANCH  16  19
BRANCH  14   9
ATOM      4  N   UNL     1     -11.882   9.921  20.441  0.00  0.00    -0.287 NA
ATOM      9  C   UNL     1     -12.414   8.803  19.638  0.00  0.00    +0.146 C 
ATOM     10  C   UNL     1     -11.313   8.503  18.604  0.00  0.00    +0.030 C 
ATOM     11  C   UNL     1     -10.230   9.540  18.866  0.00  0.00    +0.017 C 
ATOM     12  C   UNL     1     -10.970  10.661  19.566  0.00  0.00    +0.085 C 
BRANCH   4  13
ATOM     13  C   UNL     1     -12.922  10.777  20.998  0.00  0.00    +0.120 C 
BRANCH  13  15
ATOM      1 CL   UNL     1     -13.187  10.375  26.994  0.00  0.00    -0.084 Cl
ATOM     15  C   UNL     1     -12.988  10.675  22.498  0.00  0.00    -0.033 A 
ATOM     17  C   UNL     1     -11.979  11.237  23.281  0.00  0.00    +0.006 A 
ATOM     18  C   UNL     1     -14.059  10.020  23.106  0.00  0.00    +0.006 A 
ATOM     20  C   UNL     1     -12.040  11.143  24.671  0.00  0.00    +0.020 A 
ATOM     21  C   UNL     1     -14.120   9.927  24.497  0.00  0.00    +0.020 A 
ATOM     22  C   UNL     1     -13.111  10.488  25.279  0.00  0.00    +0.041 A 
ENDBRANCH  13  15
ENDBRANCH   4  13
ENDBRANCH  14   9
TORSDOF 7
ENDMDL
MODEL 10
REMARK VINA RESULT:      -5.8     26.314     28.716
REMARK  Name = 45783373
REMARK  8 active torsions:
REMARK  status: ('A' for Active; 'I' for Inactive)
REMARK    1  A    between atoms: O_3  and  C_28
REMARK    2  A    between atoms: O_3  and  C_29
REMARK    3  A    between atoms: N_4  and  C_13
REMARK    4  A    between atoms: N_7  and  C_25
REMARK    5  A    between atoms: C_9  and  C_14
REMARK    6  A    between atoms: C_13  and  C_15
REMARK    7  A    between atoms: C_16  and  C_19
REMARK    8  A    between atoms: C_25  and  C_28
REMARK                            x       y       z     vdW  Elec       q    Type
REMARK                         _______ _______ _______ _____ _____    ______ ____
ROOT
ATOM      2  O   UNL     1      -5.999 -12.505  17.677  0.00  0.00    -0.336 OA
ATOM      5  N   UNL     1      -5.339 -10.398  17.301  0.00  0.00    -0.190 NA
ATOM      6  N   UNL     1      -4.895 -12.589  16.818  0.00  0.00    -0.056 NA
ATOM     14  C   UNL     1      -6.192 -11.181  17.911  0.00  0.00    +0.245 A 
ATOM     16  C   UNL     1      -4.563 -11.307  16.642  0.00  0.00    +0.205 A 
ENDROOT
BRANCH  16  19
ATOM      7  N   UNL     1      -4.883 -10.780  13.869  0.00  0.00    -0.326 N 
ATOM      8  N   UNL     1      -2.585 -10.252  13.658  0.00  0.00    -0.240 NA
ATOM     19  C   UNL     1      -3.464 -10.900  15.815  0.00  0.00    +0.062 A 
ATOM     23  C   UNL     1      -3.602 -10.637  14.461  0.00  0.00    +0.130 A 
ATOM     24  C   UNL     1      -2.202 -10.755  16.381  0.00  0.00    +0.016 A 
ATOM     26  C   UNL     1      -1.132 -10.360  15.587  0.00  0.00    +0.020 A 
ATOM     27  C   UNL     1      -1.374 -10.123  14.243  0.00  0.00    +0.113 A 
ATOM     30  H   UNL     1      -5.675 -10.697  14.497  0.00  0.00    +0.148 HD
BRANCH   7  25
ATOM     25  C   UNL     1      -5.121 -10.532  12.485  0.00  0.00    +0.131 C 
BRANCH  25  28
ATOM     28  C   UNL     1      -6.100  -9.381  12.324  0.00  0.00    +0.178 C 
BRANCH  28   3
ATOM      3  O   UNL     1      -5.798  -8.666  11.132  0.00  0.00    -0.381 OA
ATOM     29  C   UNL     1      -4.452  -8.875  10.726  0.00  0.00    +0.194 C 
ENDBRANCH  28   3
ENDBRANCH  25  28
ENDBRANCH   7  25
ENDBRANCH  16  19
BRANCH  14   9
ATOM      4  N   UNL     1      -8.539 -10.370  18.086  0.00  0.00    -0.287 NA
ATOM      9  C   UNL     1      -7.343 -10.819  18.826  0.00  0.00    +0.146 C 
ATOM     10  C   UNL     1      -7.830 -12.011  19.671  0.00  0.00    +0.030 C 
ATOM     11  C   UNL     1      -9.320 -12.118  19.385  0.00  0.00    +0.017 C 
ATOM     12  C   UNL     1      -9.694 -10.728  18.911  0.00  0.00    +0.085 C 
BRANCH   4  13
ATOM     13  C   UNL     1      -8.516  -8.949  17.763  0.00  0.00    +0.120 C 
BRANCH  13  15
ATOM      1 CL   UNL     1     -12.590  -7.544  13.566  0.00  0.00    -0.084 Cl
ATOM     15  C   UNL     1      -9.535  -8.596  16.713  0.00  0.00    -0.033 A 
ATOM     17  C   UNL     1      -9.501  -9.227  15.469  0.00  0.00    +0.006 A 
ATOM     18  C   UNL     1     -10.513  -7.640  16.983  0.00  0.00    +0.006 A 
ATOM     20  C   UNL     1     -10.445  -8.900  14.495  0.00  0.00    +0.020 A 
ATOM     21  C   UNL     1     -11.457  -7.314  16.009  0.00  0.00    +0.020 A 
ATOM     22  C   UNL     1     -11.423  -7.944  14.765  0.00  0.00    +0.041 A 
ENDBRANCH  13  15
ENDBRANCH   4  13
ENDBRANCH  14   9
TORSDOF 7
ENDMDL
