MODEL 1
REMARK VINA RESULT:      -7.4      0.000      0.000
REMARK  Name = 26743264
REMARK  13 active torsions:
REMARK  status: ('A' for Active; 'I' for Inactive)
REMARK    1  A    between atoms: N_5  and  C_19
REMARK    2  A    between atoms: N_7  and  C_23
REMARK    3  A    between atoms: C_8  and  C_14
REMARK    4  A    between atoms: C_9  and  C_13
REMARK    5  A    between atoms: C_13  and  C_15
REMARK    6  A    between atoms: C_14  and  C_16
REMARK    7  A    between atoms: C_18  and  C_21
REMARK    8  A    between atoms: C_19  and  C_23
REMARK    9  A    between atoms: C_20  and  C_22
REMARK   10  A    between atoms: C_20  and  C_28
REMARK   11  A    between atoms: C_20  and  C_29
REMARK   12  A    between atoms: C_20  and  C_30
REMARK   13  A    between atoms: C_31  and  C_32
REMARK                            x       y       z     vdW  Elec       q    Type
REMARK                         _______ _______ _______ _____ _____    ______ ____
ROOT
ATOM      4  N   UNL     1      13.451   9.298  15.274  0.00  0.00    -0.316 NA
ATOM      8  C   UNL     1      14.387  10.135  17.944  0.00  0.00    +0.004 C 
ATOM      9  C   UNL     1      14.058   8.663  17.596  0.00  0.00    +0.012 C 
ATOM     10  C   UNL     1      14.746  10.888  16.652  0.00  0.00    +0.019 C 
ATOM     11  C   UNL     1      13.021   8.565  16.465  0.00  0.00    +0.085 C 
ATOM     12  C   UNL     1      13.690  10.711  15.562  0.00  0.00    +0.081 C 
ATOM     33  H   UNL     1      12.736   9.217  14.551  0.00  0.00    +0.122 HD
ENDROOT
BRANCH   9  13
ATOM     13  C   UNL     1      13.610   7.846  18.809  0.00  0.00    +0.064 C 
BRANCH  13  15
ATOM      1  O   UNL     1      15.899   7.016  21.460  0.00  0.00    -0.354 OA
ATOM      6  N   UNL     1      14.656   7.421  20.991  0.00  0.00    -0.083 NA
ATOM     15  C   UNL     1      14.778   7.446  19.661  0.00  0.00    +0.085 A 
ATOM     17  C   UNL     1      16.064   7.068  19.237  0.00  0.00    +0.076 A 
ATOM     18  C   UNL     1      16.730   6.808  20.406  0.00  0.00    +0.167 A 
BRANCH  18  21
ATOM     21  C   UNL     1      18.059   6.382  20.736  0.00  0.00    +0.020 A 
ATOM     22  C   UNL     1      20.643   5.551  21.381  0.00  0.00    -0.042 A 
ATOM     24  C   UNL     1      18.702   6.910  21.856  0.00  0.00    +0.012 A 
ATOM     25  C   UNL     1      18.707   5.439  19.939  0.00  0.00    +0.012 A 
ATOM     26  C   UNL     1      19.994   6.495  22.177  0.00  0.00    +0.005 A 
ATOM     27  C   UNL     1      19.999   5.024  20.261  0.00  0.00    +0.005 A 
BRANCH  22  20
ATOM     20  C   UNL     1      22.024   5.108  21.725  0.00  0.00    -0.013 C 
ATOM     28  C   UNL     1      22.959   5.150  20.477  0.00  0.00    +0.015 C 
ATOM     29  C   UNL     1      22.030   3.646  22.269  0.00  0.00    +0.015 C 
ATOM     30  C   UNL     1      22.750   5.961  22.818  0.00  0.00    +0.015 C 
ENDBRANCH  22  20
ENDBRANCH  18  21
ENDBRANCH  13  15
ENDBRANCH   9  13
BRANCH   8  14
ATOM     14  C   UNL     1      13.272  10.859  18.706  0.00  0.00    +0.099 C 
BRANCH  14  16
ATOM      2  O   UNL     1      14.579  11.116  20.726  0.00  0.00    -0.276 OA
ATOM      5  N   UNL     1      12.344  10.498  20.884  0.00  0.00    -0.314 N 
ATOM     16  C   UNL     1      13.500  10.849  20.203  0.00  0.00    +0.213 C 
ATOM     34  H   UNL     1      11.498  10.302  20.357  0.00  0.00    +0.149 HD
BRANCH   5  19
ATOM     19  C   UNL     1      12.274  10.406  22.324  0.00  0.00    +0.123 C 
BRANCH  19  23
ATOM     23  C   UNL     1      11.057   9.622  22.786  0.00  0.00    +0.123 C 
BRANCH  23   7
ATOM      3  O   UNL     1      10.557   8.040  20.404  0.00  0.00    -0.276 OA
ATOM      7  N   UNL     1      11.232   8.204  22.626  0.00  0.00    -0.314 N 
ATOM     31  C   UNL     1      10.966   7.529  21.443  0.00  0.00    +0.210 C 
ATOM     32  C   UNL     1      11.258   6.055  21.542  0.00  0.00    +0.109 C 
ATOM     35  H   UNL     1      11.584   7.680  23.422  0.00  0.00    +0.149 HD
ENDBRANCH  23   7
ENDBRANCH  19  23
ENDBRANCH   5  19
ENDBRANCH  14  16
ENDBRANCH   8  14
TORSDOF 9
ENDMDL
MODEL 2
REMARK VINA RESULT:      -7.1      2.250      3.843
REMARK  Name = 26743264
REMARK  13 active torsions:
REMARK  status: ('A' for Active; 'I' for Inactive)
REMARK    1  A    between atoms: N_5  and  C_19
REMARK    2  A    between atoms: N_7  and  C_23
REMARK    3  A    between atoms: C_8  and  C_14
REMARK    4  A    between atoms: C_9  and  C_13
REMARK    5  A    between atoms: C_13  and  C_15
REMARK    6  A    between atoms: C_14  and  C_16
REMARK    7  A    between atoms: C_18  and  C_21
REMARK    8  A    between atoms: C_19  and  C_23
REMARK    9  A    between atoms: C_20  and  C_22
REMARK   10  A    between atoms: C_20  and  C_28
REMARK   11  A    between atoms: C_20  and  C_29
REMARK   12  A    between atoms: C_20  and  C_30
REMARK   13  A    between atoms: C_31  and  C_32
REMARK                            x       y       z     vdW  Elec       q    Type
REMARK                         _______ _______ _______ _____ _____    ______ ____
ROOT
ATOM      4  N   UNL     1      11.378   6.076  20.668  0.00  0.00    -0.316 NA
ATOM      8  C   UNL     1      11.654   8.997  20.979  0.00  0.00    +0.004 C 
ATOM      9  C   UNL     1      12.210   8.230  19.755  0.00  0.00    +0.012 C 
ATOM     10  C   UNL     1      10.499   8.190  21.595  0.00  0.00    +0.019 C 
ATOM     11  C   UNL     1      12.536   6.767  20.102  0.00  0.00    +0.085 C 
ATOM     12  C   UNL     1      10.885   6.739  21.874  0.00  0.00    +0.081 C 
ATOM     33  H   UNL     1      11.635   5.115  20.892  0.00  0.00    +0.122 HD
ENDROOT
BRANCH   9  13
ATOM     13  C   UNL     1      13.419   8.914  19.117  0.00  0.00    +0.064 C 
BRANCH  13  15
ATOM      1  O   UNL     1      16.052   6.483  18.773  0.00  0.00    -0.354 OA
ATOM      6  N   UNL     1      14.839   7.043  18.394  0.00  0.00    -0.083 NA
ATOM     15  C   UNL     1      14.652   8.066  19.233  0.00  0.00    +0.085 A 
ATOM     17  C   UNL     1      15.706   8.199  20.154  0.00  0.00    +0.076 A 
ATOM     18  C   UNL     1      16.560   7.180  19.822  0.00  0.00    +0.167 A 
BRANCH  18  21
ATOM     21  C   UNL     1      17.820   6.716  20.326  0.00  0.00    +0.020 A 
ATOM     22  C   UNL     1      20.269   5.812  21.307  0.00  0.00    -0.042 A 
ATOM     24  C   UNL     1      18.383   7.316  21.452  0.00  0.00    +0.012 A 
ATOM     25  C   UNL     1      18.479   5.664  19.690  0.00  0.00    +0.012 A 
ATOM     26  C   UNL     1      19.608   6.864  21.941  0.00  0.00    +0.005 A 
ATOM     27  C   UNL     1      19.704   5.213  20.181  0.00  0.00    +0.005 A 
BRANCH  22  20
ATOM     20  C   UNL     1      21.579   5.329  21.832  0.00  0.00    -0.013 C 
ATOM     28  C   UNL     1      21.788   5.762  23.315  0.00  0.00    +0.015 C 
ATOM     29  C   UNL     1      22.768   5.904  21.001  0.00  0.00    +0.015 C 
ATOM     30  C   UNL     1      21.776   3.776  21.819  0.00  0.00    +0.015 C 
ENDBRANCH  22  20
ENDBRANCH  18  21
ENDBRANCH  13  15
ENDBRANCH   9  13
BRANCH   8  14
ATOM     14  C   UNL     1      12.711   9.331  22.038  0.00  0.00    +0.099 C 
BRANCH  14  16
ATOM      2  O   UNL     1      13.426  11.295  23.257  0.00  0.00    -0.276 OA
ATOM      5  N   UNL     1      12.035  11.542  21.412  0.00  0.00    -0.314 N 
ATOM     16  C   UNL     1      12.784  10.816  22.326  0.00  0.00    +0.213 C 
ATOM     34  H   UNL     1      11.544  11.050  20.671  0.00  0.00    +0.149 HD
BRANCH   5  19
ATOM     19  C   UNL     1      11.923  12.982  21.450  0.00  0.00    +0.123 C 
BRANCH  19  23
ATOM     23  C   UNL     1      10.566  13.434  21.963  0.00  0.00    +0.123 C 
BRANCH  23   7
ATOM      3  O   UNL     1      10.299  11.766  24.324  0.00  0.00    -0.276 OA
ATOM      7  N   UNL     1      10.618  13.851  23.339  0.00  0.00    -0.314 N 
ATOM     31  C   UNL     1      10.479  12.978  24.409  0.00  0.00    +0.210 C 
ATOM     32  C   UNL     1      10.598  13.672  25.739  0.00  0.00    +0.109 C 
ATOM     35  H   UNL     1      10.780  14.836  23.527  0.00  0.00    +0.149 HD
ENDBRANCH  23   7
ENDBRANCH  19  23
ENDBRANCH   5  19
ENDBRANCH  14  16
ENDBRANCH   8  14
TORSDOF 9
ENDMDL
MODEL 3
REMARK VINA RESULT:      -7.1      2.442      3.998
REMARK  Name = 26743264
REMARK  13 active torsions:
REMARK  status: ('A' for Active; 'I' for Inactive)
REMARK    1  A    between atoms: N_5  and  C_19
REMARK    2  A    between atoms: N_7  and  C_23
REMARK    3  A    between atoms: C_8  and  C_14
REMARK    4  A    between atoms: C_9  and  C_13
REMARK    5  A    between atoms: C_13  and  C_15
REMARK    6  A    between atoms: C_14  and  C_16
REMARK    7  A    between atoms: C_18  and  C_21
REMARK    8  A    between atoms: C_19  and  C_23
REMARK    9  A    between atoms: C_20  and  C_22
REMARK   10  A    between atoms: C_20  and  C_28
REMARK   11  A    between atoms: C_20  and  C_29
REMARK   12  A    between atoms: C_20  and  C_30
REMARK   13  A    between atoms: C_31  and  C_32
REMARK                            x       y       z     vdW  Elec       q    Type
REMARK                         _______ _______ _______ _____ _____    ______ ____
ROOT
ATOM      4  N   UNL     1      12.070   6.021  21.016  0.00  0.00    -0.316 NA
ATOM      8  C   UNL     1      12.039   8.911  20.417  0.00  0.00    +0.004 C 
ATOM      9  C   UNL     1      12.982   7.917  19.696  0.00  0.00    +0.012 C 
ATOM     10  C   UNL     1      10.813   8.147  20.944  0.00  0.00    +0.019 C 
ATOM     11  C   UNL     1      13.293   6.692  20.572  0.00  0.00    +0.085 C 
ATOM     12  C   UNL     1      11.200   6.922  21.771  0.00  0.00    +0.081 C 
ATOM     33  H   UNL     1      12.316   5.222  21.599  0.00  0.00    +0.122 HD
ENDROOT
BRANCH   9  13
ATOM     13  C   UNL     1      14.275   8.568  19.203  0.00  0.00    +0.064 C 
BRANCH  13  15
ATOM      1  O   UNL     1      16.737   5.944  19.070  0.00  0.00    -0.354 OA
ATOM      6  N   UNL     1      15.555   6.543  18.653  0.00  0.00    -0.083 NA
ATOM     15  C   UNL     1      15.451   7.655  19.387  0.00  0.00    +0.085 A 
ATOM     17  C   UNL     1      16.529   7.808  20.277  0.00  0.00    +0.076 A 
ATOM     18  C   UNL     1      17.309   6.707  20.038  0.00  0.00    +0.167 A 
BRANCH  18  21
ATOM     21  C   UNL     1      18.545   6.212  20.569  0.00  0.00    +0.020 A 
ATOM     22  C   UNL     1      20.949   5.247  21.605  0.00  0.00    -0.042 A 
ATOM     24  C   UNL     1      19.068   6.759  21.741  0.00  0.00    +0.012 A 
ATOM     25  C   UNL     1      19.223   5.183  19.915  0.00  0.00    +0.012 A 
ATOM     26  C   UNL     1      20.270   6.276  22.258  0.00  0.00    +0.005 A 
ATOM     27  C   UNL     1      20.425   4.701  20.433  0.00  0.00    +0.005 A 
BRANCH  22  20
ATOM     20  C   UNL     1      22.234   4.732  22.158  0.00  0.00    -0.013 C 
ATOM     28  C   UNL     1      22.600   5.445  23.497  0.00  0.00    +0.015 C 
ATOM     29  C   UNL     1      23.413   4.967  21.164  0.00  0.00    +0.015 C 
ATOM     30  C   UNL     1      22.261   3.201  22.481  0.00  0.00    +0.015 C 
ENDBRANCH  22  20
ENDBRANCH  18  21
ENDBRANCH  13  15
ENDBRANCH   9  13
BRANCH   8  14
ATOM     14  C   UNL     1      12.713   9.704  21.542  0.00  0.00    +0.099 C 
BRANCH  14  16
ATOM      2  O   UNL     1      11.248  11.629  21.496  0.00  0.00    -0.276 OA
ATOM      5  N   UNL     1      11.644  10.546  23.514  0.00  0.00    -0.314 N 
ATOM     16  C   UNL     1      11.788  10.739  22.147  0.00  0.00    +0.213 C 
ATOM     34  H   UNL     1      12.130   9.773  23.959  0.00  0.00    +0.149 HD
BRANCH   5  19
ATOM     19  C   UNL     1      10.820  11.390  24.347  0.00  0.00    +0.123 C 
BRANCH  19  23
ATOM     23  C   UNL     1      11.649  12.239  25.296  0.00  0.00    +0.123 C 
BRANCH  23   7
ATOM      3  O   UNL     1      13.881  13.458  26.696  0.00  0.00    -0.276 OA
ATOM      7  N   UNL     1      12.941  11.661  25.552  0.00  0.00    -0.314 N 
ATOM     31  C   UNL     1      13.953  12.322  26.234  0.00  0.00    +0.210 C 
ATOM     32  C   UNL     1      15.192  11.481  26.385  0.00  0.00    +0.109 C 
ATOM     35  H   UNL     1      13.106  10.712  25.227  0.00  0.00    +0.149 HD
ENDBRANCH  23   7
ENDBRANCH  19  23
ENDBRANCH   5  19
ENDBRANCH  14  16
ENDBRANCH   8  14
TORSDOF 9
ENDMDL
MODEL 4
REMARK VINA RESULT:      -7.0      1.999      3.191
REMARK  Name = 26743264
REMARK  13 active torsions:
REMARK  status: ('A' for Active; 'I' for Inactive)
REMARK    1  A    between atoms: N_5  and  C_19
REMARK    2  A    between atoms: N_7  and  C_23
REMARK    3  A    between atoms: C_8  and  C_14
REMARK    4  A    between atoms: C_9  and  C_13
REMARK    5  A    between atoms: C_13  and  C_15
REMARK    6  A    between atoms: C_14  and  C_16
REMARK    7  A    between atoms: C_18  and  C_21
REMARK    8  A    between atoms: C_19  and  C_23
REMARK    9  A    between atoms: C_20  and  C_22
REMARK   10  A    between atoms: C_20  and  C_28
REMARK   11  A    between atoms: C_20  and  C_29
REMARK   12  A    between atoms: C_20  and  C_30
REMARK   13  A    between atoms: C_31  and  C_32
REMARK                            x       y       z     vdW  Elec       q    Type
REMARK                         _______ _______ _______ _____ _____    ______ ____
ROOT
ATOM      4  N   UNL     1      14.216   8.940  16.077  0.00  0.00    -0.316 NA
ATOM      8  C   UNL     1      13.112   9.147  18.806  0.00  0.00    +0.004 C 
ATOM      9  C   UNL     1      14.298   8.218  18.452  0.00  0.00    +0.012 C 
ATOM     10  C   UNL     1      13.050  10.294  17.784  0.00  0.00    +0.019 C 
ATOM     11  C   UNL     1      14.259   7.786  16.976  0.00  0.00    +0.085 C 
ATOM     12  C   UNL     1      13.056   9.790  16.341  0.00  0.00    +0.081 C 
ATOM     33  H   UNL     1      14.182   8.615  15.112  0.00  0.00    +0.122 HD
ENDROOT
BRANCH   9  13
ATOM     13  C   UNL     1      14.396   6.996  19.367  0.00  0.00    +0.064 C 
BRANCH  13  15
ATOM      1  O   UNL     1      17.699   5.600  19.044  0.00  0.00    -0.354 OA
ATOM      6  N   UNL     1      16.414   5.838  18.575  0.00  0.00    -0.083 NA
ATOM     15  C   UNL     1      15.820   6.552  19.535  0.00  0.00    +0.085 A 
ATOM     17  C   UNL     1      16.674   6.794  20.625  0.00  0.00    +0.076 A 
ATOM     18  C   UNL     1      17.843   6.174  20.267  0.00  0.00    +0.167 A 
BRANCH  18  21
ATOM     21  C   UNL     1      19.128   6.012  20.882  0.00  0.00    +0.020 A 
ATOM     22  C   UNL     1      21.628   5.698  22.078  0.00  0.00    -0.042 A 
ATOM     24  C   UNL     1      20.068   5.151  20.316  0.00  0.00    +0.012 A 
ATOM     25  C   UNL     1      19.437   6.716  22.046  0.00  0.00    +0.012 A 
ATOM     26  C   UNL     1      21.318   4.994  20.914  0.00  0.00    +0.005 A 
ATOM     27  C   UNL     1      20.687   6.558  22.644  0.00  0.00    +0.005 A 
BRANCH  22  20
ATOM     20  C   UNL     1      22.965   5.529  22.717  0.00  0.00    -0.013 C 
ATOM     28  C   UNL     1      22.828   5.085  24.206  0.00  0.00    +0.015 C 
ATOM     29  C   UNL     1      23.775   6.863  22.696  0.00  0.00    +0.015 C 
ATOM     30  C   UNL     1      23.900   4.466  22.050  0.00  0.00    +0.015 C 
ENDBRANCH  22  20
ENDBRANCH  18  21
ENDBRANCH  13  15
ENDBRANCH   9  13
BRANCH   8  14
ATOM     14  C   UNL     1      11.762   8.427  18.900  0.00  0.00    +0.099 C 
BRANCH  14  16
ATOM      2  O   UNL     1      10.872   7.276  20.833  0.00  0.00    -0.276 OA
ATOM      5  N   UNL     1      11.316   9.553  20.966  0.00  0.00    -0.314 N 
ATOM     16  C   UNL     1      11.266   8.323  20.327  0.00  0.00    +0.213 C 
ATOM     34  H   UNL     1      11.666  10.361  20.460  0.00  0.00    +0.149 HD
BRANCH   5  19
ATOM     19  C   UNL     1      10.900   9.747  22.336  0.00  0.00    +0.123 C 
BRANCH  19  23
ATOM     23  C   UNL     1      11.829  10.688  23.085  0.00  0.00    +0.123 C 
BRANCH  23   7
ATOM      3  O   UNL     1      12.400  11.767  25.720  0.00  0.00    -0.276 OA
ATOM      7  N   UNL     1      11.110  11.720  23.782  0.00  0.00    -0.314 N 
ATOM     31  C   UNL     1      11.457  12.175  25.047  0.00  0.00    +0.210 C 
ATOM     32  C   UNL     1      10.553  13.276  25.532  0.00  0.00    +0.109 C 
ATOM     35  H   UNL     1      10.317  12.144  23.308  0.00  0.00    +0.149 HD
ENDBRANCH  23   7
ENDBRANCH  19  23
ENDBRANCH   5  19
ENDBRANCH  14  16
ENDBRANCH   8  14
TORSDOF 9
ENDMDL
MODEL 5
REMARK VINA RESULT:      -7.0      1.565      2.708
REMARK  Name = 26743264
REMARK  13 active torsions:
REMARK  status: ('A' for Active; 'I' for Inactive)
REMARK    1  A    between atoms: N_5  and  C_19
REMARK    2  A    between atoms: N_7  and  C_23
REMARK    3  A    between atoms: C_8  and  C_14
REMARK    4  A    between atoms: C_9  and  C_13
REMARK    5  A    between atoms: C_13  and  C_15
REMARK    6  A    between atoms: C_14  and  C_16
REMARK    7  A    between atoms: C_18  and  C_21
REMARK    8  A    between atoms: C_19  and  C_23
REMARK    9  A    between atoms: C_20  and  C_22
REMARK   10  A    between atoms: C_20  and  C_28
REMARK   11  A    between atoms: C_20  and  C_29
REMARK   12  A    between atoms: C_20  and  C_30
REMARK   13  A    between atoms: C_31  and  C_32
REMARK                            x       y       z     vdW  Elec       q    Type
REMARK                         _______ _______ _______ _____ _____    ______ ____
ROOT
ATOM      4  N   UNL     1      14.085   8.776  16.112  0.00  0.00    -0.316 NA
ATOM      8  C   UNL     1      13.017   8.939  18.858  0.00  0.00    +0.004 C 
ATOM      9  C   UNL     1      14.266   8.101  18.494  0.00  0.00    +0.012 C 
ATOM     10  C   UNL     1      12.847  10.061  17.820  0.00  0.00    +0.019 C 
ATOM     11  C   UNL     1      14.235   7.644  17.026  0.00  0.00    +0.085 C 
ATOM     12  C   UNL     1      12.866   9.537  16.386  0.00  0.00    +0.081 C 
ATOM     33  H   UNL     1      14.060   8.434  15.152  0.00  0.00    +0.122 HD
ENDROOT
BRANCH   9  13
ATOM     13  C   UNL     1      14.478   6.905  19.425  0.00  0.00    +0.064 C 
BRANCH  13  15
ATOM      1  O   UNL     1      17.763   5.551  18.852  0.00  0.00    -0.354 OA
ATOM      6  N   UNL     1      16.432   5.736  18.503  0.00  0.00    -0.083 NA
ATOM     15  C   UNL     1      15.921   6.498  19.473  0.00  0.00    +0.085 A 
ATOM     17  C   UNL     1      16.875   6.823  20.454  0.00  0.00    +0.076 A 
ATOM     18  C   UNL     1      18.016   6.203  20.017  0.00  0.00    +0.167 A 
BRANCH  18  21
ATOM     21  C   UNL     1      19.360   6.103  20.506  0.00  0.00    +0.020 A 
ATOM     22  C   UNL     1      21.974   5.907  21.462  0.00  0.00    -0.042 A 
ATOM     24  C   UNL     1      19.933   7.174  21.192  0.00  0.00    +0.012 A 
ATOM     25  C   UNL     1      20.092   4.934  20.298  0.00  0.00    +0.012 A 
ATOM     26  C   UNL     1      21.240   7.076  21.669  0.00  0.00    +0.005 A 
ATOM     27  C   UNL     1      21.399   4.837  20.776  0.00  0.00    +0.005 A 
BRANCH  22  20
ATOM     20  C   UNL     1      23.371   5.803  21.972  0.00  0.00    -0.013 C 
ATOM     28  C   UNL     1      23.399   5.276  23.440  0.00  0.00    +0.015 C 
ATOM     29  C   UNL     1      24.084   7.191  21.956  0.00  0.00    +0.015 C 
ATOM     30  C   UNL     1      24.310   4.844  21.167  0.00  0.00    +0.015 C 
ENDBRANCH  22  20
ENDBRANCH  18  21
ENDBRANCH  13  15
ENDBRANCH   9  13
BRANCH   8  14
ATOM     14  C   UNL     1      11.730   8.117  18.988  0.00  0.00    +0.099 C 
BRANCH  14  16
ATOM      2  O   UNL     1      11.016   6.981  21.002  0.00  0.00    -0.276 OA
ATOM      5  N   UNL     1      11.088   9.304  20.967  0.00  0.00    -0.314 N 
ATOM     16  C   UNL     1      11.243   8.038  20.420  0.00  0.00    +0.213 C 
ATOM     34  H   UNL     1      11.310  10.119  20.402  0.00  0.00    +0.149 HD
BRANCH   5  19
ATOM     19  C   UNL     1      10.633   9.528  22.319  0.00  0.00    +0.123 C 
BRANCH  19  23
ATOM     23  C   UNL     1      11.582  10.424  23.099  0.00  0.00    +0.123 C 
BRANCH  23   7
ATOM      3  O   UNL     1      13.615  11.401  21.272  0.00  0.00    -0.276 OA
ATOM      7  N   UNL     1      12.948   9.986  22.996  0.00  0.00    -0.314 N 
ATOM     31  C   UNL     1      13.854  10.514  22.087  0.00  0.00    +0.210 C 
ATOM     32  C   UNL     1      15.220   9.894  22.209  0.00  0.00    +0.109 C 
ATOM     35  H   UNL     1      13.260   9.263  23.639  0.00  0.00    +0.149 HD
ENDBRANCH  23   7
ENDBRANCH  19  23
ENDBRANCH   5  19
ENDBRANCH  14  16
ENDBRANCH   8  14
TORSDOF 9
ENDMDL
MODEL 6
REMARK VINA RESULT:      -6.6      2.631      3.606
REMARK  Name = 26743264
REMARK  13 active torsions:
REMARK  status: ('A' for Active; 'I' for Inactive)
REMARK    1  A    between atoms: N_5  and  C_19
REMARK    2  A    between atoms: N_7  and  C_23
REMARK    3  A    between atoms: C_8  and  C_14
REMARK    4  A    between atoms: C_9  and  C_13
REMARK    5  A    between atoms: C_13  and  C_15
REMARK    6  A    between atoms: C_14  and  C_16
REMARK    7  A    between atoms: C_18  and  C_21
REMARK    8  A    between atoms: C_19  and  C_23
REMARK    9  A    between atoms: C_20  and  C_22
REMARK   10  A    between atoms: C_20  and  C_28
REMARK   11  A    between atoms: C_20  and  C_29
REMARK   12  A    between atoms: C_20  and  C_30
REMARK   13  A    between atoms: C_31  and  C_32
REMARK                            x       y       z     vdW  Elec       q    Type
REMARK                         _______ _______ _______ _____ _____    ______ ____
ROOT
ATOM      4  N   UNL     1      12.047   7.251  17.831  0.00  0.00    -0.316 NA
ATOM      8  C   UNL     1      13.353   8.909  19.894  0.00  0.00    +0.004 C 
ATOM      9  C   UNL     1      13.857   7.496  19.513  0.00  0.00    +0.012 C 
ATOM     10  C   UNL     1      12.575   9.500  18.707  0.00  0.00    +0.019 C 
ATOM     11  C   UNL     1      12.721   6.616  18.964  0.00  0.00    +0.085 C 
ATOM     12  C   UNL     1      11.491   8.554  18.190  0.00  0.00    +0.081 C 
ATOM     33  H   UNL     1      11.298   6.644  17.501  0.00  0.00    +0.122 HD
ENDROOT
BRANCH   9  13
ATOM     13  C   UNL     1      14.579   6.787  20.661  0.00  0.00    +0.064 C 
BRANCH  13  15
ATOM      1  O   UNL     1      17.669   5.824  19.087  0.00  0.00    -0.354 OA
ATOM      6  N   UNL     1      16.293   6.009  19.082  0.00  0.00    -0.083 NA
ATOM     15  C   UNL     1      16.000   6.470  20.301  0.00  0.00    +0.085 A 
ATOM     17  C   UNL     1      17.142   6.597  21.111  0.00  0.00    +0.076 A 
ATOM     18  C   UNL     1      18.165   6.177  20.301  0.00  0.00    +0.167 A 
BRANCH  18  21
ATOM     21  C   UNL     1      19.584   6.040  20.457  0.00  0.00    +0.020 A 
ATOM     22  C   UNL     1      22.343   5.772  20.764  0.00  0.00    -0.042 A 
ATOM     24  C   UNL     1      20.371   7.166  20.696  0.00  0.00    +0.012 A 
ATOM     25  C   UNL     1      20.176   4.780  20.372  0.00  0.00    +0.012 A 
ATOM     26  C   UNL     1      21.751   7.032  20.848  0.00  0.00    +0.005 A 
ATOM     27  C   UNL     1      21.555   4.646  20.525  0.00  0.00    +0.005 A 
BRANCH  22  20
ATOM     20  C   UNL     1      23.819   5.630  20.927  0.00  0.00    -0.013 C 
ATOM     28  C   UNL     1      24.570   6.896  20.413  0.00  0.00    +0.015 C 
ATOM     29  C   UNL     1      24.361   4.404  20.129  0.00  0.00    +0.015 C 
ATOM     30  C   UNL     1      24.314   5.419  22.397  0.00  0.00    +0.015 C 
ENDBRANCH  22  20
ENDBRANCH  18  21
ENDBRANCH  13  15
ENDBRANCH   9  13
BRANCH   8  14
ATOM     14  C   UNL     1      12.509   8.946  21.172  0.00  0.00    +0.099 C 
BRANCH  14  16
ATOM      2  O   UNL     1      13.379  11.161  21.612  0.00  0.00    -0.276 OA
ATOM      5  N   UNL     1      11.435  10.466  22.680  0.00  0.00    -0.314 N 
ATOM     16  C   UNL     1      12.516  10.313  21.824  0.00  0.00    +0.213 C 
ATOM     34  H   UNL     1      10.771   9.704  22.781  0.00  0.00    +0.149 HD
BRANCH   5  19
ATOM     19  C   UNL     1      11.193  11.672  23.437  0.00  0.00    +0.123 C 
BRANCH  19  23
ATOM     23  C   UNL     1      11.168  11.410  24.934  0.00  0.00    +0.123 C 
BRANCH  23   7
ATOM      3  O   UNL     1      11.051  14.178  25.801  0.00  0.00    -0.276 OA
ATOM      7  N   UNL     1      12.184  12.152  25.631  0.00  0.00    -0.314 N 
ATOM     31  C   UNL     1      12.039  13.480  26.008  0.00  0.00    +0.210 C 
ATOM     32  C   UNL     1      13.242  14.004  26.746  0.00  0.00    +0.109 C 
ATOM     35  H   UNL     1      13.043  11.664  25.871  0.00  0.00    +0.149 HD
ENDBRANCH  23   7
ENDBRANCH  19  23
ENDBRANCH   5  19
ENDBRANCH  14  16
ENDBRANCH   8  14
TORSDOF 9
ENDMDL
MODEL 7
REMARK VINA RESULT:      -6.5     28.729     31.918
REMARK  Name = 26743264
REMARK  13 active torsions:
REMARK  status: ('A' for Active; 'I' for Inactive)
REMARK    1  A    between atoms: N_5  and  C_19
REMARK    2  A    between atoms: N_7  and  C_23
REMARK    3  A    between atoms: C_8  and  C_14
REMARK    4  A    between atoms: C_9  and  C_13
REMARK    5  A    between atoms: C_13  and  C_15
REMARK    6  A    between atoms: C_14  and  C_16
REMARK    7  A    between atoms: C_18  and  C_21
REMARK    8  A    between atoms: C_19  and  C_23
REMARK    9  A    between atoms: C_20  and  C_22
REMARK   10  A    between atoms: C_20  and  C_28
REMARK   11  A    between atoms: C_20  and  C_29
REMARK   12  A    between atoms: C_20  and  C_30
REMARK   13  A    between atoms: C_31  and  C_32
REMARK                            x       y       z     vdW  Elec       q    Type
REMARK                         _______ _______ _______ _____ _____    ______ ____
ROOT
ATOM      4  N   UNL     1     -14.546   1.173  32.499  0.00  0.00    -0.316 NA
ATOM      8  C   UNL     1     -14.808   3.116  30.293  0.00  0.00    +0.004 C 
ATOM      9  C   UNL     1     -14.939   3.517  31.782  0.00  0.00    +0.012 C 
ATOM     10  C   UNL     1     -13.961   1.836  30.192  0.00  0.00    +0.019 C 
ATOM     11  C   UNL     1     -15.417   2.339  32.648  0.00  0.00    +0.085 C 
ATOM     12  C   UNL     1     -14.471   0.725  31.110  0.00  0.00    +0.081 C 
ATOM     33  H   UNL     1     -14.898   0.412  33.080  0.00  0.00    +0.122 HD
ENDROOT
BRANCH   9  13
ATOM     13  C   UNL     1     -15.834   4.739  31.996  0.00  0.00    +0.064 C 
BRANCH  13  15
ATOM      1  O   UNL     1     -14.487   8.074  31.839  0.00  0.00    -0.354 OA
ATOM      6  N   UNL     1     -15.456   7.124  31.541  0.00  0.00    -0.083 NA
ATOM     15  C   UNL     1     -15.024   5.997  32.113  0.00  0.00    +0.085 A 
ATOM     17  C   UNL     1     -13.799   6.173  32.780  0.00  0.00    +0.076 A 
ATOM     18  C   UNL     1     -13.504   7.496  32.577  0.00  0.00    +0.167 A 
BRANCH  18  21
ATOM     21  C   UNL     1     -12.426   8.360  32.963  0.00  0.00    +0.020 A 
ATOM     22  C   UNL     1     -10.332  10.042  33.712  0.00  0.00    -0.042 A 
ATOM     24  C   UNL     1     -11.484   8.763  32.017  0.00  0.00    +0.012 A 
ATOM     25  C   UNL     1     -12.323   8.798  34.283  0.00  0.00    +0.012 A 
ATOM     26  C   UNL     1     -10.436   9.603  32.392  0.00  0.00    +0.005 A 
ATOM     27  C   UNL     1     -11.275   9.638  34.657  0.00  0.00    +0.005 A 
BRANCH  22  20
ATOM     20  C   UNL     1      -9.211  10.941  34.112  0.00  0.00    -0.013 C 
ATOM     28  C   UNL     1      -8.474  11.516  32.864  0.00  0.00    +0.015 C 
ATOM     29  C   UNL     1      -8.156  10.181  34.974  0.00  0.00    +0.015 C 
ATOM     30  C   UNL     1      -9.622  12.188  34.964  0.00  0.00    +0.015 C 
ENDBRANCH  22  20
ENDBRANCH  18  21
ENDBRANCH  13  15
ENDBRANCH   9  13
BRANCH   8  14
ATOM     14  C   UNL     1     -16.150   2.940  29.574  0.00  0.00    +0.099 C 
BRANCH  14  16
ATOM      2  O   UNL     1     -16.541   5.128  28.617  0.00  0.00    -0.276 OA
ATOM      5  N   UNL     1     -16.220   3.307  27.208  0.00  0.00    -0.314 N 
ATOM     16  C   UNL     1     -16.327   3.931  28.443  0.00  0.00    +0.213 C 
ATOM     34  H   UNL     1     -16.034   2.310  27.171  0.00  0.00    +0.149 HD
BRANCH   5  19
ATOM     19  C   UNL     1     -16.350   4.013  25.955  0.00  0.00    +0.123 C 
BRANCH  19  23
ATOM     23  C   UNL     1     -15.685   3.267  24.810  0.00  0.00    +0.123 C 
BRANCH  23   7
ATOM      3  O   UNL     1     -15.789   4.340  22.114  0.00  0.00    -0.276 OA
ATOM      7  N   UNL     1     -14.689   4.066  24.147  0.00  0.00    -0.314 N 
ATOM     31  C   UNL     1     -14.825   4.537  22.849  0.00  0.00    +0.210 C 
ATOM     32  C   UNL     1     -13.649   5.367  22.410  0.00  0.00    +0.109 C 
ATOM     35  H   UNL     1     -13.852   4.305  24.672  0.00  0.00    +0.149 HD
ENDBRANCH  23   7
ENDBRANCH  19  23
ENDBRANCH   5  19
ENDBRANCH  14  16
ENDBRANCH   8  14
TORSDOF 9
ENDMDL
MODEL 8
REMARK VINA RESULT:      -6.3     27.170     30.451
REMARK  Name = 26743264
REMARK  13 active torsions:
REMARK  status: ('A' for Active; 'I' for Inactive)
REMARK    1  A    between atoms: N_5  and  C_19
REMARK    2  A    between atoms: N_7  and  C_23
REMARK    3  A    between atoms: C_8  and  C_14
REMARK    4  A    between atoms: C_9  and  C_13
REMARK    5  A    between atoms: C_13  and  C_15
REMARK    6  A    between atoms: C_14  and  C_16
REMARK    7  A    between atoms: C_18  and  C_21
REMARK    8  A    between atoms: C_19  and  C_23
REMARK    9  A    between atoms: C_20  and  C_22
REMARK   10  A    between atoms: C_20  and  C_28
REMARK   11  A    between atoms: C_20  and  C_29
REMARK   12  A    between atoms: C_20  and  C_30
REMARK   13  A    between atoms: C_31  and  C_32
REMARK                            x       y       z     vdW  Elec       q    Type
REMARK                         _______ _______ _______ _____ _____    ______ ____
ROOT
ATOM      4  N   UNL     1      -9.611 -14.408  20.228  0.00  0.00    -0.316 NA
ATOM      8  C   UNL     1      -9.853 -11.890  18.709  0.00  0.00    +0.004 C 
ATOM      9  C   UNL     1      -8.493 -12.444  19.200  0.00  0.00    +0.012 C 
ATOM     10  C   UNL     1     -10.849 -13.054  18.575  0.00  0.00    +0.019 C 
ATOM     11  C   UNL     1      -8.657 -13.322  20.452  0.00  0.00    +0.085 C 
ATOM     12  C   UNL     1     -10.927 -13.904  19.842  0.00  0.00    +0.081 C 
ATOM     33  H   UNL     1      -9.698 -14.962  21.080  0.00  0.00    +0.122 HD
ENDROOT
BRANCH   9  13
ATOM     13  C   UNL     1      -7.453 -11.349  19.443  0.00  0.00    +0.064 C 
BRANCH  13  15
ATOM      1  O   UNL     1      -6.639  -9.339  16.569  0.00  0.00    -0.354 OA
ATOM      6  N   UNL     1      -7.266  -9.538  17.792  0.00  0.00    -0.083 NA
ATOM     15  C   UNL     1      -6.942 -10.784  18.150  0.00  0.00    +0.085 A 
ATOM     17  C   UNL     1      -6.119 -11.414  17.200  0.00  0.00    +0.076 A 
ATOM     18  C   UNL     1      -5.958 -10.463  16.226  0.00  0.00    +0.167 A 
BRANCH  18  21
ATOM     21  C   UNL     1      -5.255 -10.407  14.978  0.00  0.00    +0.020 A 
ATOM     22  C   UNL     1      -3.885 -10.296  12.550  0.00  0.00    -0.042 A 
ATOM     24  C   UNL     1      -5.930 -10.042  13.813  0.00  0.00    +0.012 A 
ATOM     25  C   UNL     1      -3.895 -10.717  14.929  0.00  0.00    +0.012 A 
ATOM     26  C   UNL     1      -5.245  -9.987  12.600  0.00  0.00    +0.005 A 
ATOM     27  C   UNL     1      -3.211 -10.662  13.715  0.00  0.00    +0.005 A 
BRANCH  22  20
ATOM     20  C   UNL     1      -3.154 -10.237  11.252  0.00  0.00    -0.013 C 
ATOM     28  C   UNL     1      -3.332 -11.557  10.441  0.00  0.00    +0.015 C 
ATOM     29  C   UNL     1      -1.624 -10.024  11.473  0.00  0.00    +0.015 C 
ATOM     30  C   UNL     1      -3.597  -9.090  10.283  0.00  0.00    +0.015 C 
ENDBRANCH  22  20
ENDBRANCH  18  21
ENDBRANCH  13  15
ENDBRANCH   9  13
BRANCH   8  14
ATOM     14  C   UNL     1     -10.428 -10.778  19.593  0.00  0.00    +0.099 C 
BRANCH  14  16
ATOM      2  O   UNL     1     -12.245  -9.489  18.647  0.00  0.00    -0.276 OA
ATOM      5  N   UNL     1     -10.050  -8.858  18.212  0.00  0.00    -0.314 N 
ATOM     16  C   UNL     1     -11.035  -9.655  18.779  0.00  0.00    +0.213 C 
ATOM     34  H   UNL     1      -9.074  -9.076  18.388  0.00  0.00    +0.149 HD
BRANCH   5  19
ATOM     19  C   UNL     1     -10.344  -7.713  17.382  0.00  0.00    +0.123 C 
BRANCH  19  23
ATOM     23  C   UNL     1     -10.198  -8.029  15.902  0.00  0.00    +0.123 C 
BRANCH  23   7
ATOM      3  O   UNL     1      -9.748  -9.335  13.349  0.00  0.00    -0.276 OA
ATOM      7  N   UNL     1      -9.767  -9.383  15.677  0.00  0.00    -0.314 N 
ATOM     31  C   UNL     1      -9.577  -9.925  14.413  0.00  0.00    +0.210 C 
ATOM     32  C   UNL     1      -9.102 -11.352  14.463  0.00  0.00    +0.109 C 
ATOM     35  H   UNL     1      -9.580  -9.959  16.492  0.00  0.00    +0.149 HD
ENDBRANCH  23   7
ENDBRANCH  19  23
ENDBRANCH   5  19
ENDBRANCH  14  16
ENDBRANCH   8  14
TORSDOF 9
ENDMDL
MODEL 9
REMARK VINA RESULT:      -6.2      1.860      2.846
REMARK  Name = 26743264
REMARK  13 active torsions:
REMARK  status: ('A' for Active; 'I' for Inactive)
REMARK    1  A    between atoms: N_5  and  C_19
REMARK    2  A    between atoms: N_7  and  C_23
REMARK    3  A    between atoms: C_8  and  C_14
REMARK    4  A    between atoms: C_9  and  C_13
REMARK    5  A    between atoms: C_13  and  C_15
REMARK    6  A    between atoms: C_14  and  C_16
REMARK    7  A    between atoms: C_18  and  C_21
REMARK    8  A    between atoms: C_19  and  C_23
REMARK    9  A    between atoms: C_20  and  C_22
REMARK   10  A    between atoms: C_20  and  C_28
REMARK   11  A    between atoms: C_20  and  C_29
REMARK   12  A    between atoms: C_20  and  C_30
REMARK   13  A    between atoms: C_31  and  C_32
REMARK                            x       y       z     vdW  Elec       q    Type
REMARK                         _______ _______ _______ _____ _____    ______ ____
ROOT
ATOM      4  N   UNL     1      15.563  11.690  17.968  0.00  0.00    -0.316 NA
ATOM      8  C   UNL     1      13.441   9.943  19.042  0.00  0.00    +0.004 C 
ATOM      9  C   UNL     1      14.355  10.804  19.948  0.00  0.00    +0.012 C 
ATOM     10  C   UNL     1      13.382  10.578  17.642  0.00  0.00    +0.019 C 
ATOM     11  C   UNL     1      15.717  11.075  19.286  0.00  0.00    +0.085 C 
ATOM     12  C   UNL     1      14.770  10.854  17.068  0.00  0.00    +0.081 C 
ATOM     33  H   UNL     1      16.484  11.847  17.559  0.00  0.00    +0.122 HD
ENDROOT
BRANCH   9  13
ATOM     13  C   UNL     1      14.544  10.211  21.345  0.00  0.00    +0.064 C 
BRANCH  13  15
ATOM      1  O   UNL     1      18.040   9.661  22.003  0.00  0.00    -0.354 OA
ATOM      6  N   UNL     1      16.912  10.470  21.948  0.00  0.00    -0.083 NA
ATOM     15  C   UNL     1      15.931   9.668  21.525  0.00  0.00    +0.085 A 
ATOM     17  C   UNL     1      16.377   8.354  21.299  0.00  0.00    +0.076 A 
ATOM     18  C   UNL     1      17.710   8.403  21.614  0.00  0.00    +0.167 A 
BRANCH  18  21
ATOM     21  C   UNL     1      18.781   7.449  21.621  0.00  0.00    +0.020 A 
ATOM     22  C   UNL     1      20.862   5.591  21.635  0.00  0.00    -0.042 A 
ATOM     24  C   UNL     1      19.689   7.428  22.679  0.00  0.00    +0.012 A 
ATOM     25  C   UNL     1      18.912   6.541  20.570  0.00  0.00    +0.012 A 
ATOM     26  C   UNL     1      20.730   6.500  22.685  0.00  0.00    +0.005 A 
ATOM     27  C   UNL     1      19.953   5.613  20.577  0.00  0.00    +0.005 A 
BRANCH  22  20
ATOM     20  C   UNL     1      21.975   4.599  21.642  0.00  0.00    -0.013 C 
ATOM     28  C   UNL     1      23.202   5.120  20.834  0.00  0.00    +0.015 C 
ATOM     29  C   UNL     1      21.531   3.246  21.005  0.00  0.00    +0.015 C 
ATOM     30  C   UNL     1      22.534   4.228  23.056  0.00  0.00    +0.015 C 
ENDBRANCH  22  20
ENDBRANCH  18  21
ENDBRANCH  13  15
ENDBRANCH   9  13
BRANCH   8  14
ATOM     14  C   UNL     1      13.858   8.471  18.956  0.00  0.00    +0.099 C 
BRANCH  14  16
ATOM      2  O   UNL     1      12.032   6.965  18.452  0.00  0.00    -0.276 OA
ATOM      5  N   UNL     1      12.564   7.411  20.670  0.00  0.00    -0.314 N 
ATOM     16  C   UNL     1      12.719   7.532  19.297  0.00  0.00    +0.213 C 
ATOM     34  H   UNL     1      13.190   7.919  21.287  0.00  0.00    +0.149 HD
BRANCH   5  19
ATOM     19  C   UNL     1      11.550   6.580  21.278  0.00  0.00    +0.123 C 
BRANCH  19  23
ATOM     23  C   UNL     1      10.499   7.403  22.005  0.00  0.00    +0.123 C 
BRANCH  23   7
ATOM      3  O   UNL     1      11.180   9.598  23.779  0.00  0.00    -0.276 OA
ATOM      7  N   UNL     1      10.581   8.801  21.675  0.00  0.00    -0.314 N 
ATOM     31  C   UNL     1      10.916   9.785  22.594  0.00  0.00    +0.210 C 
ATOM     32  C   UNL     1      10.952  11.159  21.980  0.00  0.00    +0.109 C 
ATOM     35  H   UNL     1      10.397   9.069  20.712  0.00  0.00    +0.149 HD
ENDBRANCH  23   7
ENDBRANCH  19  23
ENDBRANCH   5  19
ENDBRANCH  14  16
ENDBRANCH   8  14
TORSDOF 9
ENDMDL
MODEL 10
REMARK VINA RESULT:      -6.0     27.982     32.716
REMARK  Name = 26743264
REMARK  13 active torsions:
REMARK  status: ('A' for Active; 'I' for Inactive)
REMARK    1  A    between atoms: N_5  and  C_19
REMARK    2  A    between atoms: N_7  and  C_23
REMARK    3  A    between atoms: C_8  and  C_14
REMARK    4  A    between atoms: C_9  and  C_13
REMARK    5  A    between atoms: C_13  and  C_15
REMARK    6  A    between atoms: C_14  and  C_16
REMARK    7  A    between atoms: C_18  and  C_21
REMARK    8  A    between atoms: C_19  and  C_23
REMARK    9  A    between atoms: C_20  and  C_22
REMARK   10  A    between atoms: C_20  and  C_28
REMARK   11  A    between atoms: C_20  and  C_29
REMARK   12  A    between atoms: C_20  and  C_30
REMARK   13  A    between atoms: C_31  and  C_32
REMARK                            x       y       z     vdW  Elec       q    Type
REMARK                         _______ _______ _______ _____ _____    ______ ____
ROOT
ATOM      4  N   UNL     1      -3.686 -11.941  18.131  0.00  0.00    -0.316 NA
ATOM      8  C   UNL     1      -6.292 -11.009  17.107  0.00  0.00    +0.004 C 
ATOM      9  C   UNL     1      -6.162 -11.966  18.317  0.00  0.00    +0.012 C 
ATOM     10  C   UNL     1      -4.993 -10.197  16.969  0.00  0.00    +0.019 C 
ATOM     11  C   UNL     1      -4.868 -12.795  18.248  0.00  0.00    +0.085 C 
ATOM     12  C   UNL     1      -3.750 -11.085  16.948  0.00  0.00    +0.081 C 
ATOM     33  H   UNL     1      -2.851 -12.525  18.080  0.00  0.00    +0.122 HD
ENDROOT
BRANCH   9  13
ATOM     13  C   UNL     1      -7.376 -12.879  18.492  0.00  0.00    +0.064 C 
BRANCH  13  15
ATOM      1  O   UNL     1      -9.522 -10.680  20.369  0.00  0.00    -0.354 OA
ATOM      6  N   UNL     1      -8.272 -11.103  19.935  0.00  0.00    -0.083 NA
ATOM     15  C   UNL     1      -8.515 -12.154  19.148  0.00  0.00    +0.085 A 
ATOM     17  C   UNL     1      -9.888 -12.439  19.048  0.00  0.00    +0.076 A 
ATOM     18  C   UNL     1     -10.477 -11.483  19.834  0.00  0.00    +0.167 A 
BRANCH  18  21
ATOM     21  C   UNL     1     -11.829 -11.166  20.194  0.00  0.00    +0.020 A 
ATOM     22  C   UNL     1     -14.458 -10.550  20.892  0.00  0.00    -0.042 A 
ATOM     24  C   UNL     1     -12.243  -9.835  20.242  0.00  0.00    +0.012 A 
ATOM     25  C   UNL     1     -12.728 -12.189  20.494  0.00  0.00    +0.012 A 
ATOM     26  C   UNL     1     -13.558  -9.528  20.591  0.00  0.00    +0.005 A 
ATOM     27  C   UNL     1     -14.043 -11.881  20.844  0.00  0.00    +0.005 A 
BRANCH  22  20
ATOM     20  C   UNL     1     -15.864 -10.220  21.265  0.00  0.00    -0.013 C 
ATOM     28  C   UNL     1     -16.237 -10.826  22.653  0.00  0.00    +0.015 C 
ATOM     29  C   UNL     1     -16.875 -10.783  20.218  0.00  0.00    +0.015 C 
ATOM     30  C   UNL     1     -16.188  -8.693  21.376  0.00  0.00    +0.015 C 
ENDBRANCH  22  20
ENDBRANCH  18  21
ENDBRANCH  13  15
ENDBRANCH   9  13
BRANCH   8  14
ATOM     14  C   UNL     1      -6.639 -11.712  15.791  0.00  0.00    +0.099 C 
BRANCH  14  16
ATOM      2  O   UNL     1      -7.562 -10.398  13.981  0.00  0.00    -0.276 OA
ATOM      5  N   UNL     1      -8.959 -11.126  15.691  0.00  0.00    -0.314 N 
ATOM     16  C   UNL     1      -7.742 -11.002  15.035  0.00  0.00    +0.213 C 
ATOM     34  H   UNL     1      -9.004 -11.655  16.557  0.00  0.00    +0.149 HD
BRANCH   5  19
ATOM     19  C   UNL     1     -10.184 -10.544  15.195  0.00  0.00    +0.123 C 
BRANCH  19  23
ATOM     23  C   UNL     1     -11.069 -10.035  16.321  0.00  0.00    +0.123 C 
BRANCH  23   7
ATOM      3  O   UNL     1      -9.750  -7.715  17.465  0.00  0.00    -0.276 OA
ATOM      7  N   UNL     1     -11.426  -8.652  16.148  0.00  0.00    -0.314 N 
ATOM     31  C   UNL     1     -10.733  -7.604  16.737  0.00  0.00    +0.210 C 
ATOM     32  C   UNL     1     -11.303  -6.259  16.371  0.00  0.00    +0.109 C 
ATOM     35  H   UNL     1     -12.219  -8.442  15.548  0.00  0.00    +0.149 HD
ENDBRANCH  23   7
ENDBRANCH  19  23
ENDBRANCH   5  19
ENDBRANCH  14  16
ENDBRANCH   8  14
TORSDOF 9
ENDMDL
