REMARK  Name = 11912770
REMARK  7 active torsions:
REMARK  status: ('A' for Active; 'I' for Inactive)
REMARK    1  A    between atoms: O_3  and  C_15
REMARK    2  A    between atoms: O_3  and  C_19
REMARK    3  A    between atoms: N_8  and  C_14
REMARK    4  A    between atoms: N_11  and  C_23
REMARK    5  A    between atoms: C_20  and  C_24
REMARK    6  A    between atoms: C_32  and  C_36
REMARK    7  A    between atoms: C_36  and  C_37
REMARK                            x       y       z     vdW  Elec       q    Type
REMARK                         _______ _______ _______ _____ _____    ______ ____
ROOT
ATOM      1  O   UNL     1       1.012  -1.286   1.536  0.00  0.00    -0.368 OA
ATOM      2  O   UNL     1      -0.813   1.155   1.186  0.00  0.00    -0.368 OA
ATOM     12  C   UNL     1      -0.785  -0.123   0.516  0.00  0.00    +0.173 C 
ATOM     13  C   UNL     1       0.673  -0.512   0.374  0.00  0.00    +0.192 C 
ATOM     14  C   UNL     1      -1.362  -1.191   1.415  0.00  0.00    +0.130 C 
ATOM     15  C   UNL     1       1.371   0.827   0.372  0.00  0.00    +0.235 C 
ATOM     16  C   UNL     1      -0.178  -1.548   2.296  0.00  0.00    +0.185 C 
ATOM     17  C   UNL     1       0.534   1.624   1.347  0.00  0.00    +0.207 C 
ENDROOT
BRANCH  14   8
ATOM      8  N   UNL     1      -1.771  -2.338   0.634  0.00  0.00    -0.306 N 
ATOM      9  N   UNL     1      -3.847  -1.405   0.173  0.00  0.00    -0.214 NA
ATOM     10  N   UNL     1      -3.235  -3.575  -0.678  0.00  0.00    -0.223 NA
ATOM     18  C   UNL     1      -3.005  -2.444   0.016  0.00  0.00    +0.216 A 
ATOM     20  C   UNL     1      -5.040  -1.541  -0.441  0.00  0.00    +0.076 A 
ATOM     21  C   UNL     1      -4.447  -3.644  -1.267  0.00  0.00    +0.116 A 
ATOM     22  C   UNL     1      -5.399  -2.648  -1.182  0.00  0.00    +0.048 A 
ATOM     38  H   UNL     1      -1.113  -3.093   0.476  0.00  0.00    +0.149 HD
BRANCH  20  24
ATOM      5  O   UNL     1      -6.280   3.170  -0.907  0.00  0.00    -0.453 OA
ATOM      6  O   UNL     1      -8.424   2.817   0.136  0.00  0.00    -0.453 OA
ATOM     24  C   UNL     1      -5.945  -0.429  -0.276  0.00  0.00    +0.004 A 
ATOM     25  C   UNL     1      -5.572   0.841  -0.721  0.00  0.00    +0.059 A 
ATOM     28  C   UNL     1      -7.196  -0.635   0.333  0.00  0.00    +0.014 A 
ATOM     29  C   UNL     1      -6.470   1.873  -0.541  0.00  0.00    +0.167 A 
ATOM     30  C   UNL     1      -7.694   1.672   0.055  0.00  0.00    +0.166 A 
ATOM     31  C   UNL     1      -8.087   0.427   0.503  0.00  0.00    +0.050 A 
ATOM     35  C   UNL     1      -7.523   3.762  -0.475  0.00  0.00    +0.466 C 
ENDBRANCH  20  24
ENDBRANCH  14   8
BRANCH  15   3
ATOM      3  O   UNL     1       2.723   0.758   0.765  0.00  0.00    -0.442 OA
BRANCH   3  19
ATOM      4  O   UNL     1       3.354   0.560  -1.424  0.00  0.00    -0.226 OA
ATOM     11  N   UNL     1       4.924   0.570   0.312  0.00  0.00    -0.251 N 
ATOM     19  C   UNL     1       3.658   0.621  -0.239  0.00  0.00    +0.405 C 
ATOM     39  H   UNL     1       4.976   0.638   1.325  0.00  0.00    +0.158 HD
BRANCH  11  23
ATOM     23  C   UNL     1       6.161   0.436  -0.359  0.00  0.00    +0.037 A 
ATOM     26  C   UNL     1       7.350   0.403   0.369  0.00  0.00    +0.034 A 
ATOM     27  C   UNL     1       6.192   0.336  -1.750  0.00  0.00    +0.023 A 
ATOM     32  C   UNL     1       8.570   0.271  -0.294  0.00  0.00    +0.019 A 
ATOM     33  C   UNL     1       7.412   0.203  -2.413  0.00  0.00    +0.002 A 
ATOM     34  C   UNL     1       8.601   0.171  -1.685  0.00  0.00    +0.011 A 
BRANCH  32  36
ATOM      7  O   UNL     1      10.805  -0.398   0.058  0.00  0.00    -0.292 OA
ATOM     36  C   UNL     1       9.810   0.236   0.465  0.00  0.00    +0.160 C 
ATOM     37  C   UNL     1       9.923   0.984   1.789  0.00  0.00    +0.091 C 
ENDBRANCH  32  36
ENDBRANCH  11  23
ENDBRANCH   3  19
ENDBRANCH  15   3
TORSDOF 6
