MODEL 1
REMARK VINA RESULT:      -8.5      0.000      0.000
REMARK  Name = 11879647
REMARK  8 active torsions:
REMARK  status: ('A' for Active; 'I' for Inactive)
REMARK    1  A    between atoms: O_3  and  C_20
REMARK    2  A    between atoms: O_3  and  C_23
REMARK    3  A    between atoms: O_5  and  C_33
REMARK    4  A    between atoms: O_5  and  C_36
REMARK    5  A    between atoms: N_6  and  C_16
REMARK    6  A    between atoms: N_7  and  C_17
REMARK    7  A    between atoms: N_11  and  C_22
REMARK    8  A    between atoms: N_12  and  C_32
REMARK                            x       y       z     vdW  Elec       q    Type
REMARK                         _______ _______ _______ _____ _____    ______ ____
ROOT
ATOM      1  O   UNL     1      12.576   6.750  19.684  0.00  0.00    -0.370 OA
ATOM      2  O   UNL     1      14.439   9.260  20.026  0.00  0.00    -0.370 OA
ATOM     14  C   UNL     1      13.887   8.576  18.888  0.00  0.00    +0.176 C 
ATOM     15  C   UNL     1      13.889   7.094  19.212  0.00  0.00    +0.172 C 
ATOM     16  C   UNL     1      12.422   8.934  18.731  0.00  0.00    +0.171 C 
ATOM     17  C   UNL     1      14.899   6.958  20.329  0.00  0.00    +0.131 C 
ATOM     18  C   UNL     1      11.720   7.898  19.602  0.00  0.00    +0.190 C 
ATOM     19  C   UNL     1      14.790   8.299  21.030  0.00  0.00    +0.185 C 
ENDROOT
BRANCH  17   7
ATOM      4  O   UNL     1      17.233   6.233  21.825  0.00  0.00    -0.252 OA
ATOM      7  N   UNL     1      16.228   6.747  19.807  0.00  0.00    -0.292 N 
ATOM     11  N   UNL     1      18.472   6.259  19.832  0.00  0.00    -0.269 N 
ATOM     21  C   UNL     1      17.319   6.393  20.610  0.00  0.00    +0.304 C 
ATOM     43  H   UNL     1      16.365   6.795  18.802  0.00  0.00    +0.151 HD
ATOM     44  H   UNL     1      18.372   6.429  18.834  0.00  0.00    +0.156 HD
BRANCH  11  22
ATOM     22  C   UNL     1      19.775   5.914  20.263  0.00  0.00    +0.035 A 
ATOM     26  C   UNL     1      20.705   6.915  20.540  0.00  0.00    +0.027 A 
ATOM     27  C   UNL     1      20.129   4.572  20.408  0.00  0.00    +0.027 A 
ATOM     30  C   UNL     1      21.990   6.575  20.964  0.00  0.00    +0.048 A 
ATOM     31  C   UNL     1      21.414   4.232  20.832  0.00  0.00    +0.048 A 
ATOM     33  C   UNL     1      22.344   5.233  21.110  0.00  0.00    +0.129 A 
BRANCH  33   5
ATOM      5  O   UNL     1      23.598   4.901  21.521  0.00  0.00    -0.456 OA
BRANCH   5  36
ATOM     36  C   UNL     1      23.849   3.569  21.810  0.00  0.00    +0.128 A 
ATOM     38  C   UNL     1      24.317   2.715  20.813  0.00  0.00    +0.046 A 
ATOM     39  C   UNL     1      23.631   3.084  23.100  0.00  0.00    +0.046 A 
ATOM     40  C   UNL     1      24.568   1.374  21.105  0.00  0.00    +0.004 A 
ATOM     41  C   UNL     1      23.882   1.744  23.392  0.00  0.00    +0.004 A 
ATOM     42  C   UNL     1      24.351   0.888  22.395  0.00  0.00    +0.000 A 
ENDBRANCH   5  36
ENDBRANCH  33   5
ENDBRANCH  11  22
ENDBRANCH  17   7
BRANCH  16   6
ATOM      6  N   UNL     1      11.996   8.957  17.329  0.00  0.00    -0.187 N 
ATOM      8  N   UNL     1      10.967   8.210  16.904  0.00  0.00    -0.041 NA
ATOM      9  N   UNL     1      11.819   9.383  15.209  0.00  0.00    -0.071 NA
ATOM     10  N   UNL     1      10.863   8.476  15.608  0.00  0.00    -0.020 NA
ATOM     20  C   UNL     1      12.508   9.667  16.290  0.00  0.00    +0.342 A 
BRANCH  20   3
ATOM      3  O   UNL     1      13.530  10.497  16.378  0.00  0.00    -0.423 OA
BRANCH   3  23
ATOM     23  C   UNL     1      14.116  10.991  15.200  0.00  0.00    +0.132 A 
ATOM     24  C   UNL     1      13.471  11.986  14.465  0.00  0.00    +0.048 A 
ATOM     25  C   UNL     1      15.340  10.485  14.765  0.00  0.00    +0.048 A 
ATOM     28  C   UNL     1      14.051  12.476  13.295  0.00  0.00    +0.030 A 
ATOM     29  C   UNL     1      15.921  10.975  13.595  0.00  0.00    +0.030 A 
ATOM     32  C   UNL     1      15.276  11.970  12.860  0.00  0.00    +0.048 A 
BRANCH  32  12
ATOM     12  N   UNL     1      15.852  12.456  11.700  0.00  0.00    -0.306 N 
ATOM     13  N   UNL     1      17.395  12.867  10.157  0.00  0.00    -0.244 NA
ATOM     34  C   UNL     1      15.227  13.192  10.734  0.00  0.00    +0.112 A 
ATOM     35  C   UNL     1      17.151  12.287  11.310  0.00  0.00    +0.204 A 
ATOM     37  C   UNL     1      16.200  13.434   9.792  0.00  0.00    +0.130 A 
ENDBRANCH  32  12
ENDBRANCH   3  23
ENDBRANCH  20   3
ENDBRANCH  16   6
TORSDOF 8
ENDMDL
MODEL 2
REMARK VINA RESULT:      -8.4      1.818      2.328
REMARK  Name = 11879647
REMARK  8 active torsions:
REMARK  status: ('A' for Active; 'I' for Inactive)
REMARK    1  A    between atoms: O_3  and  C_20
REMARK    2  A    between atoms: O_3  and  C_23
REMARK    3  A    between atoms: O_5  and  C_33
REMARK    4  A    between atoms: O_5  and  C_36
REMARK    5  A    between atoms: N_6  and  C_16
REMARK    6  A    between atoms: N_7  and  C_17
REMARK    7  A    between atoms: N_11  and  C_22
REMARK    8  A    between atoms: N_12  and  C_32
REMARK                            x       y       z     vdW  Elec       q    Type
REMARK                         _______ _______ _______ _____ _____    ______ ____
ROOT
ATOM      1  O   UNL     1      14.233   7.340  21.467  0.00  0.00    -0.370 OA
ATOM      2  O   UNL     1      16.210   9.463  20.252  0.00  0.00    -0.370 OA
ATOM     14  C   UNL     1      15.312   8.496  19.681  0.00  0.00    +0.176 C 
ATOM     15  C   UNL     1      15.353   7.267  20.570  0.00  0.00    +0.172 C 
ATOM     16  C   UNL     1      13.883   8.995  19.782  0.00  0.00    +0.171 C 
ATOM     17  C   UNL     1      16.649   7.405  21.337  0.00  0.00    +0.131 C 
ATOM     18  C   UNL     1      13.438   8.491  21.150  0.00  0.00    +0.190 C 
ATOM     19  C   UNL     1      16.811   8.910  21.432  0.00  0.00    +0.185 C 
ENDROOT
BRANCH  17   7
ATOM      4  O   UNL     1      19.121   6.478  22.449  0.00  0.00    -0.252 OA
ATOM      7  N   UNL     1      17.747   6.804  20.619  0.00  0.00    -0.292 N 
ATOM     11  N   UNL     1      19.806   5.840  20.297  0.00  0.00    -0.269 N 
ATOM     21  C   UNL     1      18.927   6.377  21.241  0.00  0.00    +0.304 C 
ATOM     43  H   UNL     1      17.634   6.625  19.626  0.00  0.00    +0.151 HD
ATOM     44  H   UNL     1      19.490   5.831  19.330  0.00  0.00    +0.156 HD
BRANCH  11  22
ATOM     22  C   UNL     1      21.095   5.301  20.520  0.00  0.00    +0.035 A 
ATOM     26  C   UNL     1      22.214   6.133  20.485  0.00  0.00    +0.027 A 
ATOM     27  C   UNL     1      21.247   3.937  20.774  0.00  0.00    +0.027 A 
ATOM     30  C   UNL     1      23.485   5.602  20.703  0.00  0.00    +0.048 A 
ATOM     31  C   UNL     1      22.519   3.407  20.992  0.00  0.00    +0.048 A 
ATOM     33  C   UNL     1      23.637   4.238  20.957  0.00  0.00    +0.129 A 
BRANCH  33   5
ATOM      5  O   UNL     1      24.878   3.719  21.168  0.00  0.00    -0.456 OA
BRANCH   5  36
ATOM     36  C   UNL     1      24.979   2.609  21.990  0.00  0.00    +0.128 A 
ATOM     38  C   UNL     1      24.721   2.725  23.355  0.00  0.00    +0.046 A 
ATOM     39  C   UNL     1      25.341   1.374  21.451  0.00  0.00    +0.046 A 
ATOM     40  C   UNL     1      24.824   1.607  24.182  0.00  0.00    +0.004 A 
ATOM     41  C   UNL     1      25.444   0.256  22.278  0.00  0.00    +0.004 A 
ATOM     42  C   UNL     1      25.185   0.372  23.644  0.00  0.00    +0.000 A 
ENDBRANCH   5  36
ENDBRANCH  33   5
ENDBRANCH  11  22
ENDBRANCH  17   7
BRANCH  16   6
ATOM      6  N   UNL     1      13.053   8.554  18.658  0.00  0.00    -0.187 N 
ATOM      8  N   UNL     1      12.602   7.294  18.582  0.00  0.00    -0.041 NA
ATOM      9  N   UNL     1      11.902   8.470  16.821  0.00  0.00    -0.071 NA
ATOM     10  N   UNL     1      11.898   7.250  17.457  0.00  0.00    -0.020 NA
ATOM     20  C   UNL     1      12.622   9.262  17.581  0.00  0.00    +0.342 A 
BRANCH  20   3
ATOM      3  O   UNL     1      12.897  10.534  17.359  0.00  0.00    -0.423 OA
BRANCH   3  23
ATOM     23  C   UNL     1      14.032  10.868  16.603  0.00  0.00    +0.132 A 
ATOM     24  C   UNL     1      14.253  10.256  15.369  0.00  0.00    +0.048 A 
ATOM     25  C   UNL     1      14.940  11.809  17.087  0.00  0.00    +0.048 A 
ATOM     28  C   UNL     1      15.381  10.587  14.618  0.00  0.00    +0.030 A 
ATOM     29  C   UNL     1      16.068  12.140  16.336  0.00  0.00    +0.030 A 
ATOM     32  C   UNL     1      16.289  11.529  15.102  0.00  0.00    +0.048 A 
BRANCH  32  12
ATOM     12  N   UNL     1      17.407  11.857  14.357  0.00  0.00    -0.306 N 
ATOM     13  N   UNL     1      19.546  12.078  13.800  0.00  0.00    -0.244 NA
ATOM     34  C   UNL     1      17.413  12.433  13.119  0.00  0.00    +0.112 A 
ATOM     35  C   UNL     1      18.709  11.663  14.725  0.00  0.00    +0.204 A 
ATOM     37  C   UNL     1      18.744  12.560  12.796  0.00  0.00    +0.130 A 
ENDBRANCH  32  12
ENDBRANCH   3  23
ENDBRANCH  20   3
ENDBRANCH  16   6
TORSDOF 8
ENDMDL
MODEL 3
REMARK VINA RESULT:      -8.2      2.133      2.862
REMARK  Name = 11879647
REMARK  8 active torsions:
REMARK  status: ('A' for Active; 'I' for Inactive)
REMARK    1  A    between atoms: O_3  and  C_20
REMARK    2  A    between atoms: O_3  and  C_23
REMARK    3  A    between atoms: O_5  and  C_33
REMARK    4  A    between atoms: O_5  and  C_36
REMARK    5  A    between atoms: N_6  and  C_16
REMARK    6  A    between atoms: N_7  and  C_17
REMARK    7  A    between atoms: N_11  and  C_22
REMARK    8  A    between atoms: N_12  and  C_32
REMARK                            x       y       z     vdW  Elec       q    Type
REMARK                         _______ _______ _______ _____ _____    ______ ____
ROOT
ATOM      1  O   UNL     1      14.113   7.299  21.432  0.00  0.00    -0.370 OA
ATOM      2  O   UNL     1      16.210   9.319  20.244  0.00  0.00    -0.370 OA
ATOM     14  C   UNL     1      15.286   8.384  19.662  0.00  0.00    +0.176 C 
ATOM     15  C   UNL     1      15.251   7.166  20.566  0.00  0.00    +0.172 C 
ATOM     16  C   UNL     1      13.878   8.945  19.718  0.00  0.00    +0.171 C 
ATOM     17  C   UNL     1      16.532   7.259  21.365  0.00  0.00    +0.131 C 
ATOM     18  C   UNL     1      13.377   8.479  21.081  0.00  0.00    +0.190 C 
ATOM     19  C   UNL     1      16.756   8.757  21.445  0.00  0.00    +0.185 C 
ENDROOT
BRANCH  17   7
ATOM      4  O   UNL     1      19.118   6.661  22.444  0.00  0.00    -0.252 OA
ATOM      7  N   UNL     1      17.621   6.603  20.683  0.00  0.00    -0.292 N 
ATOM     11  N   UNL     1      19.714   5.704  20.386  0.00  0.00    -0.269 N 
ATOM     21  C   UNL     1      18.859   6.348  21.285  0.00  0.00    +0.304 C 
ATOM     43  H   UNL     1      17.461   6.252  19.744  0.00  0.00    +0.151 HD
ATOM     44  H   UNL     1      19.343   5.516  19.458  0.00  0.00    +0.156 HD
BRANCH  11  22
ATOM     22  C   UNL     1      21.045   5.278  20.607  0.00  0.00    +0.035 A 
ATOM     26  C   UNL     1      22.096   6.185  20.485  0.00  0.00    +0.027 A 
ATOM     27  C   UNL     1      21.304   3.949  20.945  0.00  0.00    +0.027 A 
ATOM     30  C   UNL     1      23.409   5.764  20.702  0.00  0.00    +0.048 A 
ATOM     31  C   UNL     1      22.617   3.529  21.161  0.00  0.00    +0.048 A 
ATOM     33  C   UNL     1      23.668   4.436  21.040  0.00  0.00    +0.129 A 
BRANCH  33   5
ATOM      5  O   UNL     1      24.949   4.025  21.249  0.00  0.00    -0.456 OA
BRANCH   5  36
ATOM     36  C   UNL     1      25.880   4.289  20.257  0.00  0.00    +0.128 A 
ATOM     38  C   UNL     1      26.733   5.385  20.375  0.00  0.00    +0.046 A 
ATOM     39  C   UNL     1      25.962   3.458  19.140  0.00  0.00    +0.046 A 
ATOM     40  C   UNL     1      27.669   5.651  19.376  0.00  0.00    +0.004 A 
ATOM     41  C   UNL     1      26.898   3.724  18.140  0.00  0.00    +0.004 A 
ATOM     42  C   UNL     1      27.752   4.821  18.258  0.00  0.00    +0.000 A 
ENDBRANCH   5  36
ENDBRANCH  33   5
ENDBRANCH  11  22
ENDBRANCH  17   7
BRANCH  16   6
ATOM      6  N   UNL     1      13.058   8.524  18.579  0.00  0.00    -0.187 N 
ATOM      8  N   UNL     1      12.607   7.267  18.476  0.00  0.00    -0.041 NA
ATOM      9  N   UNL     1      11.926   8.475  16.729  0.00  0.00    -0.071 NA
ATOM     10  N   UNL     1      11.914   7.243  17.344  0.00  0.00    -0.020 NA
ATOM     20  C   UNL     1      12.639   9.253  17.511  0.00  0.00    +0.342 A 
BRANCH  20   3
ATOM      3  O   UNL     1      12.917  10.527  17.314  0.00  0.00    -0.423 OA
BRANCH   3  23
ATOM     23  C   UNL     1      14.045  10.873  16.551  0.00  0.00    +0.132 A 
ATOM     24  C   UNL     1      14.822  11.973  16.914  0.00  0.00    +0.048 A 
ATOM     25  C   UNL     1      14.387  10.117  15.430  0.00  0.00    +0.048 A 
ATOM     28  C   UNL     1      15.942  12.317  16.156  0.00  0.00    +0.030 A 
ATOM     29  C   UNL     1      15.506  10.460  14.672  0.00  0.00    +0.030 A 
ATOM     32  C   UNL     1      16.284  11.561  15.035  0.00  0.00    +0.048 A 
BRANCH  32  12
ATOM     12  N   UNL     1      17.394  11.901  14.284  0.00  0.00    -0.306 N 
ATOM     13  N   UNL     1      18.603  12.703  12.603  0.00  0.00    -0.244 NA
ATOM     34  C   UNL     1      18.699  11.692  14.629  0.00  0.00    +0.112 A 
ATOM     35  C   UNL     1      17.387  12.509  13.060  0.00  0.00    +0.204 A 
ATOM     37  C   UNL     1      19.426  12.195  13.577  0.00  0.00    +0.130 A 
ENDBRANCH  32  12
ENDBRANCH   3  23
ENDBRANCH  20   3
ENDBRANCH  16   6
TORSDOF 8
ENDMDL
MODEL 4
REMARK VINA RESULT:      -8.2     28.370     32.144
REMARK  Name = 11879647
REMARK  8 active torsions:
REMARK  status: ('A' for Active; 'I' for Inactive)
REMARK    1  A    between atoms: O_3  and  C_20
REMARK    2  A    between atoms: O_3  and  C_23
REMARK    3  A    between atoms: O_5  and  C_33
REMARK    4  A    between atoms: O_5  and  C_36
REMARK    5  A    between atoms: N_6  and  C_16
REMARK    6  A    between atoms: N_7  and  C_17
REMARK    7  A    between atoms: N_11  and  C_22
REMARK    8  A    between atoms: N_12  and  C_32
REMARK                            x       y       z     vdW  Elec       q    Type
REMARK                         _______ _______ _______ _____ _____    ______ ____
ROOT
ATOM      1  O   UNL     1      -4.891 -10.295  18.298  0.00  0.00    -0.370 OA
ATOM      2  O   UNL     1      -6.548 -11.998  16.237  0.00  0.00    -0.370 OA
ATOM     14  C   UNL     1      -5.400 -11.139  16.126  0.00  0.00    +0.176 C 
ATOM     15  C   UNL     1      -5.608  -9.987  17.091  0.00  0.00    +0.172 C 
ATOM     16  C   UNL     1      -4.166 -11.855  16.642  0.00  0.00    +0.171 C 
ATOM     17  C   UNL     1      -7.097  -9.983  17.352  0.00  0.00    +0.131 C 
ATOM     18  C   UNL     1      -4.176 -11.527  18.131  0.00  0.00    +0.190 C 
ATOM     19  C   UNL     1      -7.456 -11.449  17.202  0.00  0.00    +0.185 C 
ENDROOT
BRANCH  17   7
ATOM      4  O   UNL     1      -9.843  -9.172  17.455  0.00  0.00    -0.252 OA
ATOM      7  N   UNL     1      -7.794  -9.172  16.383  0.00  0.00    -0.292 N 
ATOM     11  N   UNL     1      -9.543  -8.033  15.425  0.00  0.00    -0.269 N 
ATOM     21  C   UNL     1      -9.144  -8.819  16.509  0.00  0.00    +0.304 C 
ATOM     43  H   UNL     1      -7.266  -8.785  15.608  0.00  0.00    +0.151 HD
ATOM     44  H   UNL     1      -8.837  -7.832  14.721  0.00  0.00    +0.156 HD
BRANCH  11  22
ATOM     22  C   UNL     1     -10.822  -7.478  15.180  0.00  0.00    +0.035 A 
ATOM     26  C   UNL     1     -11.234  -6.343  15.877  0.00  0.00    +0.027 A 
ATOM     27  C   UNL     1     -11.669  -8.068  14.241  0.00  0.00    +0.027 A 
ATOM     30  C   UNL     1     -12.495  -5.797  15.636  0.00  0.00    +0.048 A 
ATOM     31  C   UNL     1     -12.930  -7.520  14.000  0.00  0.00    +0.048 A 
ATOM     33  C   UNL     1     -13.342  -6.385  14.697  0.00  0.00    +0.129 A 
BRANCH  33   5
ATOM      5  O   UNL     1     -14.573  -5.853  14.464  0.00  0.00    -0.456 OA
BRANCH   5  36
ATOM     36  C   UNL     1     -14.761  -5.162  13.278  0.00  0.00    +0.128 A 
ATOM     38  C   UNL     1     -15.520  -5.728  12.254  0.00  0.00    +0.046 A 
ATOM     39  C   UNL     1     -14.189  -3.902  13.108  0.00  0.00    +0.046 A 
ATOM     40  C   UNL     1     -15.708  -5.032  11.060  0.00  0.00    +0.004 A 
ATOM     41  C   UNL     1     -14.377  -3.206  11.914  0.00  0.00    +0.004 A 
ATOM     42  C   UNL     1     -15.137  -3.771  10.889  0.00  0.00    +0.000 A 
ENDBRANCH   5  36
ENDBRANCH  33   5
ENDBRANCH  11  22
ENDBRANCH  17   7
BRANCH  16   6
ATOM      6  N   UNL     1      -2.948 -11.463  15.927  0.00  0.00    -0.187 N 
ATOM      8  N   UNL     1      -2.032 -10.672  16.502  0.00  0.00    -0.041 NA
ATOM      9  N   UNL     1      -1.392 -11.218  14.437  0.00  0.00    -0.071 NA
ATOM     10  N   UNL     1      -1.082 -10.527  15.587  0.00  0.00    -0.020 NA
ATOM     20  C   UNL     1      -2.550 -11.790  14.670  0.00  0.00    +0.342 A 
BRANCH  20   3
ATOM      3  O   UNL     1      -3.233 -12.556  13.840  0.00  0.00    -0.423 OA
BRANCH   3  23
ATOM     23  C   UNL     1      -3.755 -11.995  12.663  0.00  0.00    +0.132 A 
ATOM     24  C   UNL     1      -3.316 -12.450  11.419  0.00  0.00    +0.048 A 
ATOM     25  C   UNL     1      -4.711 -10.982  12.737  0.00  0.00    +0.048 A 
ATOM     28  C   UNL     1      -3.833 -11.893  10.250  0.00  0.00    +0.030 A 
ATOM     29  C   UNL     1      -5.228 -10.425  11.567  0.00  0.00    +0.030 A 
ATOM     32  C   UNL     1      -4.789 -10.880  10.324  0.00  0.00    +0.048 A 
BRANCH  32  12
ATOM     12  N   UNL     1      -5.303 -10.329   9.164  0.00  0.00    -0.306 N 
ATOM     13  N   UNL     1      -5.583  -9.925   6.998  0.00  0.00    -0.244 NA
ATOM     34  C   UNL     1      -6.306  -9.405   9.083  0.00  0.00    +0.112 A 
ATOM     35  C   UNL     1      -4.900 -10.609   7.888  0.00  0.00    +0.204 A 
ATOM     37  C   UNL     1      -6.460  -9.171   7.737  0.00  0.00    +0.130 A 
ENDBRANCH  32  12
ENDBRANCH   3  23
ENDBRANCH  20   3
ENDBRANCH  16   6
TORSDOF 8
ENDMDL
MODEL 5
REMARK VINA RESULT:      -8.0      4.022      7.304
REMARK  Name = 11879647
REMARK  8 active torsions:
REMARK  status: ('A' for Active; 'I' for Inactive)
REMARK    1  A    between atoms: O_3  and  C_20
REMARK    2  A    between atoms: O_3  and  C_23
REMARK    3  A    between atoms: O_5  and  C_33
REMARK    4  A    between atoms: O_5  and  C_36
REMARK    5  A    between atoms: N_6  and  C_16
REMARK    6  A    between atoms: N_7  and  C_17
REMARK    7  A    between atoms: N_11  and  C_22
REMARK    8  A    between atoms: N_12  and  C_32
REMARK                            x       y       z     vdW  Elec       q    Type
REMARK                         _______ _______ _______ _____ _____    ______ ____
ROOT
ATOM      1  O   UNL     1      13.915   8.530  17.797  0.00  0.00    -0.370 OA
ATOM      2  O   UNL     1      13.460   7.936  20.852  0.00  0.00    -0.370 OA
ATOM     14  C   UNL     1      13.931   9.080  20.118  0.00  0.00    +0.176 C 
ATOM     15  C   UNL     1      14.760   8.558  18.959  0.00  0.00    +0.172 C 
ATOM     16  C   UNL     1      12.762   9.792  19.465  0.00  0.00    +0.171 C 
ATOM     17  C   UNL     1      15.132   7.151  19.370  0.00  0.00    +0.131 C 
ATOM     18  C   UNL     1      12.631   9.078  18.124  0.00  0.00    +0.190 C 
ATOM     19  C   UNL     1      13.950   6.741  20.228  0.00  0.00    +0.185 C 
ENDROOT
BRANCH  17   7
ATOM      4  O   UNL     1      17.544   5.758  18.702  0.00  0.00    -0.252 OA
ATOM      7  N   UNL     1      16.359   7.137  20.130  0.00  0.00    -0.292 N 
ATOM     11  N   UNL     1      18.528   6.598  20.660  0.00  0.00    -0.269 N 
ATOM     21  C   UNL     1      17.498   6.426  19.731  0.00  0.00    +0.304 C 
ATOM     43  H   UNL     1      16.421   7.721  20.957  0.00  0.00    +0.151 HD
ATOM     44  H   UNL     1      18.325   7.187  21.464  0.00  0.00    +0.156 HD
BRANCH  11  22
ATOM     22  C   UNL     1      19.831   6.049  20.623  0.00  0.00    +0.035 A 
ATOM     26  C   UNL     1      20.005   4.666  20.602  0.00  0.00    +0.027 A 
ATOM     27  C   UNL     1      20.943   6.893  20.608  0.00  0.00    +0.027 A 
ATOM     30  C   UNL     1      21.290   4.125  20.566  0.00  0.00    +0.048 A 
ATOM     31  C   UNL     1      22.228   6.351  20.572  0.00  0.00    +0.048 A 
ATOM     33  C   UNL     1      22.401   4.968  20.551  0.00  0.00    +0.129 A 
BRANCH  33   5
ATOM      5  O   UNL     1      23.656   4.440  20.519  0.00  0.00    -0.456 OA
BRANCH   5  36
ATOM     36  C   UNL     1      23.901   3.316  21.291  0.00  0.00    +0.128 A 
ATOM     38  C   UNL     1      24.235   2.109  20.680  0.00  0.00    +0.046 A 
ATOM     39  C   UNL     1      23.813   3.394  22.681  0.00  0.00    +0.046 A 
ATOM     40  C   UNL     1      24.481   0.978  21.458  0.00  0.00    +0.004 A 
ATOM     41  C   UNL     1      24.059   2.263  23.459  0.00  0.00    +0.004 A 
ATOM     42  C   UNL     1      24.393   1.054  22.848  0.00  0.00    +0.000 A 
ENDBRANCH   5  36
ENDBRANCH  33   5
ENDBRANCH  11  22
ENDBRANCH  17   7
BRANCH  16   6
ATOM      6  N   UNL     1      12.963  11.241  19.379  0.00  0.00    -0.187 N 
ATOM      8  N   UNL     1      13.664  11.786  18.375  0.00  0.00    -0.041 NA
ATOM      9  N   UNL     1      12.935  13.376  19.758  0.00  0.00    -0.071 NA
ATOM     10  N   UNL     1      13.642  13.092  18.612  0.00  0.00    -0.020 NA
ATOM     20  C   UNL     1      12.523  12.217  20.216  0.00  0.00    +0.342 A 
BRANCH  20   3
ATOM      3  O   UNL     1      11.804  12.008  21.302  0.00  0.00    -0.423 OA
BRANCH   3  23
ATOM     23  C   UNL     1      12.416  12.123  22.561  0.00  0.00    +0.132 A 
ATOM     24  C   UNL     1      11.862  12.955  23.534  0.00  0.00    +0.048 A 
ATOM     25  C   UNL     1      13.580  11.405  22.839  0.00  0.00    +0.048 A 
ATOM     28  C   UNL     1      12.470  13.069  24.784  0.00  0.00    +0.030 A 
ATOM     29  C   UNL     1      14.188  11.519  24.089  0.00  0.00    +0.030 A 
ATOM     32  C   UNL     1      13.634  12.352  25.061  0.00  0.00    +0.048 A 
BRANCH  32  12
ATOM     12  N   UNL     1      14.236  12.464  26.301  0.00  0.00    -0.306 N 
ATOM     13  N   UNL     1      15.595  12.025  28.002  0.00  0.00    -0.244 NA
ATOM     34  C   UNL     1      13.950  13.396  27.257  0.00  0.00    +0.112 A 
ATOM     35  C   UNL     1      15.229  11.663  26.793  0.00  0.00    +0.204 A 
ATOM     37  C   UNL     1      14.801  13.105  28.298  0.00  0.00    +0.130 A 
ENDBRANCH  32  12
ENDBRANCH   3  23
ENDBRANCH  20   3
ENDBRANCH  16   6
TORSDOF 8
ENDMDL
MODEL 6
REMARK VINA RESULT:      -7.9      5.774      9.248
REMARK  Name = 11879647
REMARK  8 active torsions:
REMARK  status: ('A' for Active; 'I' for Inactive)
REMARK    1  A    between atoms: O_3  and  C_20
REMARK    2  A    between atoms: O_3  and  C_23
REMARK    3  A    between atoms: O_5  and  C_33
REMARK    4  A    between atoms: O_5  and  C_36
REMARK    5  A    between atoms: N_6  and  C_16
REMARK    6  A    between atoms: N_7  and  C_17
REMARK    7  A    between atoms: N_11  and  C_22
REMARK    8  A    between atoms: N_12  and  C_32
REMARK                            x       y       z     vdW  Elec       q    Type
REMARK                         _______ _______ _______ _____ _____    ______ ____
ROOT
ATOM      1  O   UNL     1      11.698  14.586  12.263  0.00  0.00    -0.370 OA
ATOM      2  O   UNL     1      12.669  11.856  11.041  0.00  0.00    -0.370 OA
ATOM     14  C   UNL     1      11.376  12.423  11.313  0.00  0.00    +0.176 C 
ATOM     15  C   UNL     1      11.493  13.206  12.607  0.00  0.00    +0.172 C 
ATOM     16  C   UNL     1      11.036  13.463  10.263  0.00  0.00    +0.171 C 
ATOM     17  C   UNL     1      12.728  12.643  13.273  0.00  0.00    +0.131 C 
ATOM     18  C   UNL     1      11.635  14.742  10.839  0.00  0.00    +0.190 C 
ATOM     19  C   UNL     1      13.577  12.231  12.086  0.00  0.00    +0.185 C 
ENDROOT
BRANCH  17   7
ATOM      4  O   UNL     1      14.280  11.605  15.446  0.00  0.00    -0.252 OA
ATOM      7  N   UNL     1      12.401  11.508  14.102  0.00  0.00    -0.292 N 
ATOM     11  N   UNL     1      12.649   9.949  15.771  0.00  0.00    -0.269 N 
ATOM     21  C   UNL     1      13.219  11.064  15.149  0.00  0.00    +0.304 C 
ATOM     43  H   UNL     1      11.507  11.049  13.962  0.00  0.00    +0.151 HD
ATOM     44  H   UNL     1      11.761   9.623  15.399  0.00  0.00    +0.156 HD
BRANCH  11  22
ATOM     22  C   UNL     1      13.160   9.209  16.863  0.00  0.00    +0.035 A 
ATOM     26  C   UNL     1      13.948   8.083  16.634  0.00  0.00    +0.027 A 
ATOM     27  C   UNL     1      12.872   9.607  18.170  0.00  0.00    +0.027 A 
ATOM     30  C   UNL     1      14.451   7.352  17.712  0.00  0.00    +0.048 A 
ATOM     31  C   UNL     1      13.375   8.877  19.247  0.00  0.00    +0.048 A 
ATOM     33  C   UNL     1      14.164   7.750  19.018  0.00  0.00    +0.129 A 
BRANCH  33   5
ATOM      5  O   UNL     1      14.652   7.036  20.070  0.00  0.00    -0.456 OA
BRANCH   5  36
ATOM     36  C   UNL     1      16.012   7.113  20.323  0.00  0.00    +0.128 A 
ATOM     38  C   UNL     1      16.869   6.126  19.839  0.00  0.00    +0.046 A 
ATOM     39  C   UNL     1      16.523   8.179  21.064  0.00  0.00    +0.046 A 
ATOM     40  C   UNL     1      18.238   6.204  20.095  0.00  0.00    +0.004 A 
ATOM     41  C   UNL     1      17.892   8.256  21.320  0.00  0.00    +0.004 A 
ATOM     42  C   UNL     1      18.750   7.269  20.836  0.00  0.00    +0.000 A 
ENDBRANCH   5  36
ENDBRANCH  33   5
ENDBRANCH  11  22
ENDBRANCH  17   7
BRANCH  16   6
ATOM      6  N   UNL     1       9.600  13.525   9.976  0.00  0.00    -0.187 N 
ATOM      8  N   UNL     1       8.724  13.930  10.907  0.00  0.00    -0.041 NA
ATOM      9  N   UNL     1       7.658  13.418   9.016  0.00  0.00    -0.071 NA
ATOM     10  N   UNL     1       7.539  13.864  10.313  0.00  0.00    -0.020 NA
ATOM     20  C   UNL     1       8.942  13.215   8.829  0.00  0.00    +0.342 A 
BRANCH  20   3
ATOM      3  O   UNL     1       9.519  12.783   7.724  0.00  0.00    -0.423 OA
BRANCH   3  23
ATOM     23  C   UNL     1       9.461  11.415   7.411  0.00  0.00    +0.132 A 
ATOM     24  C   UNL     1       9.151  11.009   6.112  0.00  0.00    +0.048 A 
ATOM     25  C   UNL     1       9.712  10.462   8.398  0.00  0.00    +0.048 A 
ATOM     28  C   UNL     1       9.092   9.651   5.801  0.00  0.00    +0.030 A 
ATOM     29  C   UNL     1       9.653   9.104   8.087  0.00  0.00    +0.030 A 
ATOM     32  C   UNL     1       9.343   8.698   6.788  0.00  0.00    +0.048 A 
BRANCH  32  12
ATOM     12  N   UNL     1       9.286   7.351   6.480  0.00  0.00    -0.306 N 
ATOM     13  N   UNL     1       8.668   5.472   5.470  0.00  0.00    -0.244 NA
ATOM     34  C   UNL     1      10.011   6.355   7.069  0.00  0.00    +0.112 A 
ATOM     35  C   UNL     1       8.494   6.773   5.527  0.00  0.00    +0.204 A 
ATOM     37  C   UNL     1       9.612   5.204   6.430  0.00  0.00    +0.130 A 
ENDBRANCH  32  12
ENDBRANCH   3  23
ENDBRANCH  20   3
ENDBRANCH  16   6
TORSDOF 8
ENDMDL
MODEL 7
REMARK VINA RESULT:      -7.9     13.266     17.798
REMARK  Name = 11879647
REMARK  8 active torsions:
REMARK  status: ('A' for Active; 'I' for Inactive)
REMARK    1  A    between atoms: O_3  and  C_20
REMARK    2  A    between atoms: O_3  and  C_23
REMARK    3  A    between atoms: O_5  and  C_33
REMARK    4  A    between atoms: O_5  and  C_36
REMARK    5  A    between atoms: N_6  and  C_16
REMARK    6  A    between atoms: N_7  and  C_17
REMARK    7  A    between atoms: N_11  and  C_22
REMARK    8  A    between atoms: N_12  and  C_32
REMARK                            x       y       z     vdW  Elec       q    Type
REMARK                         _______ _______ _______ _____ _____    ______ ____
ROOT
ATOM      1  O   UNL     1       8.672   7.412   6.797  0.00  0.00    -0.370 OA
ATOM      2  O   UNL     1      10.961   5.737   8.155  0.00  0.00    -0.370 OA
ATOM     14  C   UNL     1      10.945   6.862   7.259  0.00  0.00    +0.176 C 
ATOM     15  C   UNL     1       9.788   6.656   6.301  0.00  0.00    +0.172 C 
ATOM     16  C   UNL     1      10.593   8.125   8.023  0.00  0.00    +0.171 C 
ATOM     17  C   UNL     1       9.496   5.175   6.381  0.00  0.00    +0.131 C 
ATOM     18  C   UNL     1       9.069   8.149   7.961  0.00  0.00    +0.190 C 
ATOM     19  C   UNL     1       9.893   4.844   7.807  0.00  0.00    +0.185 C 
ENDROOT
BRANCH  17   7
ATOM      4  O   UNL     1       9.759   5.713   3.580  0.00  0.00    -0.252 OA
ATOM      7  N   UNL     1      10.290   4.434   5.431  0.00  0.00    -0.292 N 
ATOM     11  N   UNL     1      11.205   3.874   3.401  0.00  0.00    -0.269 N 
ATOM     21  C   UNL     1      10.364   4.765   4.072  0.00  0.00    +0.304 C 
ATOM     43  H   UNL     1      10.872   3.678   5.775  0.00  0.00    +0.151 HD
ATOM     44  H   UNL     1      11.631   3.138   3.959  0.00  0.00    +0.156 HD
BRANCH  11  22
ATOM     22  C   UNL     1      11.541   3.865   2.026  0.00  0.00    +0.035 A 
ATOM     26  C   UNL     1      12.734   3.279   1.604  0.00  0.00    +0.027 A 
ATOM     27  C   UNL     1      10.679   4.446   1.094  0.00  0.00    +0.027 A 
ATOM     30  C   UNL     1      13.065   3.272   0.249  0.00  0.00    +0.048 A 
ATOM     31  C   UNL     1      11.012   4.438  -0.261  0.00  0.00    +0.048 A 
ATOM     33  C   UNL     1      12.204   3.852  -0.683  0.00  0.00    +0.129 A 
BRANCH  33   5
ATOM      5  O   UNL     1      12.529   3.847  -2.005  0.00  0.00    -0.456 OA
BRANCH   5  36
ATOM     36  C   UNL     1      11.524   3.558  -2.914  0.00  0.00    +0.128 A 
ATOM     38  C   UNL     1      11.230   4.456  -3.939  0.00  0.00    +0.046 A 
ATOM     39  C   UNL     1      10.805   2.368  -2.801  0.00  0.00    +0.046 A 
ATOM     40  C   UNL     1      10.218   4.164  -4.853  0.00  0.00    +0.004 A 
ATOM     41  C   UNL     1       9.792   2.077  -3.714  0.00  0.00    +0.004 A 
ATOM     42  C   UNL     1       9.498   2.974  -4.741  0.00  0.00    +0.000 A 
ENDBRANCH   5  36
ENDBRANCH  33   5
ENDBRANCH  11  22
ENDBRANCH  17   7
BRANCH  16   6
ATOM      6  N   UNL     1      11.255   9.314   7.480  0.00  0.00    -0.187 N 
ATOM      8  N   UNL     1      10.615  10.489   7.402  0.00  0.00    -0.041 NA
ATOM      9  N   UNL     1      12.691  10.688   6.613  0.00  0.00    -0.071 NA
ATOM     10  N   UNL     1      11.499  11.326   6.872  0.00  0.00    -0.020 NA
ATOM     20  C   UNL     1      12.518   9.445   6.997  0.00  0.00    +0.342 A 
BRANCH  20   3
ATOM      3  O   UNL     1      13.404   8.469   6.934  0.00  0.00    -0.423 OA
BRANCH   3  23
ATOM     23  C   UNL     1      13.974   8.140   5.693  0.00  0.00    +0.132 A 
ATOM     24  C   UNL     1      13.198   7.529   4.708  0.00  0.00    +0.048 A 
ATOM     25  C   UNL     1      15.318   8.423   5.445  0.00  0.00    +0.048 A 
ATOM     28  C   UNL     1      13.763   7.202   3.476  0.00  0.00    +0.030 A 
ATOM     29  C   UNL     1      15.883   8.096   4.213  0.00  0.00    +0.030 A 
ATOM     32  C   UNL     1      15.107   7.485   3.229  0.00  0.00    +0.048 A 
BRANCH  32  12
ATOM     12  N   UNL     1      15.668   7.162   2.006  0.00  0.00    -0.306 N 
ATOM     13  N   UNL     1      15.970   6.131   0.063  0.00  0.00    -0.244 NA
ATOM     34  C   UNL     1      16.762   7.749   1.438  0.00  0.00    +0.112 A 
ATOM     35  C   UNL     1      15.227   6.196   1.145  0.00  0.00    +0.204 A 
ATOM     37  C   UNL     1      16.929   7.096   0.240  0.00  0.00    +0.130 A 
ENDBRANCH  32  12
ENDBRANCH   3  23
ENDBRANCH  20   3
ENDBRANCH  16   6
TORSDOF 8
ENDMDL
MODEL 8
REMARK VINA RESULT:      -7.9      4.740      6.534
REMARK  Name = 11879647
REMARK  8 active torsions:
REMARK  status: ('A' for Active; 'I' for Inactive)
REMARK    1  A    between atoms: O_3  and  C_20
REMARK    2  A    between atoms: O_3  and  C_23
REMARK    3  A    between atoms: O_5  and  C_33
REMARK    4  A    between atoms: O_5  and  C_36
REMARK    5  A    between atoms: N_6  and  C_16
REMARK    6  A    between atoms: N_7  and  C_17
REMARK    7  A    between atoms: N_11  and  C_22
REMARK    8  A    between atoms: N_12  and  C_32
REMARK                            x       y       z     vdW  Elec       q    Type
REMARK                         _______ _______ _______ _____ _____    ______ ____
ROOT
ATOM      1  O   UNL     1      15.558   6.913  22.050  0.00  0.00    -0.370 OA
ATOM      2  O   UNL     1      17.375   9.007  20.565  0.00  0.00    -0.370 OA
ATOM     14  C   UNL     1      16.429   8.017  20.124  0.00  0.00    +0.176 C 
ATOM     15  C   UNL     1      16.576   6.817  21.040  0.00  0.00    +0.172 C 
ATOM     16  C   UNL     1      15.015   8.513  20.362  0.00  0.00    +0.171 C 
ATOM     17  C   UNL     1      17.945   6.986  21.659  0.00  0.00    +0.131 C 
ATOM     18  C   UNL     1      14.725   8.049  21.786  0.00  0.00    +0.190 C 
ATOM     19  C   UNL     1      18.104   8.494  21.689  0.00  0.00    +0.185 C 
ENDROOT
BRANCH  17   7
ATOM      4  O   UNL     1      20.300   5.643  22.588  0.00  0.00    -0.252 OA
ATOM      7  N   UNL     1      18.965   6.369  20.845  0.00  0.00    -0.292 N 
ATOM     11  N   UNL     1      20.899   5.230  20.357  0.00  0.00    -0.269 N 
ATOM     21  C   UNL     1      20.090   5.730  21.381  0.00  0.00    +0.304 C 
ATOM     43  H   UNL     1      18.828   6.340  19.840  0.00  0.00    +0.151 HD
ATOM     44  H   UNL     1      20.580   5.389  19.404  0.00  0.00    +0.156 HD
BRANCH  11  22
ATOM     22  C   UNL     1      22.119   4.524  20.480  0.00  0.00    +0.035 A 
ATOM     26  C   UNL     1      23.326   5.166  20.207  0.00  0.00    +0.027 A 
ATOM     27  C   UNL     1      22.113   3.185  20.874  0.00  0.00    +0.027 A 
ATOM     30  C   UNL     1      24.529   4.469  20.327  0.00  0.00    +0.048 A 
ATOM     31  C   UNL     1      23.316   2.489  20.994  0.00  0.00    +0.048 A 
ATOM     33  C   UNL     1      24.523   3.131  20.721  0.00  0.00    +0.129 A 
BRANCH  33   5
ATOM      5  O   UNL     1      25.697   2.451  20.837  0.00  0.00    -0.456 OA
BRANCH   5  36
ATOM     36  C   UNL     1      25.926   1.759  22.015  0.00  0.00    +0.128 A 
ATOM     38  C   UNL     1      26.286   2.451  23.171  0.00  0.00    +0.046 A 
ATOM     39  C   UNL     1      25.797   0.371  22.044  0.00  0.00    +0.046 A 
ATOM     40  C   UNL     1      26.517   1.754  24.357  0.00  0.00    +0.004 A 
ATOM     41  C   UNL     1      26.029  -0.326  23.230  0.00  0.00    +0.004 A 
ATOM     42  C   UNL     1      26.389   0.365  24.387  0.00  0.00    +0.000 A 
ENDBRANCH   5  36
ENDBRANCH  33   5
ENDBRANCH  11  22
ENDBRANCH  17   7
BRANCH  16   6
ATOM      6  N   UNL     1      14.073   8.032  19.349  0.00  0.00    -0.187 N 
ATOM      8  N   UNL     1      14.439   7.906  18.065  0.00  0.00    -0.041 NA
ATOM      9  N   UNL     1      12.309   7.296  18.322  0.00  0.00    -0.071 NA
ATOM     10  N   UNL     1      13.357   7.455  17.443  0.00  0.00    -0.020 NA
ATOM     20  C   UNL     1      12.774   7.659  19.496  0.00  0.00    +0.342 A 
BRANCH  20   3
ATOM      3  O   UNL     1      12.113   7.669  20.637  0.00  0.00    -0.423 OA
BRANCH   3  23
ATOM     23  C   UNL     1      11.775   8.900  21.222  0.00  0.00    +0.132 A 
ATOM     24  C   UNL     1      12.017  10.090  20.534  0.00  0.00    +0.048 A 
ATOM     25  C   UNL     1      11.198   8.935  22.491  0.00  0.00    +0.048 A 
ATOM     28  C   UNL     1      11.682  11.313  21.114  0.00  0.00    +0.030 A 
ATOM     29  C   UNL     1      10.862  10.158  23.072  0.00  0.00    +0.030 A 
ATOM     32  C   UNL     1      11.104  11.347  22.384  0.00  0.00    +0.048 A 
BRANCH  32  12
ATOM     12  N   UNL     1      10.771  12.559  22.959  0.00  0.00    -0.306 N 
ATOM     13  N   UNL     1      10.239  14.710  23.121  0.00  0.00    -0.244 NA
ATOM     34  C   UNL     1      10.614  12.806  24.293  0.00  0.00    +0.112 A 
ATOM     35  C   UNL     1      10.536  13.732  22.296  0.00  0.00    +0.204 A 
ATOM     37  C   UNL     1      10.287  14.139  24.369  0.00  0.00    +0.130 A 
ENDBRANCH  32  12
ENDBRANCH   3  23
ENDBRANCH  20   3
ENDBRANCH  16   6
TORSDOF 8
ENDMDL
MODEL 9
REMARK VINA RESULT:      -7.8      7.016     14.299
REMARK  Name = 11879647
REMARK  8 active torsions:
REMARK  status: ('A' for Active; 'I' for Inactive)
REMARK    1  A    between atoms: O_3  and  C_20
REMARK    2  A    between atoms: O_3  and  C_23
REMARK    3  A    between atoms: O_5  and  C_33
REMARK    4  A    between atoms: O_5  and  C_36
REMARK    5  A    between atoms: N_6  and  C_16
REMARK    6  A    between atoms: N_7  and  C_17
REMARK    7  A    between atoms: N_11  and  C_22
REMARK    8  A    between atoms: N_12  and  C_32
REMARK                            x       y       z     vdW  Elec       q    Type
REMARK                         _______ _______ _______ _____ _____    ______ ____
ROOT
ATOM      1  O   UNL     1      12.575  13.461   9.862  0.00  0.00    -0.370 OA
ATOM      2  O   UNL     1      10.442  12.679  12.037  0.00  0.00    -0.370 OA
ATOM     14  C   UNL     1      11.750  12.185  11.700  0.00  0.00    +0.176 C 
ATOM     15  C   UNL     1      11.878  12.248  10.190  0.00  0.00    +0.172 C 
ATOM     16  C   UNL     1      12.811  13.138  12.216  0.00  0.00    +0.171 C 
ATOM     17  C   UNL     1      10.450  12.315   9.697  0.00  0.00    +0.131 C 
ATOM     18  C   UNL     1      12.971  14.129  11.068  0.00  0.00    +0.190 C 
ATOM     19  C   UNL     1       9.749  13.036  10.833  0.00  0.00    +0.185 C 
ENDROOT
BRANCH  17   7
ATOM      4  O   UNL     1      10.840  10.622   7.419  0.00  0.00    -0.252 OA
ATOM      7  N   UNL     1       9.904  10.994   9.500  0.00  0.00    -0.292 N 
ATOM     11  N   UNL     1       9.488   8.999   8.441  0.00  0.00    -0.269 N 
ATOM     21  C   UNL     1      10.144  10.229   8.351  0.00  0.00    +0.304 C 
ATOM     43  H   UNL     1       9.374  10.573  10.256  0.00  0.00    +0.151 HD
ATOM     44  H   UNL     1       8.948   8.829   9.285  0.00  0.00    +0.156 HD
BRANCH  11  22
ATOM     22  C   UNL     1       9.479   7.949   7.492  0.00  0.00    +0.035 A 
ATOM     26  C   UNL     1       8.343   7.719   6.717  0.00  0.00    +0.027 A 
ATOM     27  C   UNL     1      10.608   7.143   7.334  0.00  0.00    +0.027 A 
ATOM     30  C   UNL     1       8.334   6.683   5.783  0.00  0.00    +0.048 A 
ATOM     31  C   UNL     1      10.598   6.107   6.399  0.00  0.00    +0.048 A 
ATOM     33  C   UNL     1       9.462   5.878   5.624  0.00  0.00    +0.129 A 
BRANCH  33   5
ATOM      5  O   UNL     1       9.453   4.865   4.714  0.00  0.00    -0.456 OA
BRANCH   5  36
ATOM     36  C   UNL     1      10.210   5.026   3.565  0.00  0.00    +0.128 A 
ATOM     38  C   UNL     1      11.070   4.011   3.148  0.00  0.00    +0.046 A 
ATOM     39  C   UNL     1      10.111   6.205   2.826  0.00  0.00    +0.046 A 
ATOM     40  C   UNL     1      11.833   4.174   1.992  0.00  0.00    +0.004 A 
ATOM     41  C   UNL     1      10.874   6.368   1.669  0.00  0.00    +0.004 A 
ATOM     42  C   UNL     1      11.735   5.353   1.252  0.00  0.00    +0.000 A 
ENDBRANCH   5  36
ENDBRANCH  33   5
ENDBRANCH  11  22
ENDBRANCH  17   7
BRANCH  16   6
ATOM      6  N   UNL     1      14.041  12.448  12.616  0.00  0.00    -0.187 N 
ATOM      8  N   UNL     1      15.190  12.638  11.952  0.00  0.00    -0.041 NA
ATOM      9  N   UNL     1      15.497  11.198  13.627  0.00  0.00    -0.071 NA
ATOM     10  N   UNL     1      16.076  11.872  12.576  0.00  0.00    -0.020 NA
ATOM     20  C   UNL     1      14.237  11.570  13.634  0.00  0.00    +0.342 A 
BRANCH  20   3
ATOM      3  O   UNL     1      13.302  11.171  14.474  0.00  0.00    -0.423 OA
BRANCH   3  23
ATOM     23  C   UNL     1      13.674  10.454  15.624  0.00  0.00    +0.132 A 
ATOM     24  C   UNL     1      14.052  11.137  16.780  0.00  0.00    +0.048 A 
ATOM     25  C   UNL     1      13.666   9.059  15.609  0.00  0.00    +0.048 A 
ATOM     28  C   UNL     1      14.422  10.426  17.921  0.00  0.00    +0.030 A 
ATOM     29  C   UNL     1      14.036   8.348  16.750  0.00  0.00    +0.030 A 
ATOM     32  C   UNL     1      14.415   9.031  17.906  0.00  0.00    +0.048 A 
BRANCH  32  12
ATOM     12  N   UNL     1      14.781   8.325  19.038  0.00  0.00    -0.306 N 
ATOM     13  N   UNL     1      15.366   6.611  20.323  0.00  0.00    -0.244 NA
ATOM     34  C   UNL     1      14.951   8.839  20.291  0.00  0.00    +0.112 A 
ATOM     35  C   UNL     1      15.041   6.985  19.106  0.00  0.00    +0.204 A 
ATOM     37  C   UNL     1      15.311   7.763  21.067  0.00  0.00    +0.130 A 
ENDBRANCH  32  12
ENDBRANCH   3  23
ENDBRANCH  20   3
ENDBRANCH  16   6
TORSDOF 8
ENDMDL
MODEL 10
REMARK VINA RESULT:      -7.8     28.315     31.924
REMARK  Name = 11879647
REMARK  8 active torsions:
REMARK  status: ('A' for Active; 'I' for Inactive)
REMARK    1  A    between atoms: O_3  and  C_20
REMARK    2  A    between atoms: O_3  and  C_23
REMARK    3  A    between atoms: O_5  and  C_33
REMARK    4  A    between atoms: O_5  and  C_36
REMARK    5  A    between atoms: N_6  and  C_16
REMARK    6  A    between atoms: N_7  and  C_17
REMARK    7  A    between atoms: N_11  and  C_22
REMARK    8  A    between atoms: N_12  and  C_32
REMARK                            x       y       z     vdW  Elec       q    Type
REMARK                         _______ _______ _______ _____ _____    ______ ____
ROOT
ATOM      1  O   UNL     1      -5.260 -13.119  16.677  0.00  0.00    -0.370 OA
ATOM      2  O   UNL     1      -3.766 -10.472  17.486  0.00  0.00    -0.370 OA
ATOM     14  C   UNL     1      -5.151 -10.857  17.425  0.00  0.00    +0.176 C 
ATOM     15  C   UNL     1      -5.312 -11.759  16.216  0.00  0.00    +0.172 C 
ATOM     16  C   UNL     1      -5.495 -11.738  18.611  0.00  0.00    +0.171 C 
ATOM     17  C   UNL     1      -4.106 -11.450  15.357  0.00  0.00    +0.131 C 
ATOM     18  C   UNL     1      -5.160 -13.138  18.107  0.00  0.00    +0.190 C 
ATOM     19  C   UNL     1      -3.062 -11.071  16.389  0.00  0.00    +0.185 C 
ENDROOT
BRANCH  17   7
ATOM      4  O   UNL     1      -5.680 -11.545  12.964  0.00  0.00    -0.252 OA
ATOM      7  N   UNL     1      -4.374 -10.355  14.456  0.00  0.00    -0.292 N 
ATOM     11  N   UNL     1      -5.240  -9.264  12.630  0.00  0.00    -0.269 N 
ATOM     21  C   UNL     1      -5.157 -10.487  13.302  0.00  0.00    +0.304 C 
ATOM     43  H   UNL     1      -4.033  -9.432  14.704  0.00  0.00    +0.151 HD
ATOM     44  H   UNL     1      -4.745  -8.479  13.046  0.00  0.00    +0.156 HD
BRANCH  11  22
ATOM     22  C   UNL     1      -5.934  -8.979  11.430  0.00  0.00    +0.035 A 
ATOM     26  C   UNL     1      -7.311  -9.182  11.356  0.00  0.00    +0.027 A 
ATOM     27  C   UNL     1      -5.238  -8.497  10.321  0.00  0.00    +0.027 A 
ATOM     30  C   UNL     1      -7.994  -8.902  10.172  0.00  0.00    +0.048 A 
ATOM     31  C   UNL     1      -5.921  -8.217   9.137  0.00  0.00    +0.048 A 
ATOM     33  C   UNL     1      -7.299  -8.419   9.063  0.00  0.00    +0.129 A 
BRANCH  33   5
ATOM      5  O   UNL     1      -7.965  -8.148   7.907  0.00  0.00    -0.456 OA
BRANCH   5  36
ATOM     36  C   UNL     1      -9.018  -7.250   7.967  0.00  0.00    +0.128 A 
ATOM     38  C   UNL     1      -8.802  -5.950   8.422  0.00  0.00    +0.046 A 
ATOM     39  C   UNL     1     -10.296  -7.648   7.573  0.00  0.00    +0.046 A 
ATOM     40  C   UNL     1      -9.863  -5.047   8.483  0.00  0.00    +0.004 A 
ATOM     41  C   UNL     1     -11.357  -6.745   7.634  0.00  0.00    +0.004 A 
ATOM     42  C   UNL     1     -11.141  -5.444   8.089  0.00  0.00    +0.000 A 
ENDBRANCH   5  36
ENDBRANCH  33   5
ENDBRANCH  11  22
ENDBRANCH  17   7
BRANCH  16   6
ATOM      6  N   UNL     1      -6.876 -11.556  19.065  0.00  0.00    -0.187 N 
ATOM      8  N   UNL     1      -7.457 -12.438  19.891  0.00  0.00    -0.041 NA
ATOM      9  N   UNL     1      -8.881 -10.796  19.392  0.00  0.00    -0.071 NA
ATOM     10  N   UNL     1      -8.682 -11.966  20.089  0.00  0.00    -0.020 NA
ATOM     20  C   UNL     1      -7.751 -10.560  18.766  0.00  0.00    +0.342 A 
BRANCH  20   3
ATOM      3  O   UNL     1      -7.486  -9.538  17.975  0.00  0.00    -0.423 OA
BRANCH   3  23
ATOM     23  C   UNL     1      -8.474  -9.085  17.086  0.00  0.00    +0.132 A 
ATOM     24  C   UNL     1      -8.598  -9.668  15.824  0.00  0.00    +0.048 A 
ATOM     25  C   UNL     1      -9.332  -8.052  17.464  0.00  0.00    +0.048 A 
ATOM     28  C   UNL     1      -9.579  -9.218  14.941  0.00  0.00    +0.030 A 
ATOM     29  C   UNL     1     -10.313  -7.602  16.580  0.00  0.00    +0.030 A 
ATOM     32  C   UNL     1     -10.436  -8.185  15.319  0.00  0.00    +0.048 A 
BRANCH  32  12
ATOM     12  N   UNL     1     -11.410  -7.740  14.443  0.00  0.00    -0.306 N 
ATOM     13  N   UNL     1     -12.921  -6.401  13.517  0.00  0.00    -0.244 NA
ATOM     34  C   UNL     1     -11.910  -8.425  13.373  0.00  0.00    +0.112 A 
ATOM     35  C   UNL     1     -12.047  -6.531  14.490  0.00  0.00    +0.204 A 
ATOM     37  C   UNL     1     -12.841  -7.579  12.817  0.00  0.00    +0.130 A 
ENDBRANCH  32  12
ENDBRANCH   3  23
ENDBRANCH  20   3
ENDBRANCH  16   6
TORSDOF 8
ENDMDL
