REMARK  Name = 45784113
REMARK  12 active torsions:
REMARK  status: ('A' for Active; 'I' for Inactive)
REMARK    1  A    between atoms: N_2  and  C_13
REMARK    2  A    between atoms: C_8  and  C_12
REMARK    3  A    between atoms: C_9  and  C_13
REMARK    4  A    between atoms: C_11  and  C_16
REMARK    5  A    between atoms: C_12  and  C_17
REMARK    6  A    between atoms: C_12  and  C_18
REMARK    7  A    between atoms: C_15  and  C_21
REMARK    8  A    between atoms: C_16  and  C_24
REMARK    9  A    between atoms: C_26  and  C_27
REMARK   10  A    between atoms: C_27  and  C_29
REMARK   11  A    between atoms: C_27  and  C_30
REMARK   12  A    between atoms: C_27  and  C_31
REMARK                            x       y       z     vdW  Elec       q    Type
REMARK                         _______ _______ _______ _____ _____    ______ ____
ROOT
ATOM      8  C   UNL     1       0.241  -0.632  -0.793  0.00  0.00    +0.000 C 
ATOM      9  C   UNL     1      -0.365  -1.981  -0.341  0.00  0.00    +0.029 C 
ATOM     10  C   UNL     1       1.359  -0.197   0.164  0.00  0.00    +0.012 C 
ATOM     11  C   UNL     1       2.485  -1.243   0.306  0.00  0.00    +0.024 C 
ATOM     14  C   UNL     1       0.688  -2.981   0.068  0.00  0.00    -0.023 C 
ATOM     15  C   UNL     1       1.967  -2.673   0.348  0.00  0.00    -0.073 C 
ATOM     21  C   UNL     1       2.957  -3.761   0.662  0.00  0.00    +0.039 C 
ENDROOT
BRANCH   8  12
ATOM     12  C   UNL     1       0.746  -0.703  -2.241  0.00  0.00    -0.013 C 
ATOM     17  C   UNL     1       1.708   0.446  -2.525  0.00  0.00    +0.007 C 
ATOM     18  C   UNL     1      -0.428  -0.680  -3.215  0.00  0.00    +0.007 C 
ENDBRANCH   8  12
BRANCH   9  13
ATOM     13  C   UNL     1      -1.359  -1.798   0.810  0.00  0.00    +0.092 C 
BRANCH  13   2
ATOM      2  N   UNL     1      -2.410  -0.851   0.440  0.00  0.00    -0.299 NA
ATOM      3  N   UNL     1      -5.080   0.152   0.287  0.00  0.00    -0.312 N 
ATOM      6  N   UNL     1      -6.705   1.234  -1.066  0.00  0.00    -0.237 NA
ATOM      7  N   UNL     1      -8.419   1.307   1.153  0.00  0.00    -0.258 NA
ATOM     19  C   UNL     1      -3.076  -0.326   1.637  0.00  0.00    +0.103 C 
ATOM     20  C   UNL     1      -3.396  -1.494  -0.439  0.00  0.00    +0.103 C 
ATOM     22  C   UNL     1      -4.141   0.709   1.266  0.00  0.00    +0.122 C 
ATOM     23  C   UNL     1      -4.470  -0.498  -0.880  0.00  0.00    +0.122 C 
ATOM     25  C   UNL     1      -6.344   0.731   0.131  0.00  0.00    +0.140 A 
ATOM     28  C   UNL     1      -7.186   0.767   1.221  0.00  0.00    +0.154 A 
ATOM     32  C   UNL     1      -7.939   1.774  -1.134  0.00  0.00    +0.132 A 
ATOM     33  C   UNL     1      -8.780   1.810  -0.044  0.00  0.00    +0.130 A 
ENDBRANCH  13   2
ENDBRANCH   9  13
BRANCH  11  16
ATOM     16  C   UNL     1       3.339  -0.881   1.527  0.00  0.00    +0.105 C 
BRANCH  16  24
ATOM      1  O   UNL     1       5.321   0.090   0.488  0.00  0.00    -0.424 OA
ATOM      4  N   UNL     1       4.081   1.554   1.639  0.00  0.00    -0.112 NA
ATOM      5  N   UNL     1       5.162   2.233   1.109  0.00  0.00    -0.112 NA
ATOM     24  C   UNL     1       4.215   0.307   1.252  0.00  0.00    +0.218 A 
ATOM     26  C   UNL     1       5.858   1.340   0.445  0.00  0.00    +0.223 A 
BRANCH  26  27
ATOM     27  C   UNL     1       7.102   1.502  -0.318  0.00  0.00    +0.040 C 
ATOM     29  C   UNL     1       7.617   2.983  -0.296  0.00  0.00    +0.020 C 
ATOM     30  C   UNL     1       6.922   1.109  -1.827  0.00  0.00    +0.020 C 
ATOM     31  C   UNL     1       8.332   0.648   0.169  0.00  0.00    +0.020 C 
ENDBRANCH  26  27
ENDBRANCH  16  24
ENDBRANCH  11  16
TORSDOF 6
