MODEL 1
REMARK VINA RESULT:      -8.1      0.000      0.000
REMARK  Name = 26761929
REMARK  4 active torsions:
REMARK  status: ('A' for Active; 'I' for Inactive)
REMARK    1  A    between atoms: N_4  and  C_14
REMARK    2  A    between atoms: C_9  and  C_15
REMARK    3  A    between atoms: C_14  and  C_16
REMARK    4  A    between atoms: C_20  and  C_23
REMARK                            x       y       z     vdW  Elec       q    Type
REMARK                         _______ _______ _______ _____ _____    ______ ____
ROOT
ATOM      4  N   UNL     1      13.967   8.927  19.683  0.00  0.00    -0.281 NA
ATOM      5  N   UNL     1      14.425  10.689  16.434  0.00  0.00    -0.347 N 
ATOM      6  N   UNL     1      13.599   8.810  15.546  0.00  0.00    -0.240 NA
ATOM      9  C   UNL     1      14.081   7.542  19.131  0.00  0.00    +0.152 C 
ATOM     10  C   UNL     1      13.484   7.444  17.682  0.00  0.00    +0.086 C 
ATOM     11  C   UNL     1      14.628   9.983  18.888  0.00  0.00    +0.140 C 
ATOM     12  C   UNL     1      14.287   9.804  17.459  0.00  0.00    +0.053 A 
ATOM     13  C   UNL     1      13.786   8.660  16.890  0.00  0.00    +0.065 A 
ATOM     17  C   UNL     1      13.995  10.044  15.300  0.00  0.00    +0.197 A 
ATOM     30  H   UNL     1      14.776  11.635  16.490  0.00  0.00    +0.167 HD
ENDROOT
BRANCH   9  15
ATOM      3  O   UNL     1      15.841   6.071  18.249  0.00  0.00    -0.336 OA
ATOM      7  N   UNL     1      16.358   7.032  20.204  0.00  0.00    -0.190 NA
ATOM      8  N   UNL     1      17.122   5.612  18.580  0.00  0.00    -0.056 NA
ATOM     15  C   UNL     1      15.465   6.901  19.257  0.00  0.00    +0.245 A 
ATOM     20  C   UNL     1      17.356   6.222  19.746  0.00  0.00    +0.202 A 
BRANCH  20  23
ATOM      1 CL   UNL     1      20.318   7.589  23.730  0.00  0.00    -0.081 Cl
ATOM      2  F   UNL     1      22.103   5.526  22.568  0.00  0.00    -0.204 F 
ATOM     23  C   UNL     1      18.578   6.047  20.476  0.00  0.00    +0.024 A 
ATOM     25  C   UNL     1      18.828   6.813  21.615  0.00  0.00    +0.034 A 
ATOM     26  C   UNL     1      19.518   5.109  20.047  0.00  0.00    +0.014 A 
ATOM     27  C   UNL     1      20.016   6.641  22.325  0.00  0.00    +0.077 A 
ATOM     28  C   UNL     1      20.706   4.937  20.757  0.00  0.00    +0.040 A 
ATOM     29  C   UNL     1      20.955   5.703  21.897  0.00  0.00    +0.142 A 
ENDBRANCH  20  23
ENDBRANCH   9  15
BRANCH   4  14
ATOM     14  C   UNL     1      14.305   9.034  21.098  0.00  0.00    +0.120 C 
BRANCH  14  16
ATOM     16  C   UNL     1      13.147   9.545  21.914  0.00  0.00    -0.033 A 
ATOM     18  C   UNL     1      11.954   8.825  21.960  0.00  0.00    +0.005 A 
ATOM     19  C   UNL     1      13.268  10.740  22.624  0.00  0.00    +0.005 A 
ATOM     21  C   UNL     1      10.881   9.299  22.715  0.00  0.00    +0.000 A 
ATOM     22  C   UNL     1      12.196  11.214  23.379  0.00  0.00    +0.000 A 
ATOM     24  C   UNL     1      11.002  10.493  23.425  0.00  0.00    +0.000 A 
ENDBRANCH  14  16
ENDBRANCH   4  14
TORSDOF 4
ENDMDL
MODEL 2
REMARK VINA RESULT:      -7.8      1.864      2.326
REMARK  Name = 26761929
REMARK  4 active torsions:
REMARK  status: ('A' for Active; 'I' for Inactive)
REMARK    1  A    between atoms: N_4  and  C_14
REMARK    2  A    between atoms: C_9  and  C_15
REMARK    3  A    between atoms: C_14  and  C_16
REMARK    4  A    between atoms: C_20  and  C_23
REMARK                            x       y       z     vdW  Elec       q    Type
REMARK                         _______ _______ _______ _____ _____    ______ ____
ROOT
ATOM      4  N   UNL     1      13.001   9.993  19.901  0.00  0.00    -0.281 NA
ATOM      5  N   UNL     1      12.157   9.929  16.275  0.00  0.00    -0.347 N 
ATOM      6  N   UNL     1      11.181   7.976  16.757  0.00  0.00    -0.240 NA
ATOM      9  C   UNL     1      12.993   8.511  20.093  0.00  0.00    +0.152 C 
ATOM     10  C   UNL     1      11.922   7.813  19.179  0.00  0.00    +0.086 C 
ATOM     11  C   UNL     1      13.269  10.452  18.522  0.00  0.00    +0.140 C 
ATOM     12  C   UNL     1      12.449   9.662  17.577  0.00  0.00    +0.053 A 
ATOM     13  C   UNL     1      11.846   8.459  17.847  0.00  0.00    +0.065 A 
ATOM     17  C   UNL     1      11.389   8.884  15.823  0.00  0.00    +0.197 A 
ATOM     30  H   UNL     1      12.448  10.736  15.739  0.00  0.00    +0.167 HD
ENDROOT
BRANCH   9  15
ATOM      3  O   UNL     1      14.486   6.784  19.183  0.00  0.00    -0.336 OA
ATOM      7  N   UNL     1      15.460   8.123  20.692  0.00  0.00    -0.190 NA
ATOM      8  N   UNL     1      15.809   6.339  19.302  0.00  0.00    -0.056 NA
ATOM     15  C   UNL     1      14.365   7.836  20.035  0.00  0.00    +0.245 A 
ATOM     20  C   UNL     1      16.318   7.177  20.210  0.00  0.00    +0.202 A 
BRANCH  20  23
ATOM      1 CL   UNL     1      20.744   4.551  20.337  0.00  0.00    -0.081 Cl
ATOM      2  F   UNL     1      21.598   6.891  21.944  0.00  0.00    -0.204 F 
ATOM     23  C   UNL     1      17.679   7.099  20.654  0.00  0.00    +0.024 A 
ATOM     25  C   UNL     1      18.461   5.993  20.321  0.00  0.00    +0.034 A 
ATOM     26  C   UNL     1      18.221   8.129  21.422  0.00  0.00    +0.014 A 
ATOM     27  C   UNL     1      19.784   5.918  20.752  0.00  0.00    +0.077 A 
ATOM     28  C   UNL     1      19.546   8.055  21.855  0.00  0.00    +0.040 A 
ATOM     29  C   UNL     1      20.327   6.948  21.520  0.00  0.00    +0.142 A 
ENDBRANCH  20  23
ENDBRANCH   9  15
BRANCH   4  14
ATOM     14  C   UNL     1      13.817  10.714  20.871  0.00  0.00    +0.120 C 
BRANCH  14  16
ATOM     16  C   UNL     1      12.976  11.365  21.937  0.00  0.00    -0.033 A 
ATOM     18  C   UNL     1      13.438  11.424  23.252  0.00  0.00    +0.005 A 
ATOM     19  C   UNL     1      11.735  11.911  21.610  0.00  0.00    +0.005 A 
ATOM     21  C   UNL     1      12.658  12.026  24.239  0.00  0.00    +0.000 A 
ATOM     22  C   UNL     1      10.955  12.513  22.596  0.00  0.00    +0.000 A 
ATOM     24  C   UNL     1      11.417  12.572  23.912  0.00  0.00    +0.000 A 
ENDBRANCH  14  16
ENDBRANCH   4  14
TORSDOF 4
ENDMDL
MODEL 3
REMARK VINA RESULT:      -7.3     27.685     29.299
REMARK  Name = 26761929
REMARK  4 active torsions:
REMARK  status: ('A' for Active; 'I' for Inactive)
REMARK    1  A    between atoms: N_4  and  C_14
REMARK    2  A    between atoms: C_9  and  C_15
REMARK    3  A    between atoms: C_14  and  C_16
REMARK    4  A    between atoms: C_20  and  C_23
REMARK                            x       y       z     vdW  Elec       q    Type
REMARK                         _______ _______ _______ _____ _____    ______ ____
ROOT
ATOM      4  N   UNL     1      -3.112 -11.915  15.061  0.00  0.00    -0.281 NA
ATOM      5  N   UNL     1      -4.090 -15.344  13.987  0.00  0.00    -0.347 N 
ATOM      6  N   UNL     1      -1.977 -15.489  13.270  0.00  0.00    -0.240 NA
ATOM      9  C   UNL     1      -2.024 -11.736  14.051  0.00  0.00    +0.152 C 
ATOM     10  C   UNL     1      -1.292 -13.091  13.741  0.00  0.00    +0.086 C 
ATOM     11  C   UNL     1      -4.166 -12.883  14.691  0.00  0.00    +0.140 C 
ATOM     12  C   UNL     1      -3.536 -14.114  14.164  0.00  0.00    +0.053 A 
ATOM     13  C   UNL     1      -2.245 -14.226  13.713  0.00  0.00    +0.065 A 
ATOM     17  C   UNL     1      -3.110 -16.140  13.446  0.00  0.00    +0.197 A 
ATOM     30  H   UNL     1      -5.037 -15.623  14.206  0.00  0.00    +0.167 HD
ENDROOT
BRANCH   9  15
ATOM      3  O   UNL     1      -1.449 -10.216  12.208  0.00  0.00    -0.336 OA
ATOM      7  N   UNL     1      -3.577 -10.914  12.179  0.00  0.00    -0.190 NA
ATOM      8  N   UNL     1      -2.041  -9.612  11.091  0.00  0.00    -0.056 NA
ATOM     15  C   UNL     1      -2.422 -10.965  12.791  0.00  0.00    +0.245 A 
ATOM     20  C   UNL     1      -3.295 -10.072  11.143  0.00  0.00    +0.202 A 
BRANCH  20  23
ATOM      1 CL   UNL     1      -5.297 -10.765   6.450  0.00  0.00    -0.081 Cl
ATOM      2  F   UNL     1      -7.160  -8.661   7.394  0.00  0.00    -0.204 F 
ATOM     23  C   UNL     1      -4.289  -9.711  10.173  0.00  0.00    +0.024 A 
ATOM     25  C   UNL     1      -4.309 -10.338   8.927  0.00  0.00    +0.034 A 
ATOM     26  C   UNL     1      -5.236  -8.733  10.477  0.00  0.00    +0.014 A 
ATOM     27  C   UNL     1      -5.276  -9.988   7.986  0.00  0.00    +0.077 A 
ATOM     28  C   UNL     1      -6.203  -8.382   9.535  0.00  0.00    +0.040 A 
ATOM     29  C   UNL     1      -6.224  -9.010   8.289  0.00  0.00    +0.142 A 
ENDBRANCH  20  23
ENDBRANCH   9  15
BRANCH   4  14
ATOM     14  C   UNL     1      -3.683 -10.665  15.549  0.00  0.00    +0.120 C 
BRANCH  14  16
ATOM     16  C   UNL     1      -4.369 -10.843  16.878  0.00  0.00    -0.033 A 
ATOM     18  C   UNL     1      -5.624 -10.275  17.097  0.00  0.00    +0.005 A 
ATOM     19  C   UNL     1      -3.749 -11.576  17.890  0.00  0.00    +0.005 A 
ATOM     21  C   UNL     1      -6.259 -10.440  18.328  0.00  0.00    +0.000 A 
ATOM     22  C   UNL     1      -4.383 -11.741  19.120  0.00  0.00    +0.000 A 
ATOM     24  C   UNL     1      -5.639 -11.173  19.340  0.00  0.00    +0.000 A 
ENDBRANCH  14  16
ENDBRANCH   4  14
TORSDOF 4
ENDMDL
MODEL 4
REMARK VINA RESULT:      -7.3     27.182     29.301
REMARK  Name = 26761929
REMARK  4 active torsions:
REMARK  status: ('A' for Active; 'I' for Inactive)
REMARK    1  A    between atoms: N_4  and  C_14
REMARK    2  A    between atoms: C_9  and  C_15
REMARK    3  A    between atoms: C_14  and  C_16
REMARK    4  A    between atoms: C_20  and  C_23
REMARK                            x       y       z     vdW  Elec       q    Type
REMARK                         _______ _______ _______ _____ _____    ______ ____
ROOT
ATOM      4  N   UNL     1      -2.655 -12.833  12.139  0.00  0.00    -0.281 NA
ATOM      5  N   UNL     1      -4.775 -10.496  10.163  0.00  0.00    -0.347 N 
ATOM      6  N   UNL     1      -3.040  -9.099  10.358  0.00  0.00    -0.240 NA
ATOM      9  C   UNL     1      -1.856 -11.777  12.833  0.00  0.00    +0.152 C 
ATOM     10  C   UNL     1      -1.628 -10.524  11.913  0.00  0.00    +0.086 C 
ATOM     11  C   UNL     1      -3.991 -12.412  11.671  0.00  0.00    +0.140 C 
ATOM     12  C   UNL     1      -3.879 -11.104  10.988  0.00  0.00    +0.053 A 
ATOM     13  C   UNL     1      -2.829 -10.228  11.097  0.00  0.00    +0.065 A 
ATOM     17  C   UNL     1      -4.223  -9.289   9.809  0.00  0.00    +0.197 A 
ATOM     30  H   UNL     1      -5.673 -10.855   9.868  0.00  0.00    +0.167 HD
ENDROOT
BRANCH   9  15
ATOM      3  O   UNL     1      -1.384 -11.004  15.118  0.00  0.00    -0.336 OA
ATOM      7  N   UNL     1      -3.548 -11.432  14.734  0.00  0.00    -0.190 NA
ATOM      8  N   UNL     1      -2.053 -10.729  16.317  0.00  0.00    -0.056 NA
ATOM     15  C   UNL     1      -2.337 -11.411  14.239  0.00  0.00    +0.245 A 
ATOM     20  C   UNL     1      -3.324 -11.007  16.011  0.00  0.00    +0.202 A 
BRANCH  20  23
ATOM      1 CL   UNL     1      -7.975  -9.096  17.119  0.00  0.00    -0.081 Cl
ATOM      2  F   UNL     1      -7.464 -10.475  19.692  0.00  0.00    -0.204 F 
ATOM     23  C   UNL     1      -4.394 -10.867  16.957  0.00  0.00    +0.024 A 
ATOM     25  C   UNL     1      -5.532 -10.135  16.620  0.00  0.00    +0.034 A 
ATOM     26  C   UNL     1      -4.294 -11.463  18.214  0.00  0.00    +0.014 A 
ATOM     27  C   UNL     1      -6.572 -10.000  17.540  0.00  0.00    +0.077 A 
ATOM     28  C   UNL     1      -5.334 -11.328  19.134  0.00  0.00    +0.040 A 
ATOM     29  C   UNL     1      -6.474 -10.596  18.797  0.00  0.00    +0.142 A 
ENDBRANCH  20  23
ENDBRANCH   9  15
BRANCH   4  14
ATOM     14  C   UNL     1      -2.716 -14.101  12.859  0.00  0.00    +0.120 C 
BRANCH  14  16
ATOM     16  C   UNL     1      -2.215 -15.247  12.018  0.00  0.00    -0.033 A 
ATOM     18  C   UNL     1      -2.946 -15.668  10.907  0.00  0.00    +0.005 A 
ATOM     19  C   UNL     1      -1.021 -15.886  12.351  0.00  0.00    +0.005 A 
ATOM     21  C   UNL     1      -2.482 -16.729  10.130  0.00  0.00    +0.000 A 
ATOM     22  C   UNL     1      -0.558 -16.946  11.575  0.00  0.00    +0.000 A 
ATOM     24  C   UNL     1      -1.288 -17.368  10.463  0.00  0.00    +0.000 A 
ENDBRANCH  14  16
ENDBRANCH   4  14
TORSDOF 4
ENDMDL
MODEL 5
REMARK VINA RESULT:      -7.1      4.082      7.283
REMARK  Name = 26761929
REMARK  4 active torsions:
REMARK  status: ('A' for Active; 'I' for Inactive)
REMARK    1  A    between atoms: N_4  and  C_14
REMARK    2  A    between atoms: C_9  and  C_15
REMARK    3  A    between atoms: C_14  and  C_16
REMARK    4  A    between atoms: C_20  and  C_23
REMARK                            x       y       z     vdW  Elec       q    Type
REMARK                         _______ _______ _______ _____ _____    ______ ____
ROOT
ATOM      4  N   UNL     1      13.717   7.091  20.738  0.00  0.00    -0.281 NA
ATOM      5  N   UNL     1      12.549   9.818  22.990  0.00  0.00    -0.347 N 
ATOM      6  N   UNL     1      10.506   9.197  22.327  0.00  0.00    -0.240 NA
ATOM      9  C   UNL     1      12.537   7.126  19.820  0.00  0.00    +0.152 C 
ATOM     10  C   UNL     1      11.216   7.490  20.588  0.00  0.00    +0.086 C 
ATOM     11  C   UNL     1      13.990   8.348  21.466  0.00  0.00    +0.140 C 
ATOM     12  C   UNL     1      12.725   8.874  22.026  0.00  0.00    +0.053 A 
ATOM     13  C   UNL     1      11.461   8.513  21.631  0.00  0.00    +0.065 A 
ATOM     17  C   UNL     1      11.193   9.977  23.138  0.00  0.00    +0.197 A 
ATOM     30  H   UNL     1      13.270  10.310  23.499  0.00  0.00    +0.167 HD
ENDROOT
BRANCH   9  15
ATOM      3  O   UNL     1      12.081   7.487  17.433  0.00  0.00    -0.336 OA
ATOM      7  N   UNL     1      13.441   9.018  18.338  0.00  0.00    -0.190 NA
ATOM      8  N   UNL     1      12.406   8.376  16.401  0.00  0.00    -0.056 NA
ATOM     15  C   UNL     1      12.731   7.937  18.537  0.00  0.00    +0.245 A 
ATOM     20  C   UNL     1      13.211   9.249  17.012  0.00  0.00    +0.202 A 
BRANCH  20  23
ATOM      1 CL   UNL     1      13.187  12.413  12.950  0.00  0.00    -0.081 Cl
ATOM      2  F   UNL     1      15.508  13.580  14.378  0.00  0.00    -0.204 F 
ATOM     23  C   UNL     1      13.800  10.365  16.329  0.00  0.00    +0.024 A 
ATOM     25  C   UNL     1      13.272  10.797  15.113  0.00  0.00    +0.034 A 
ATOM     26  C   UNL     1      14.902  11.017  16.882  0.00  0.00    +0.014 A 
ATOM     27  C   UNL     1      13.844  11.883  14.451  0.00  0.00    +0.077 A 
ATOM     28  C   UNL     1      15.475  12.103  16.219  0.00  0.00    +0.040 A 
ATOM     29  C   UNL     1      14.946  12.536  15.003  0.00  0.00    +0.142 A 
ENDBRANCH  20  23
ENDBRANCH   9  15
BRANCH   4  14
ATOM     14  C   UNL     1      14.928   6.552  20.130  0.00  0.00    +0.120 C 
BRANCH  14  16
ATOM     16  C   UNL     1      16.163   7.270  20.609  0.00  0.00    -0.033 A 
ATOM     18  C   UNL     1      17.160   6.568  21.286  0.00  0.00    +0.005 A 
ATOM     19  C   UNL     1      16.309   8.637  20.375  0.00  0.00    +0.005 A 
ATOM     21  C   UNL     1      18.303   7.233  21.730  0.00  0.00    +0.000 A 
ATOM     22  C   UNL     1      17.451   9.302  20.819  0.00  0.00    +0.000 A 
ATOM     24  C   UNL     1      18.449   8.600  21.496  0.00  0.00    +0.000 A 
ENDBRANCH  14  16
ENDBRANCH   4  14
TORSDOF 4
ENDMDL
MODEL 6
REMARK VINA RESULT:      -7.1     29.939     31.882
REMARK  Name = 26761929
REMARK  4 active torsions:
REMARK  status: ('A' for Active; 'I' for Inactive)
REMARK    1  A    between atoms: N_4  and  C_14
REMARK    2  A    between atoms: C_9  and  C_15
REMARK    3  A    between atoms: C_14  and  C_16
REMARK    4  A    between atoms: C_20  and  C_23
REMARK                            x       y       z     vdW  Elec       q    Type
REMARK                         _______ _______ _______ _____ _____    ______ ____
ROOT
ATOM      4  N   UNL     1     -12.474 -10.281  17.884  0.00  0.00    -0.281 NA
ATOM      5  N   UNL     1     -14.228 -12.944  19.806  0.00  0.00    -0.347 N 
ATOM      6  N   UNL     1     -13.891 -11.600  21.561  0.00  0.00    -0.240 NA
ATOM      9  C   UNL     1     -11.678  -9.752  19.033  0.00  0.00    +0.152 C 
ATOM     10  C   UNL     1     -12.473  -9.854  20.384  0.00  0.00    +0.086 C 
ATOM     11  C   UNL     1     -12.907 -11.689  18.007  0.00  0.00    +0.140 C 
ATOM     12  C   UNL     1     -13.461 -11.912  19.361  0.00  0.00    +0.053 A 
ATOM     13  C   UNL     1     -13.263 -11.105  20.453  0.00  0.00    +0.065 A 
ATOM     17  C   UNL     1     -14.463 -12.711  21.139  0.00  0.00    +0.197 A 
ATOM     30  H   UNL     1     -14.561 -13.733  19.267  0.00  0.00    +0.167 HD
ENDROOT
BRANCH   9  15
ATOM      3  O   UNL     1      -9.993 -11.147  20.153  0.00  0.00    -0.336 OA
ATOM      7  N   UNL     1      -9.209 -10.024  18.381  0.00  0.00    -0.190 NA
ATOM      8  N   UNL     1      -8.639 -11.489  20.044  0.00  0.00    -0.056 NA
ATOM     15  C   UNL     1     -10.246 -10.282  19.136  0.00  0.00    +0.245 A 
ATOM     20  C   UNL     1      -8.247 -10.786  18.977  0.00  0.00    +0.202 A 
BRANCH  20  23
ATOM      1 CL   UNL     1      -3.383 -12.356  19.604  0.00  0.00    -0.081 Cl
ATOM      2  F   UNL     1      -3.035 -10.930  17.028  0.00  0.00    -0.204 F 
ATOM     23  C   UNL     1      -6.902 -10.826  18.479  0.00  0.00    +0.024 A 
ATOM     25  C   UNL     1      -5.910 -11.492  19.198  0.00  0.00    +0.034 A 
ATOM     26  C   UNL     1      -6.586 -10.196  17.275  0.00  0.00    +0.014 A 
ATOM     27  C   UNL     1      -4.603 -11.531  18.712  0.00  0.00    +0.077 A 
ATOM     28  C   UNL     1      -5.279 -10.235  16.789  0.00  0.00    +0.040 A 
ATOM     29  C   UNL     1      -4.287 -10.903  17.508  0.00  0.00    +0.142 A 
ENDBRANCH  20  23
ENDBRANCH   9  15
BRANCH   4  14
ATOM     14  C   UNL     1     -11.880 -10.018  16.578  0.00  0.00    +0.120 C 
BRANCH  14  16
ATOM     16  C   UNL     1     -11.887  -8.549  16.245  0.00  0.00    -0.033 A 
ATOM     18  C   UNL     1     -10.683  -7.861  16.098  0.00  0.00    +0.005 A 
ATOM     19  C   UNL     1     -13.098  -7.877  16.083  0.00  0.00    +0.005 A 
ATOM     21  C   UNL     1     -10.690  -6.501  15.790  0.00  0.00    +0.000 A 
ATOM     22  C   UNL     1     -13.106  -6.517  15.775  0.00  0.00    +0.000 A 
ATOM     24  C   UNL     1     -11.901  -5.828  15.628  0.00  0.00    +0.000 A 
ENDBRANCH  14  16
ENDBRANCH   4  14
TORSDOF 4
ENDMDL
MODEL 7
REMARK VINA RESULT:      -7.0     13.561     15.926
REMARK  Name = 26761929
REMARK  4 active torsions:
REMARK  status: ('A' for Active; 'I' for Inactive)
REMARK    1  A    between atoms: N_4  and  C_14
REMARK    2  A    between atoms: C_9  and  C_15
REMARK    3  A    between atoms: C_14  and  C_16
REMARK    4  A    between atoms: C_20  and  C_23
REMARK                            x       y       z     vdW  Elec       q    Type
REMARK                         _______ _______ _______ _____ _____    ______ ____
ROOT
ATOM      4  N   UNL     1       9.939   6.224   5.592  0.00  0.00    -0.281 NA
ATOM      5  N   UNL     1       9.486   3.692   8.284  0.00  0.00    -0.347 N 
ATOM      6  N   UNL     1       9.530   5.458   9.655  0.00  0.00    -0.240 NA
ATOM      9  C   UNL     1      10.625   7.242   6.444  0.00  0.00    +0.152 C 
ATOM     10  C   UNL     1      10.085   7.224   7.919  0.00  0.00    +0.086 C 
ATOM     11  C   UNL     1      10.051   4.827   6.059  0.00  0.00    +0.140 C 
ATOM     12  C   UNL     1       9.778   4.774   7.512  0.00  0.00    +0.053 A 
ATOM     13  C   UNL     1       9.805   5.842   8.374  0.00  0.00    +0.065 A 
ATOM     17  C   UNL     1       9.344   4.155   9.569  0.00  0.00    +0.197 A 
ATOM     30  H   UNL     1       9.394   2.733   7.978  0.00  0.00    +0.167 HD
ENDROOT
BRANCH   9  15
ATOM      3  O   UNL     1      12.809   6.533   7.320  0.00  0.00    -0.336 OA
ATOM      7  N   UNL     1      12.940   7.825   5.496  0.00  0.00    -0.190 NA
ATOM      8  N   UNL     1      14.174   6.676   7.042  0.00  0.00    -0.056 NA
ATOM     15  C   UNL     1      12.153   7.240   6.362  0.00  0.00    +0.245 A 
ATOM     20  C   UNL     1      14.170   7.452   5.954  0.00  0.00    +0.202 A 
BRANCH  20  23
ATOM      1 CL   UNL     1      18.810   9.656   6.301  0.00  0.00    -0.081 Cl
ATOM      2  F   UNL     1      18.843   9.063   3.397  0.00  0.00    -0.204 F 
ATOM     23  C   UNL     1      15.376   7.869   5.299  0.00  0.00    +0.024 A 
ATOM     25  C   UNL     1      16.390   8.489   6.030  0.00  0.00    +0.034 A 
ATOM     26  C   UNL     1      15.535   7.656   3.930  0.00  0.00    +0.014 A 
ATOM     27  C   UNL     1      17.562   8.893   5.393  0.00  0.00    +0.077 A 
ATOM     28  C   UNL     1      16.708   8.060   3.292  0.00  0.00    +0.040 A 
ATOM     29  C   UNL     1      17.722   8.679   4.024  0.00  0.00    +0.142 A 
ENDBRANCH  20  23
ENDBRANCH   9  15
BRANCH   4  14
ATOM     14  C   UNL     1      10.241   6.338   4.169  0.00  0.00    +0.120 C 
BRANCH  14  16
ATOM     16  C   UNL     1       9.335   7.325   3.481  0.00  0.00    -0.033 A 
ATOM     18  C   UNL     1       8.270   7.897   4.177  0.00  0.00    +0.005 A 
ATOM     19  C   UNL     1       9.561   7.667   2.148  0.00  0.00    +0.005 A 
ATOM     21  C   UNL     1       7.430   8.810   3.539  0.00  0.00    +0.000 A 
ATOM     22  C   UNL     1       8.722   8.579   1.510  0.00  0.00    +0.000 A 
ATOM     24  C   UNL     1       7.657   9.152   2.206  0.00  0.00    +0.000 A 
ENDBRANCH  14  16
ENDBRANCH   4  14
TORSDOF 4
ENDMDL
MODEL 8
REMARK VINA RESULT:      -7.0     24.032     27.229
REMARK  Name = 26761929
REMARK  4 active torsions:
REMARK  status: ('A' for Active; 'I' for Inactive)
REMARK    1  A    between atoms: N_4  and  C_14
REMARK    2  A    between atoms: C_9  and  C_15
REMARK    3  A    between atoms: C_14  and  C_16
REMARK    4  A    between atoms: C_20  and  C_23
REMARK                            x       y       z     vdW  Elec       q    Type
REMARK                         _______ _______ _______ _____ _____    ______ ____
ROOT
ATOM      4  N   UNL     1      -1.504   8.853  37.851  0.00  0.00    -0.281 NA
ATOM      5  N   UNL     1       0.704  11.350  36.190  0.00  0.00    -0.347 N 
ATOM      6  N   UNL     1      -0.202  12.794  37.637  0.00  0.00    -0.240 NA
ATOM      9  C   UNL     1      -2.544   9.830  38.295  0.00  0.00    +0.152 C 
ATOM     10  C   UNL     1      -1.915  11.222  38.659  0.00  0.00    +0.086 C 
ATOM     11  C   UNL     1      -0.704   9.268  36.679  0.00  0.00    +0.140 C 
ATOM     12  C   UNL     1      -0.269  10.671  36.856  0.00  0.00    +0.053 A 
ATOM     13  C   UNL     1      -0.813  11.576  37.732  0.00  0.00    +0.065 A 
ATOM     17  C   UNL     1       0.707  12.627  36.697  0.00  0.00    +0.197 A 
ATOM     30  H   UNL     1       1.307  10.992  35.462  0.00  0.00    +0.167 HD
ENDROOT
BRANCH   9  15
ATOM      3  O   UNL     1      -3.577  10.568  36.191  0.00  0.00    -0.336 OA
ATOM      7  N   UNL     1      -4.990   9.522  37.578  0.00  0.00    -0.190 NA
ATOM      8  N   UNL     1      -4.818  10.549  35.541  0.00  0.00    -0.056 NA
ATOM     15  C   UNL     1      -3.767   9.943  37.382  0.00  0.00    +0.245 A 
ATOM     20  C   UNL     1      -5.599   9.917  36.422  0.00  0.00    +0.202 A 
BRANCH  20  23
ATOM      1 CL   UNL     1      -9.884   7.373  37.716  0.00  0.00    -0.081 Cl
ATOM      2  F   UNL     1     -10.993   8.942  35.459  0.00  0.00    -0.204 F 
ATOM     23  C   UNL     1      -6.989   9.662  36.177  0.00  0.00    +0.024 A 
ATOM     25  C   UNL     1      -7.682   8.748  36.970  0.00  0.00    +0.034 A 
ATOM     26  C   UNL     1      -7.648  10.329  35.144  0.00  0.00    +0.014 A 
ATOM     27  C   UNL     1      -9.033   8.502  36.733  0.00  0.00    +0.077 A 
ATOM     28  C   UNL     1      -9.001  10.083  34.906  0.00  0.00    +0.040 A 
ATOM     29  C   UNL     1      -9.693   9.169  35.701  0.00  0.00    +0.142 A 
ENDBRANCH  20  23
ENDBRANCH   9  15
BRANCH   4  14
ATOM     14  C   UNL     1      -1.994   7.487  37.706  0.00  0.00    +0.120 C 
BRANCH  14  16
ATOM     16  C   UNL     1      -1.631   6.633  38.894  0.00  0.00    -0.033 A 
ATOM     18  C   UNL     1      -2.557   6.433  39.917  0.00  0.00    +0.005 A 
ATOM     19  C   UNL     1      -0.370   6.043  38.969  0.00  0.00    +0.005 A 
ATOM     21  C   UNL     1      -2.222   5.643  41.017  0.00  0.00    +0.000 A 
ATOM     22  C   UNL     1      -0.034   5.254  40.068  0.00  0.00    +0.000 A 
ATOM     24  C   UNL     1      -0.960   5.053  41.092  0.00  0.00    +0.000 A 
ENDBRANCH  14  16
ENDBRANCH   4  14
TORSDOF 4
ENDMDL
MODEL 9
REMARK VINA RESULT:      -6.9     14.696     18.507
REMARK  Name = 26761929
REMARK  4 active torsions:
REMARK  status: ('A' for Active; 'I' for Inactive)
REMARK    1  A    between atoms: N_4  and  C_14
REMARK    2  A    between atoms: C_9  and  C_15
REMARK    3  A    between atoms: C_14  and  C_16
REMARK    4  A    between atoms: C_20  and  C_23
REMARK                            x       y       z     vdW  Elec       q    Type
REMARK                         _______ _______ _______ _____ _____    ______ ____
ROOT
ATOM      4  N   UNL     1       9.439   7.542   5.199  0.00  0.00    -0.281 NA
ATOM      5  N   UNL     1       8.988   5.506   8.284  0.00  0.00    -0.347 N 
ATOM      6  N   UNL     1      11.209   5.685   8.468  0.00  0.00    -0.240 NA
ATOM      9  C   UNL     1      10.845   7.112   4.928  0.00  0.00    +0.152 C 
ATOM     10  C   UNL     1      11.641   6.859   6.259  0.00  0.00    +0.086 C 
ATOM     11  C   UNL     1       8.629   6.595   5.994  0.00  0.00    +0.140 C 
ATOM     12  C   UNL     1       9.420   6.132   7.155  0.00  0.00    +0.053 A 
ATOM     13  C   UNL     1      10.783   6.225   7.288  0.00  0.00    +0.065 A 
ATOM     17  C   UNL     1      10.104   5.257   9.045  0.00  0.00    +0.197 A 
ATOM     30  H   UNL     1       8.034   5.265   8.519  0.00  0.00    +0.167 HD
ENDROOT
BRANCH   9  15
ATOM      3  O   UNL     1      10.720   4.726   4.354  0.00  0.00    -0.336 OA
ATOM      7  N   UNL     1      11.364   6.036   2.655  0.00  0.00    -0.190 NA
ATOM      8  N   UNL     1      10.929   3.873   3.263  0.00  0.00    -0.056 NA
ATOM     15  C   UNL     1      10.999   5.980   3.910  0.00  0.00    +0.245 A 
ATOM     20  C   UNL     1      11.307   4.719   2.300  0.00  0.00    +0.202 A 
BRANCH  20  23
ATOM      1 CL   UNL     1       9.958   4.378  -2.657  0.00  0.00    -0.081 Cl
ATOM      2  F   UNL     1      12.586   3.019  -2.843  0.00  0.00    -0.204 F 
ATOM     23  C   UNL     1      11.632   4.282   0.973  0.00  0.00    +0.024 A 
ATOM     25  C   UNL     1      10.742   4.513  -0.076  0.00  0.00    +0.034 A 
ATOM     26  C   UNL     1      12.839   3.626   0.732  0.00  0.00    +0.014 A 
ATOM     27  C   UNL     1      11.059   4.089  -1.366  0.00  0.00    +0.077 A 
ATOM     28  C   UNL     1      13.157   3.201  -0.559  0.00  0.00    +0.040 A 
ATOM     29  C   UNL     1      12.266   3.433  -1.608  0.00  0.00    +0.142 A 
ENDBRANCH  20  23
ENDBRANCH   9  15
BRANCH   4  14
ATOM     14  C   UNL     1       8.718   7.998   4.015  0.00  0.00    +0.120 C 
BRANCH  14  16
ATOM     16  C   UNL     1       8.017   9.309   4.257  0.00  0.00    -0.033 A 
ATOM     18  C   UNL     1       6.754   9.535   3.712  0.00  0.00    +0.005 A 
ATOM     19  C   UNL     1       8.631  10.296   5.027  0.00  0.00    +0.005 A 
ATOM     21  C   UNL     1       6.105  10.749   3.936  0.00  0.00    +0.000 A 
ATOM     22  C   UNL     1       7.983  11.510   5.251  0.00  0.00    +0.000 A 
ATOM     24  C   UNL     1       6.719  11.737   4.706  0.00  0.00    +0.000 A 
ENDBRANCH  14  16
ENDBRANCH   4  14
TORSDOF 4
ENDMDL
MODEL 10
REMARK VINA RESULT:      -6.9     29.774     33.147
REMARK  Name = 26761929
REMARK  4 active torsions:
REMARK  status: ('A' for Active; 'I' for Inactive)
REMARK    1  A    between atoms: N_4  and  C_14
REMARK    2  A    between atoms: C_9  and  C_15
REMARK    3  A    between atoms: C_14  and  C_16
REMARK    4  A    between atoms: C_20  and  C_23
REMARK                            x       y       z     vdW  Elec       q    Type
REMARK                         _______ _______ _______ _____ _____    ______ ____
ROOT
ATOM      4  N   UNL     1     -15.376   4.425  32.767  0.00  0.00    -0.281 NA
ATOM      5  N   UNL     1     -17.583   5.149  35.678  0.00  0.00    -0.347 N 
ATOM      6  N   UNL     1     -18.824   6.259  34.186  0.00  0.00    -0.240 NA
ATOM      9  C   UNL     1     -15.755   5.634  31.975  0.00  0.00    +0.152 C 
ATOM     10  C   UNL     1     -17.259   6.028  32.201  0.00  0.00    +0.086 C 
ATOM     11  C   UNL     1     -15.560   4.542  34.229  0.00  0.00    +0.140 C 
ATOM     12  C   UNL     1     -16.888   5.133  34.508  0.00  0.00    +0.053 A 
ATOM     13  C   UNL     1     -17.665   5.823  33.611  0.00  0.00    +0.065 A 
ATOM     17  C   UNL     1     -18.745   5.839  35.433  0.00  0.00    +0.197 A 
ATOM     30  H   UNL     1     -17.303   4.738  36.558  0.00  0.00    +0.167 HD
ENDROOT
BRANCH   9  15
ATOM      3  O   UNL     1     -15.096   7.917  31.348  0.00  0.00    -0.336 OA
ATOM      7  N   UNL     1     -13.716   6.946  32.820  0.00  0.00    -0.190 NA
ATOM      8  N   UNL     1     -14.093   8.857  31.620  0.00  0.00    -0.056 NA
ATOM     15  C   UNL     1     -14.798   6.822  32.095  0.00  0.00    +0.245 A 
ATOM     20  C   UNL     1     -13.318   8.210  32.495  0.00  0.00    +0.202 A 
BRANCH  20  23
ATOM      1 CL   UNL     1     -10.808   9.800  36.700  0.00  0.00    -0.081 Cl
ATOM      2  F   UNL     1      -8.743  10.496  34.691  0.00  0.00    -0.204 F 
ATOM     23  C   UNL     1     -12.141   8.799  33.066  0.00  0.00    +0.024 A 
ATOM     25  C   UNL     1     -12.054   8.993  34.444  0.00  0.00    +0.034 A 
ATOM     26  C   UNL     1     -11.082   9.180  32.240  0.00  0.00    +0.014 A 
ATOM     27  C   UNL     1     -10.909   9.564  34.998  0.00  0.00    +0.077 A 
ATOM     28  C   UNL     1      -9.937   9.752  32.794  0.00  0.00    +0.040 A 
ATOM     29  C   UNL     1      -9.850   9.944  34.174  0.00  0.00    +0.142 A 
ENDBRANCH  20  23
ENDBRANCH   9  15
BRANCH   4  14
ATOM     14  C   UNL     1     -14.062   3.885  32.437  0.00  0.00    +0.120 C 
BRANCH  14  16
ATOM     16  C   UNL     1     -14.161   2.534  31.779  0.00  0.00    -0.033 A 
ATOM     18  C   UNL     1     -13.630   2.338  30.504  0.00  0.00    +0.005 A 
ATOM     19  C   UNL     1     -14.783   1.478  32.445  0.00  0.00    +0.005 A 
ATOM     21  C   UNL     1     -13.723   1.086  29.895  0.00  0.00    +0.000 A 
ATOM     22  C   UNL     1     -14.875   0.227  31.837  0.00  0.00    +0.000 A 
ATOM     24  C   UNL     1     -14.345   0.030  30.561  0.00  0.00    +0.000 A 
ENDBRANCH  14  16
ENDBRANCH   4  14
TORSDOF 4
ENDMDL
