REMARK  Name = 45783832
REMARK  4 active torsions:
REMARK  status: ('A' for Active; 'I' for Inactive)
REMARK    1  A    between atoms: N_3  and  C_9
REMARK    2  A    between atoms: C_10  and  C_18
REMARK    3  A    between atoms: C_19  and  C_25
REMARK    4  A    between atoms: C_20  and  C_26
REMARK                            x       y       z     vdW  Elec       q    Type
REMARK                         _______ _______ _______ _____ _____    ______ ____
ROOT
ATOM      1  O   UNL     1       0.988   3.094   1.408  0.00  0.00    -0.336 OA
ATOM      5  N   UNL     1       0.102   1.723  -0.125  0.00  0.00    -0.190 NA
ATOM      7  N   UNL     1      -0.355   2.924   1.768  0.00  0.00    -0.056 NA
ATOM     18  C   UNL     1       1.173   2.354   0.284  0.00  0.00    +0.245 A 
ATOM     20  C   UNL     1      -0.810   2.103   0.816  0.00  0.00    +0.202 A 
ENDROOT
BRANCH  20  26
ATOM      6  N   UNL     1      -4.142  -1.026  -0.674  0.00  0.00    -0.315 N 
ATOM      8  N   UNL     1      -4.817   0.753   0.702  0.00  0.00    -0.240 NA
ATOM     21  C   UNL     1      -3.931  -3.093  -1.776  0.00  0.00    +0.020 C 
ATOM     22  C   UNL     1      -5.367  -2.615  -1.901  0.00  0.00    +0.020 C 
ATOM     23  C   UNL     1      -3.169  -1.817  -1.425  0.00  0.00    +0.106 C 
ATOM     24  C   UNL     1      -5.488  -1.583  -0.782  0.00  0.00    +0.106 C 
ATOM     26  C   UNL     1      -2.169   1.646   0.777  0.00  0.00    +0.027 A 
ATOM     27  C   UNL     1      -3.827   0.105   0.048  0.00  0.00    +0.122 A 
ATOM     28  C   UNL     1      -2.501   0.506   0.054  0.00  0.00    +0.055 A 
ATOM     29  C   UNL     1      -3.159   2.341   1.463  0.00  0.00    +0.031 A 
ATOM     30  C   UNL     1      -4.456   1.857   1.394  0.00  0.00    +0.113 A 
ENDBRANCH  20  26
BRANCH  18  10
ATOM      3  N   UNL     1       2.873   1.139  -1.068  0.00  0.00    -0.288 NA
ATOM     10  C   UNL     1       2.565   2.370  -0.313  0.00  0.00    +0.146 C 
ATOM     11  C   UNL     1       3.824   1.521  -2.111  0.00  0.00    +0.085 C 
ATOM     12  C   UNL     1       2.764   3.511  -1.328  0.00  0.00    +0.030 C 
ATOM     15  C   UNL     1       3.241   2.830  -2.603  0.00  0.00    +0.017 C 
BRANCH   3   9
ATOM      2  O   UNL     1       2.903  -4.856   0.301  0.00  0.00    -0.276 OA
ATOM      4  N   UNL     1       3.143  -2.613   0.859  0.00  0.00    -0.302 N 
ATOM      9  C   UNL     1       3.385   0.060  -0.226  0.00  0.00    +0.060 C 
ATOM     13  C   UNL     1       2.374  -0.269   0.880  0.00  0.00    +0.038 C 
ATOM     14  C   UNL     1       3.671  -1.183  -1.078  0.00  0.00    +0.038 C 
ATOM     16  C   UNL     1       2.845  -1.459   1.717  0.00  0.00    +0.109 C 
ATOM     17  C   UNL     1       4.117  -2.353  -0.203  0.00  0.00    +0.109 C 
ATOM     19  C   UNL     1       2.609  -3.892   1.014  0.00  0.00    +0.212 C 
ATOM     25  C   UNL     1       1.611  -4.078   2.129  0.00  0.00    +0.109 C 
ENDBRANCH   3   9
ENDBRANCH  18  10
TORSDOF 3
