MODEL 1
REMARK VINA RESULT:      -6.3      0.000      0.000
REMARK  Name = 44716885
REMARK  14 active torsions:
REMARK  status: ('A' for Active; 'I' for Inactive)
REMARK    1  A    between atoms: O_1  and  C_15
REMARK    2  A    between atoms: O_1  and  C_24
REMARK    3  A    between atoms: O_2  and  C_16
REMARK    4  A    between atoms: O_3  and  C_20
REMARK    5  A    between atoms: N_7  and  C_25
REMARK    6  A    between atoms: N_8  and  C_26
REMARK    7  A    between atoms: C_9  and  C_19
REMARK    8  A    between atoms: C_11  and  C_20
REMARK    9  A    between atoms: C_11  and  C_21
REMARK   10  A    between atoms: C_12  and  C_22
REMARK   11  A    between atoms: C_22  and  C_23
REMARK   12  A    between atoms: C_25  and  C_27
REMARK   13  A    between atoms: C_26  and  C_28
REMARK   14  A    between atoms: C_26  and  C_29
REMARK                            x       y       z     vdW  Elec       q    Type
REMARK                         _______ _______ _______ _____ _____    ______ ____
ROOT
ATOM      9  C   UNL     1     -16.473   3.542  29.408  0.00  0.00    -0.023 C 
ATOM     10  C   UNL     1     -15.381   3.225  30.502  0.00  0.00    +0.007 C 
ATOM     11  C   UNL     1     -15.377   4.142  31.785  0.00  0.00    +0.031 C 
ATOM     12  C   UNL     1     -16.078   2.724  28.109  0.00  0.00    +0.032 C 
ATOM     13  C   UNL     1     -16.424   5.060  29.090  0.00  0.00    +0.011 C 
ATOM     14  C   UNL     1     -15.316   1.709  30.794  0.00  0.00    +0.007 C 
ATOM     15  C   UNL     1     -15.409   5.635  31.337  0.00  0.00    +0.186 C 
ATOM     16  C   UNL     1     -15.912   1.208  28.363  0.00  0.00    +0.119 C 
ATOM     17  C   UNL     1     -16.504   5.951  30.325  0.00  0.00    +0.046 C 
ATOM     18  C   UNL     1     -14.974   0.915  29.532  0.00  0.00    +0.032 C 
ATOM     19  C   UNL     1     -17.915   3.192  29.853  0.00  0.00    +0.012 C 
ATOM     21  C   UNL     1     -14.049   3.918  32.566  0.00  0.00    +0.017 C 
ENDROOT
BRANCH  16   2
ATOM      2  O   UNL     1     -17.174   0.589  28.594  0.00  0.00    -0.391 OA
ATOM     33  H   UNL     1     -17.037  -0.374  28.591  0.00  0.00    +0.210 HD
ENDBRANCH  16   2
BRANCH  15   1
ATOM      1  O   UNL     1     -15.593   6.516  32.444  0.00  0.00    -0.446 OA
BRANCH   1  24
ATOM      5  O   UNL     1     -15.369   8.718  31.826  0.00  0.00    -0.226 OA
ATOM      8  N   UNL     1     -13.711   7.609  33.010  0.00  0.00    -0.279 N 
ATOM     24  C   UNL     1     -14.931   7.712  32.375  0.00  0.00    +0.401 C 
ATOM     36  H   UNL     1     -13.489   6.729  33.467  0.00  0.00    +0.152 HD
BRANCH   8  26
ATOM     26  C   UNL     1     -12.766   8.697  33.115  0.00  0.00    +0.070 C 
ATOM     28  C   UNL     1     -11.681   8.560  32.056  0.00  0.00    +0.027 C 
ATOM     29  C   UNL     1     -12.168   8.752  34.516  0.00  0.00    +0.027 C 
ENDBRANCH   8  26
ENDBRANCH   1  24
ENDBRANCH  15   1
BRANCH  11  20
ATOM     20  C   UNL     1     -16.507   3.830  32.785  0.00  0.00    +0.166 C 
BRANCH  20   3
ATOM      3  O   UNL     1     -16.061   4.195  34.073  0.00  0.00    -0.394 OA
ATOM     34  H   UNL     1     -16.646   3.761  34.717  0.00  0.00    +0.209 HD
ENDBRANCH  20   3
ENDBRANCH  11  20
BRANCH  12  22
ATOM     22  C   UNL     1     -16.996   2.952  26.898  0.00  0.00    +0.102 C 
BRANCH  22  23
ATOM      4  O   UNL     1     -16.138   1.871  24.910  0.00  0.00    -0.276 OA
ATOM      7  N   UNL     1     -15.672   4.117  25.288  0.00  0.00    -0.308 N 
ATOM     23  C   UNL     1     -16.236   2.887  25.594  0.00  0.00    +0.214 C 
ATOM     35  H   UNL     1     -15.826   4.903  25.913  0.00  0.00    +0.149 HD
BRANCH   7  25
ATOM     25  C   UNL     1     -14.885   4.350  24.099  0.00  0.00    +0.178 C 
BRANCH  25  27
ATOM      6  O   UNL     1     -15.217   4.811  21.735  0.00  0.00    -0.466 OA
ATOM     27  C   UNL     1     -15.700   4.962  22.997  0.00  0.00    +0.122 A 
ATOM     30  C   UNL     1     -16.877   5.673  22.981  0.00  0.00    +0.046 A 
ATOM     31  C   UNL     1     -17.136   5.977  21.623  0.00  0.00    +0.041 A 
ATOM     32  C   UNL     1     -16.097   5.431  20.906  0.00  0.00    +0.195 A 
ENDBRANCH  25  27
ENDBRANCH   7  25
ENDBRANCH  22  23
ENDBRANCH  12  22
TORSDOF 10
ENDMDL
MODEL 2
REMARK VINA RESULT:      -6.3     18.512     22.041
REMARK  Name = 44716885
REMARK  14 active torsions:
REMARK  status: ('A' for Active; 'I' for Inactive)
REMARK    1  A    between atoms: O_1  and  C_15
REMARK    2  A    between atoms: O_1  and  C_24
REMARK    3  A    between atoms: O_2  and  C_16
REMARK    4  A    between atoms: O_3  and  C_20
REMARK    5  A    between atoms: N_7  and  C_25
REMARK    6  A    between atoms: N_8  and  C_26
REMARK    7  A    between atoms: C_9  and  C_19
REMARK    8  A    between atoms: C_11  and  C_20
REMARK    9  A    between atoms: C_11  and  C_21
REMARK   10  A    between atoms: C_12  and  C_22
REMARK   11  A    between atoms: C_22  and  C_23
REMARK   12  A    between atoms: C_25  and  C_27
REMARK   13  A    between atoms: C_26  and  C_28
REMARK   14  A    between atoms: C_26  and  C_29
REMARK                            x       y       z     vdW  Elec       q    Type
REMARK                         _______ _______ _______ _____ _____    ______ ____
ROOT
ATOM      9  C   UNL     1      -7.205 -10.484  17.594  0.00  0.00    -0.023 C 
ATOM     10  C   UNL     1      -6.955 -11.992  17.202  0.00  0.00    +0.007 C 
ATOM     11  C   UNL     1      -5.452 -12.453  17.086  0.00  0.00    +0.031 C 
ATOM     12  C   UNL     1      -8.739 -10.186  17.333  0.00  0.00    +0.032 C 
ATOM     13  C   UNL     1      -6.346  -9.585  16.664  0.00  0.00    +0.011 C 
ATOM     14  C   UNL     1      -7.856 -12.934  18.031  0.00  0.00    +0.007 C 
ATOM     15  C   UNL     1      -4.678 -11.433  16.198  0.00  0.00    +0.186 C 
ATOM     16  C   UNL     1      -9.689 -11.158  18.071  0.00  0.00    +0.119 C 
ATOM     17  C   UNL     1      -4.873  -9.980  16.617  0.00  0.00    +0.046 C 
ATOM     18  C   UNL     1      -9.337 -12.621  17.811  0.00  0.00    +0.032 C 
ATOM     19  C   UNL     1      -6.828 -10.154  19.060  0.00  0.00    +0.012 C 
ATOM     21  C   UNL     1      -5.397 -13.832  16.367  0.00  0.00    +0.017 C 
ENDROOT
BRANCH  16   2
ATOM      2  O   UNL     1      -9.688 -10.905  19.472  0.00  0.00    -0.391 OA
ATOM     33  H   UNL     1     -10.006  -9.997  19.610  0.00  0.00    +0.210 HD
ENDBRANCH  16   2
BRANCH  15   1
ATOM      1  O   UNL     1      -3.273 -11.685  16.201  0.00  0.00    -0.446 OA
BRANCH   1  24
ATOM      5  O   UNL     1      -1.600 -10.605  15.056  0.00  0.00    -0.226 OA
ATOM      8  N   UNL     1      -3.201 -11.878  13.962  0.00  0.00    -0.279 N 
ATOM     24  C   UNL     1      -2.596 -11.321  15.069  0.00  0.00    +0.401 C 
ATOM     36  H   UNL     1      -3.996 -12.492  14.117  0.00  0.00    +0.152 HD
BRANCH   8  26
ATOM     26  C   UNL     1      -2.732 -11.687  12.609  0.00  0.00    +0.070 C 
ATOM     28  C   UNL     1      -3.336 -10.422  12.013  0.00  0.00    +0.027 C 
ATOM     29  C   UNL     1      -3.052 -12.907  11.755  0.00  0.00    +0.027 C 
ENDBRANCH   8  26
ENDBRANCH   1  24
ENDBRANCH  15   1
BRANCH  11  20
ATOM     20  C   UNL     1      -4.751 -12.663  18.444  0.00  0.00    +0.166 C 
BRANCH  20   3
ATOM      3  O   UNL     1      -4.071 -13.898  18.395  0.00  0.00    -0.394 OA
ATOM     34  H   UNL     1      -4.735 -14.599  18.510  0.00  0.00    +0.209 HD
ENDBRANCH  20   3
ENDBRANCH  11  20
BRANCH  12  22
ATOM     22  C   UNL     1      -9.170  -8.735  17.598  0.00  0.00    +0.102 C 
BRANCH  22  23
ATOM      4  O   UNL     1      -9.535  -8.514  15.217  0.00  0.00    -0.276 OA
ATOM      7  N   UNL     1     -10.336  -6.876  16.657  0.00  0.00    -0.308 N 
ATOM     23  C   UNL     1      -9.685  -8.061  16.348  0.00  0.00    +0.214 C 
ATOM     35  H   UNL     1     -10.421  -6.595  17.630  0.00  0.00    +0.149 HD
BRANCH   7  25
ATOM     25  C   UNL     1     -10.929  -6.017  15.658  0.00  0.00    +0.178 C 
BRANCH  25  27
ATOM      6  O   UNL     1     -13.009  -5.617  14.466  0.00  0.00    -0.466 OA
ATOM     27  C   UNL     1     -12.378  -6.337  15.431  0.00  0.00    +0.122 A 
ATOM     30  C   UNL     1     -13.245  -7.235  16.007  0.00  0.00    +0.046 A 
ATOM     31  C   UNL     1     -14.488  -7.057  15.355  0.00  0.00    +0.041 A 
ATOM     32  C   UNL     1     -14.292  -6.062  14.426  0.00  0.00    +0.195 A 
ENDBRANCH  25  27
ENDBRANCH   7  25
ENDBRANCH  22  23
ENDBRANCH  12  22
TORSDOF 10
ENDMDL
MODEL 3
REMARK VINA RESULT:      -6.3     28.784     31.431
REMARK  Name = 44716885
REMARK  14 active torsions:
REMARK  status: ('A' for Active; 'I' for Inactive)
REMARK    1  A    between atoms: O_1  and  C_15
REMARK    2  A    between atoms: O_1  and  C_24
REMARK    3  A    between atoms: O_2  and  C_16
REMARK    4  A    between atoms: O_3  and  C_20
REMARK    5  A    between atoms: N_7  and  C_25
REMARK    6  A    between atoms: N_8  and  C_26
REMARK    7  A    between atoms: C_9  and  C_19
REMARK    8  A    between atoms: C_11  and  C_20
REMARK    9  A    between atoms: C_11  and  C_21
REMARK   10  A    between atoms: C_12  and  C_22
REMARK   11  A    between atoms: C_22  and  C_23
REMARK   12  A    between atoms: C_25  and  C_27
REMARK   13  A    between atoms: C_26  and  C_28
REMARK   14  A    between atoms: C_26  and  C_29
REMARK                            x       y       z     vdW  Elec       q    Type
REMARK                         _______ _______ _______ _____ _____    ______ ____
ROOT
ATOM      9  C   UNL     1      13.428   9.045  20.857  0.00  0.00    -0.023 C 
ATOM     10  C   UNL     1      12.221   9.143  21.869  0.00  0.00    +0.007 C 
ATOM     11  C   UNL     1      11.963  10.552  22.527  0.00  0.00    +0.031 C 
ATOM     12  C   UNL     1      13.683   7.504  20.589  0.00  0.00    +0.032 C 
ATOM     13  C   UNL     1      14.685   9.660  21.529  0.00  0.00    +0.011 C 
ATOM     14  C   UNL     1      10.961   8.460  21.293  0.00  0.00    +0.007 C 
ATOM     15  C   UNL     1      13.309  11.099  23.093  0.00  0.00    +0.186 C 
ATOM     16  C   UNL     1      12.427   6.749  20.093  0.00  0.00    +0.119 C 
ATOM     17  C   UNL     1      14.459  11.059  22.093  0.00  0.00    +0.046 C 
ATOM     18  C   UNL     1      11.218   6.982  20.996  0.00  0.00    +0.032 C 
ATOM     19  C   UNL     1      13.182   9.795  19.525  0.00  0.00    +0.012 C 
ATOM     21  C   UNL     1      10.988  10.381  23.729  0.00  0.00    +0.017 C 
ENDROOT
BRANCH  16   2
ATOM      2  O   UNL     1      12.106   7.119  18.756  0.00  0.00    -0.391 OA
ATOM     33  H   UNL     1      12.490   7.997  18.591  0.00  0.00    +0.210 HD
ENDBRANCH  16   2
BRANCH  15   1
ATOM      1  O   UNL     1      13.187  12.450  23.538  0.00  0.00    -0.446 OA
BRANCH   1  24
ATOM      5  O   UNL     1      13.525  11.826  25.724  0.00  0.00    -0.226 OA
ATOM      8  N   UNL     1      12.512  13.839  25.173  0.00  0.00    -0.279 N 
ATOM     24  C   UNL     1      13.113  12.630  24.893  0.00  0.00    +0.401 C 
ATOM     36  H   UNL     1      12.259  14.433  24.388  0.00  0.00    +0.152 HD
BRANCH   8  26
ATOM     26  C   UNL     1      12.282  14.331  26.511  0.00  0.00    +0.070 C 
ATOM     28  C   UNL     1      10.970  15.102  26.574  0.00  0.00    +0.027 C 
ATOM     29  C   UNL     1      13.451  15.191  26.973  0.00  0.00    +0.027 C 
ENDBRANCH   8  26
ENDBRANCH   1  24
ENDBRANCH  15   1
BRANCH  11  20
ATOM     20  C   UNL     1      11.291  11.573  21.587  0.00  0.00    +0.166 C 
BRANCH  20   3
ATOM      3  O   UNL     1      10.541  12.466  22.381  0.00  0.00    -0.394 OA
ATOM     34  H   UNL     1      10.530  13.323  21.921  0.00  0.00    +0.209 HD
ENDBRANCH  20   3
ENDBRANCH  11  20
BRANCH  12  22
ATOM     22  C   UNL     1      14.873   7.196  19.666  0.00  0.00    +0.102 C 
BRANCH  22  23
ATOM      4  O   UNL     1      15.952   6.205  21.592  0.00  0.00    -0.276 OA
ATOM      7  N   UNL     1      17.127   6.413  19.597  0.00  0.00    -0.308 N 
ATOM     23  C   UNL     1      16.015   6.551  20.415  0.00  0.00    +0.214 C 
ATOM     35  H   UNL     1      17.072   6.717  18.629  0.00  0.00    +0.149 HD
BRANCH   7  25
ATOM     25  C   UNL     1      18.370   5.829  20.047  0.00  0.00    +0.178 C 
BRANCH  25  27
ATOM      6  O   UNL     1      20.627   6.631  20.459  0.00  0.00    -0.466 OA
ATOM     27  C   UNL     1      19.297   6.857  20.626  0.00  0.00    +0.122 A 
ATOM     30  C   UNL     1      19.090   8.027  21.318  0.00  0.00    +0.046 A 
ATOM     31  C   UNL     1      20.375   8.555  21.593  0.00  0.00    +0.041 A 
ATOM     32  C   UNL     1      21.275   7.669  21.050  0.00  0.00    +0.195 A 
ENDBRANCH  25  27
ENDBRANCH   7  25
ENDBRANCH  22  23
ENDBRANCH  12  22
TORSDOF 10
ENDMDL
MODEL 4
REMARK VINA RESULT:      -6.2     20.249     23.606
REMARK  Name = 44716885
REMARK  14 active torsions:
REMARK  status: ('A' for Active; 'I' for Inactive)
REMARK    1  A    between atoms: O_1  and  C_15
REMARK    2  A    between atoms: O_1  and  C_24
REMARK    3  A    between atoms: O_2  and  C_16
REMARK    4  A    between atoms: O_3  and  C_20
REMARK    5  A    between atoms: N_7  and  C_25
REMARK    6  A    between atoms: N_8  and  C_26
REMARK    7  A    between atoms: C_9  and  C_19
REMARK    8  A    between atoms: C_11  and  C_20
REMARK    9  A    between atoms: C_11  and  C_21
REMARK   10  A    between atoms: C_12  and  C_22
REMARK   11  A    between atoms: C_22  and  C_23
REMARK   12  A    between atoms: C_25  and  C_27
REMARK   13  A    between atoms: C_26  and  C_28
REMARK   14  A    between atoms: C_26  and  C_29
REMARK                            x       y       z     vdW  Elec       q    Type
REMARK                         _______ _______ _______ _____ _____    ______ ____
ROOT
ATOM      9  C   UNL     1      -4.299 -11.573  14.722  0.00  0.00    -0.023 C 
ATOM     10  C   UNL     1      -4.199 -10.945  16.167  0.00  0.00    +0.007 C 
ATOM     11  C   UNL     1      -5.323 -11.352  17.194  0.00  0.00    +0.031 C 
ATOM     12  C   UNL     1      -3.279 -10.782  13.802  0.00  0.00    +0.032 C 
ATOM     13  C   UNL     1      -5.740 -11.354  14.190  0.00  0.00    +0.011 C 
ATOM     14  C   UNL     1      -2.758 -11.047  16.714  0.00  0.00    +0.007 C 
ATOM     15  C   UNL     1      -6.715 -11.166  16.519  0.00  0.00    +0.186 C 
ATOM     16  C   UNL     1      -1.832 -10.776  14.351  0.00  0.00    +0.119 C 
ATOM     17  C   UNL     1      -6.828 -11.825  15.149  0.00  0.00    +0.046 C 
ATOM     18  C   UNL     1      -1.766 -10.318  15.805  0.00  0.00    +0.032 C 
ATOM     19  C   UNL     1      -3.999 -13.092  14.685  0.00  0.00    +0.012 C 
ATOM     21  C   UNL     1      -5.266 -10.391  18.417  0.00  0.00    +0.017 C 
ENDROOT
BRANCH  16   2
ATOM      2  O   UNL     1      -1.235 -12.063  14.224  0.00  0.00    -0.391 OA
ATOM     33  H   UNL     1      -1.383 -12.541  15.058  0.00  0.00    +0.210 HD
ENDBRANCH  16   2
BRANCH  15   1
ATOM      1  O   UNL     1      -7.770 -11.690  17.325  0.00  0.00    -0.446 OA
BRANCH   1  24
ATOM      5  O   UNL     1      -8.668 -10.727  19.208  0.00  0.00    -0.226 OA
ATOM      8  N   UNL     1      -9.115  -9.904  17.086  0.00  0.00    -0.279 N 
ATOM     24  C   UNL     1      -8.532 -10.767  17.989  0.00  0.00    +0.401 C 
ATOM     36  H   UNL     1      -8.882 -10.020  16.104  0.00  0.00    +0.152 HD
BRANCH   8  26
ATOM     26  C   UNL     1      -9.983  -8.812  17.464  0.00  0.00    +0.070 C 
ATOM     28  C   UNL     1     -11.420  -9.299  17.596  0.00  0.00    +0.027 C 
ATOM     29  C   UNL     1      -9.876  -7.672  16.459  0.00  0.00    +0.027 C 
ENDBRANCH   8  26
ENDBRANCH   1  24
ENDBRANCH  15   1
BRANCH  11  20
ATOM     20  C   UNL     1      -5.163 -12.773  17.772  0.00  0.00    +0.166 C 
BRANCH  20   3
ATOM      3  O   UNL     1      -5.915 -12.844  18.964  0.00  0.00    -0.394 OA
ATOM     34  H   UNL     1      -5.298 -13.057  19.684  0.00  0.00    +0.209 HD
ENDBRANCH  20   3
ENDBRANCH  11  20
BRANCH  12  22
ATOM     22  C   UNL     1      -3.274 -11.209  12.326  0.00  0.00    +0.102 C 
BRANCH  22  23
ATOM      4  O   UNL     1      -2.317  -9.547  10.851  0.00  0.00    -0.276 OA
ATOM      7  N   UNL     1      -4.607  -9.546  11.249  0.00  0.00    -0.308 N 
ATOM     23  C   UNL     1      -3.311 -10.020  11.395  0.00  0.00    +0.214 C 
ATOM     35  H   UNL     1      -5.366 -10.019  11.730  0.00  0.00    +0.149 HD
BRANCH   7  25
ATOM     25  C   UNL     1      -4.944  -8.413  10.417  0.00  0.00    +0.178 C 
BRANCH  25  27
ATOM      6  O   UNL     1      -6.792  -8.287   8.844  0.00  0.00    -0.466 OA
ATOM     27  C   UNL     1      -5.580  -8.834   9.125  0.00  0.00    +0.122 A 
ATOM     30  C   UNL     1      -5.191  -9.687   8.119  0.00  0.00    +0.046 A 
ATOM     31  C   UNL     1      -6.229  -9.662   7.157  0.00  0.00    +0.041 A 
ATOM     32  C   UNL     1      -7.180  -8.797   7.645  0.00  0.00    +0.195 A 
ENDBRANCH  25  27
ENDBRANCH   7  25
ENDBRANCH  22  23
ENDBRANCH  12  22
TORSDOF 10
ENDMDL
MODEL 5
REMARK VINA RESULT:      -6.0      3.975      6.291
REMARK  Name = 44716885
REMARK  14 active torsions:
REMARK  status: ('A' for Active; 'I' for Inactive)
REMARK    1  A    between atoms: O_1  and  C_15
REMARK    2  A    between atoms: O_1  and  C_24
REMARK    3  A    between atoms: O_2  and  C_16
REMARK    4  A    between atoms: O_3  and  C_20
REMARK    5  A    between atoms: N_7  and  C_25
REMARK    6  A    between atoms: N_8  and  C_26
REMARK    7  A    between atoms: C_9  and  C_19
REMARK    8  A    between atoms: C_11  and  C_20
REMARK    9  A    between atoms: C_11  and  C_21
REMARK   10  A    between atoms: C_12  and  C_22
REMARK   11  A    between atoms: C_22  and  C_23
REMARK   12  A    between atoms: C_25  and  C_27
REMARK   13  A    between atoms: C_26  and  C_28
REMARK   14  A    between atoms: C_26  and  C_29
REMARK                            x       y       z     vdW  Elec       q    Type
REMARK                         _______ _______ _______ _____ _____    ______ ____
ROOT
ATOM      9  C   UNL     1     -15.596   7.012  32.533  0.00  0.00    -0.023 C 
ATOM     10  C   UNL     1     -14.130   7.243  33.071  0.00  0.00    +0.007 C 
ATOM     11  C   UNL     1     -13.562   8.710  32.972  0.00  0.00    +0.031 C 
ATOM     12  C   UNL     1     -15.813   5.445  32.439  0.00  0.00    +0.032 C 
ATOM     13  C   UNL     1     -15.699   7.627  31.111  0.00  0.00    +0.011 C 
ATOM     14  C   UNL     1     -13.937   6.568  34.447  0.00  0.00    +0.007 C 
ATOM     15  C   UNL     1     -13.796   9.244  31.526  0.00  0.00    +0.186 C 
ATOM     16  C   UNL     1     -15.546   4.707  33.771  0.00  0.00    +0.119 C 
ATOM     17  C   UNL     1     -15.228   9.075  31.031  0.00  0.00    +0.046 C 
ATOM     18  C   UNL     1     -14.186   5.062  34.367  0.00  0.00    +0.032 C 
ATOM     19  C   UNL     1     -16.689   7.662  33.416  0.00  0.00    +0.012 C 
ATOM     21  C   UNL     1     -12.025   8.678  33.214  0.00  0.00    +0.017 C 
ENDROOT
BRANCH  16   2
ATOM      2  O   UNL     1     -16.572   4.980  34.720  0.00  0.00    -0.391 OA
ATOM     33  H   UNL     1     -17.409   4.640  34.358  0.00  0.00    +0.210 HD
ENDBRANCH  16   2
BRANCH  15   1
ATOM      1  O   UNL     1     -13.474  10.630  31.415  0.00  0.00    -0.446 OA
BRANCH   1  24
ATOM      5  O   UNL     1     -11.298  11.347  31.246  0.00  0.00    -0.226 OA
ATOM      8  N   UNL     1     -12.511  10.684  29.384  0.00  0.00    -0.279 N 
ATOM     24  C   UNL     1     -12.327  10.927  30.728  0.00  0.00    +0.401 C 
ATOM     36  H   UNL     1     -13.401  10.291  29.092  0.00  0.00    +0.152 HD
BRANCH   8  26
ATOM     26  C   UNL     1     -11.491  10.896  28.383  0.00  0.00    +0.070 C 
ATOM     28  C   UNL     1     -11.729  12.211  27.654  0.00  0.00    +0.027 C 
ATOM     29  C   UNL     1     -11.444   9.724  27.410  0.00  0.00    +0.027 C 
ENDBRANCH   8  26
ENDBRANCH   1  24
ENDBRANCH  15   1
BRANCH  11  20
ATOM     20  C   UNL     1     -14.131   9.678  34.028  0.00  0.00    +0.166 C 
BRANCH  20   3
ATOM      3  O   UNL     1     -13.149  10.657  34.294  0.00  0.00    -0.394 OA
ATOM     34  H   UNL     1     -12.427  10.219  34.776  0.00  0.00    +0.209 HD
ENDBRANCH  20   3
ENDBRANCH  11  20
BRANCH  12  22
ATOM     22  C   UNL     1     -17.174   5.015  31.869  0.00  0.00    +0.102 C 
BRANCH  22  23
ATOM      4  O   UNL     1     -17.953   3.420  30.225  0.00  0.00    -0.276 OA
ATOM      7  N   UNL     1     -15.704   4.005  30.282  0.00  0.00    -0.308 N 
ATOM     23  C   UNL     1     -17.023   4.059  30.709  0.00  0.00    +0.214 C 
ATOM     35  H   UNL     1     -15.009   4.588  30.740  0.00  0.00    +0.149 HD
BRANCH   7  25
ATOM     25  C   UNL     1     -15.263   3.171  29.187  0.00  0.00    +0.178 C 
BRANCH  25  27
ATOM      6  O   UNL     1     -13.644   1.493  29.874  0.00  0.00    -0.466 OA
ATOM     27  C   UNL     1     -14.953   1.773  29.635  0.00  0.00    +0.122 A 
ATOM     30  C   UNL     1     -15.733   0.665  29.868  0.00  0.00    +0.046 A 
ATOM     31  C   UNL     1     -14.848  -0.361  30.277  0.00  0.00    +0.041 A 
ATOM     32  C   UNL     1     -13.590   0.193  30.264  0.00  0.00    +0.195 A 
ENDBRANCH  25  27
ENDBRANCH   7  25
ENDBRANCH  22  23
ENDBRANCH  12  22
TORSDOF 10
ENDMDL
MODEL 6
REMARK VINA RESULT:      -5.9     28.699     31.786
REMARK  Name = 44716885
REMARK  14 active torsions:
REMARK  status: ('A' for Active; 'I' for Inactive)
REMARK    1  A    between atoms: O_1  and  C_15
REMARK    2  A    between atoms: O_1  and  C_24
REMARK    3  A    between atoms: O_2  and  C_16
REMARK    4  A    between atoms: O_3  and  C_20
REMARK    5  A    between atoms: N_7  and  C_25
REMARK    6  A    between atoms: N_8  and  C_26
REMARK    7  A    between atoms: C_9  and  C_19
REMARK    8  A    between atoms: C_11  and  C_20
REMARK    9  A    between atoms: C_11  and  C_21
REMARK   10  A    between atoms: C_12  and  C_22
REMARK   11  A    between atoms: C_22  and  C_23
REMARK   12  A    between atoms: C_25  and  C_27
REMARK   13  A    between atoms: C_26  and  C_28
REMARK   14  A    between atoms: C_26  and  C_29
REMARK                            x       y       z     vdW  Elec       q    Type
REMARK                         _______ _______ _______ _____ _____    ______ ____
ROOT
ATOM      9  C   UNL     1      14.103   9.367  19.786  0.00  0.00    -0.023 C 
ATOM     10  C   UNL     1      12.932   9.046  18.778  0.00  0.00    +0.007 C 
ATOM     11  C   UNL     1      13.212   9.331  17.253  0.00  0.00    +0.031 C 
ATOM     12  C   UNL     1      13.486   9.312  21.245  0.00  0.00    +0.032 C 
ATOM     13  C   UNL     1      14.614  10.806  19.503  0.00  0.00    +0.011 C 
ATOM     14  C   UNL     1      12.315   7.661  19.073  0.00  0.00    +0.007 C 
ATOM     15  C   UNL     1      13.794  10.770  17.108  0.00  0.00    +0.186 C 
ATOM     16  C   UNL     1      12.777   7.975  21.563  0.00  0.00    +0.119 C 
ATOM     17  C   UNL     1      14.966  11.057  18.041  0.00  0.00    +0.046 C 
ATOM     18  C   UNL     1      11.756   7.593  20.494  0.00  0.00    +0.032 C 
ATOM     19  C   UNL     1      15.306   8.399  19.666  0.00  0.00    +0.012 C 
ATOM     21  C   UNL     1      11.866   9.293  16.473  0.00  0.00    +0.017 C 
ENDROOT
BRANCH  16   2
ATOM      2  O   UNL     1      13.723   6.922  21.722  0.00  0.00    -0.391 OA
ATOM     33  H   UNL     1      14.432   7.059  21.070  0.00  0.00    +0.210 HD
ENDBRANCH  16   2
BRANCH  15   1
ATOM      1  O   UNL     1      14.244  11.028  15.778  0.00  0.00    -0.446 OA
BRANCH   1  24
ATOM      5  O   UNL     1      15.753  12.653  15.179  0.00  0.00    -0.226 OA
ATOM      8  N   UNL     1      13.544  13.162  15.675  0.00  0.00    -0.279 N 
ATOM     24  C   UNL     1      14.621  12.316  15.511  0.00  0.00    +0.401 C 
ATOM     36  H   UNL     1      12.647  12.745  15.909  0.00  0.00    +0.152 HD
BRANCH   8  26
ATOM     26  C   UNL     1      13.608  14.591  15.471  0.00  0.00    +0.070 C 
ATOM     28  C   UNL     1      13.983  14.904  14.029  0.00  0.00    +0.027 C 
ATOM     29  C   UNL     1      14.588  15.227  16.448  0.00  0.00    +0.027 C 
ENDBRANCH   8  26
ENDBRANCH   1  24
ENDBRANCH  15   1
BRANCH  11  20
ATOM     20  C   UNL     1      14.118   8.285  16.574  0.00  0.00    +0.166 C 
BRANCH  20   3
ATOM      3  O   UNL     1      13.841   8.304  15.190  0.00  0.00    -0.394 OA
ATOM     34  H   UNL     1      14.592   8.739  14.750  0.00  0.00    +0.209 HD
ENDBRANCH  20   3
ENDBRANCH  11  20
BRANCH  12  22
ATOM     22  C   UNL     1      14.467   9.663  22.375  0.00  0.00    +0.102 C 
BRANCH  22  23
ATOM      4  O   UNL     1      14.764  11.888  23.279  0.00  0.00    -0.276 OA
ATOM      7  N   UNL     1      12.750  10.774  23.607  0.00  0.00    -0.308 N 
ATOM     23  C   UNL     1      14.044  10.905  23.124  0.00  0.00    +0.214 C 
ATOM     35  H   UNL     1      12.230   9.923  23.409  0.00  0.00    +0.149 HD
BRANCH   7  25
ATOM     25  C   UNL     1      12.082  11.807  24.365  0.00  0.00    +0.178 C 
BRANCH  25  27
ATOM      6  O   UNL     1      10.452  13.593  24.123  0.00  0.00    -0.466 OA
ATOM     27  C   UNL     1      11.266  12.710  23.487  0.00  0.00    +0.122 A 
ATOM     30  C   UNL     1      11.156  12.847  22.124  0.00  0.00    +0.046 A 
ATOM     31  C   UNL     1      10.214  13.882  21.907  0.00  0.00    +0.041 A 
ATOM     32  C   UNL     1       9.815  14.302  23.155  0.00  0.00    +0.195 A 
ENDBRANCH  25  27
ENDBRANCH   7  25
ENDBRANCH  22  23
ENDBRANCH  12  22
TORSDOF 10
ENDMDL
MODEL 7
REMARK VINA RESULT:      -5.9     20.248     23.145
REMARK  Name = 44716885
REMARK  14 active torsions:
REMARK  status: ('A' for Active; 'I' for Inactive)
REMARK    1  A    between atoms: O_1  and  C_15
REMARK    2  A    between atoms: O_1  and  C_24
REMARK    3  A    between atoms: O_2  and  C_16
REMARK    4  A    between atoms: O_3  and  C_20
REMARK    5  A    between atoms: N_7  and  C_25
REMARK    6  A    between atoms: N_8  and  C_26
REMARK    7  A    between atoms: C_9  and  C_19
REMARK    8  A    between atoms: C_11  and  C_20
REMARK    9  A    between atoms: C_11  and  C_21
REMARK   10  A    between atoms: C_12  and  C_22
REMARK   11  A    between atoms: C_22  and  C_23
REMARK   12  A    between atoms: C_25  and  C_27
REMARK   13  A    between atoms: C_26  and  C_28
REMARK   14  A    between atoms: C_26  and  C_29
REMARK                            x       y       z     vdW  Elec       q    Type
REMARK                         _______ _______ _______ _____ _____    ______ ____
ROOT
ATOM      9  C   UNL     1      -7.069 -10.668  17.269  0.00  0.00    -0.023 C 
ATOM     10  C   UNL     1      -6.449 -12.099  17.506  0.00  0.00    +0.007 C 
ATOM     11  C   UNL     1      -4.903 -12.159  17.812  0.00  0.00    +0.031 C 
ATOM     12  C   UNL     1      -8.521 -10.886  16.673  0.00  0.00    +0.032 C 
ATOM     13  C   UNL     1      -6.197  -9.921  16.224  0.00  0.00    +0.011 C 
ATOM     14  C   UNL     1      -7.329 -12.929  18.467  0.00  0.00    +0.007 C 
ATOM     15  C   UNL     1      -4.146 -11.310  16.747  0.00  0.00    +0.186 C 
ATOM     16  C   UNL     1      -9.419 -11.786  17.554  0.00  0.00    +0.119 C 
ATOM     17  C   UNL     1      -4.710  -9.906  16.563  0.00  0.00    +0.046 C 
ATOM     18  C   UNL     1      -8.743 -13.107  17.912  0.00  0.00    +0.032 C 
ATOM     19  C   UNL     1      -7.131  -9.800  18.549  0.00  0.00    +0.012 C 
ATOM     21  C   UNL     1      -4.413 -13.629  17.670  0.00  0.00    +0.017 C 
ENDROOT
BRANCH  16   2
ATOM      2  O   UNL     1      -9.808 -11.107  18.744  0.00  0.00    -0.391 OA
ATOM     33  H   UNL     1      -9.016 -10.679  19.113  0.00  0.00    +0.210 HD
ENDBRANCH  16   2
BRANCH  15   1
ATOM      1  O   UNL     1      -2.762 -11.167  17.069  0.00  0.00    -0.446 OA
BRANCH   1  24
ATOM      5  O   UNL     1      -0.977 -10.340  15.882  0.00  0.00    -0.226 OA
ATOM      8  N   UNL     1      -2.225 -12.139  15.113  0.00  0.00    -0.279 N 
ATOM     24  C   UNL     1      -1.899 -11.141  16.007  0.00  0.00    +0.401 C 
ATOM     36  H   UNL     1      -2.986 -12.764  15.361  0.00  0.00    +0.152 HD
BRANCH   8  26
ATOM     26  C   UNL     1      -1.507 -12.380  13.883  0.00  0.00    +0.070 C 
ATOM     28  C   UNL     1      -2.086 -11.534  12.757  0.00  0.00    +0.027 C 
ATOM     29  C   UNL     1      -1.534 -13.862  13.530  0.00  0.00    +0.027 C 
ENDBRANCH   8  26
ENDBRANCH   1  24
ENDBRANCH  15   1
BRANCH  11  20
ATOM     20  C   UNL     1      -4.528 -11.730  19.245  0.00  0.00    +0.166 C 
BRANCH  20   3
ATOM      3  O   UNL     1      -3.238 -12.228  19.523  0.00  0.00    -0.394 OA
ATOM     34  H   UNL     1      -2.599 -11.637  19.088  0.00  0.00    +0.209 HD
ENDBRANCH  20   3
ENDBRANCH  11  20
BRANCH  12  22
ATOM     22  C   UNL     1      -9.272  -9.595  16.311  0.00  0.00    +0.102 C 
BRANCH  22  23
ATOM      4  O   UNL     1     -10.788  -9.575  14.425  0.00  0.00    -0.276 OA
ATOM      7  N   UNL     1      -8.496  -9.464  14.057  0.00  0.00    -0.308 N 
ATOM     23  C   UNL     1      -9.635  -9.544  14.845  0.00  0.00    +0.214 C 
ATOM     35  H   UNL     1      -7.584  -9.427  14.505  0.00  0.00    +0.149 HD
BRANCH   7  25
ATOM     25  C   UNL     1      -8.537  -9.403  12.614  0.00  0.00    +0.178 C 
BRANCH  25  27
ATOM      6  O   UNL     1      -6.303  -8.713  11.949  0.00  0.00    -0.466 OA
ATOM     27  C   UNL     1      -7.207  -9.727  12.000  0.00  0.00    +0.122 A 
ATOM     30  C   UNL     1      -6.677 -10.873  11.453  0.00  0.00    +0.046 A 
ATOM     31  C   UNL     1      -5.363 -10.542  11.041  0.00  0.00    +0.041 A 
ATOM     32  C   UNL     1      -5.185  -9.217  11.365  0.00  0.00    +0.195 A 
ENDBRANCH  25  27
ENDBRANCH   7  25
ENDBRANCH  22  23
ENDBRANCH  12  22
TORSDOF 10
ENDMDL
MODEL 8
REMARK VINA RESULT:      -5.8      6.845     11.983
REMARK  Name = 44716885
REMARK  14 active torsions:
REMARK  status: ('A' for Active; 'I' for Inactive)
REMARK    1  A    between atoms: O_1  and  C_15
REMARK    2  A    between atoms: O_1  and  C_24
REMARK    3  A    between atoms: O_2  and  C_16
REMARK    4  A    between atoms: O_3  and  C_20
REMARK    5  A    between atoms: N_7  and  C_25
REMARK    6  A    between atoms: N_8  and  C_26
REMARK    7  A    between atoms: C_9  and  C_19
REMARK    8  A    between atoms: C_11  and  C_20
REMARK    9  A    between atoms: C_11  and  C_21
REMARK   10  A    between atoms: C_12  and  C_22
REMARK   11  A    between atoms: C_22  and  C_23
REMARK   12  A    between atoms: C_25  and  C_27
REMARK   13  A    between atoms: C_26  and  C_28
REMARK   14  A    between atoms: C_26  and  C_29
REMARK                            x       y       z     vdW  Elec       q    Type
REMARK                         _______ _______ _______ _____ _____    ______ ____
ROOT
ATOM      9  C   UNL     1     -11.587   9.072  18.951  0.00  0.00    -0.023 C 
ATOM     10  C   UNL     1     -12.679  10.055  19.526  0.00  0.00    +0.007 C 
ATOM     11  C   UNL     1     -13.272   9.704  20.944  0.00  0.00    +0.031 C 
ATOM     12  C   UNL     1     -11.391   9.441  17.423  0.00  0.00    +0.032 C 
ATOM     13  C   UNL     1     -12.127   7.620  19.060  0.00  0.00    +0.011 C 
ATOM     14  C   UNL     1     -12.239  11.527  19.359  0.00  0.00    +0.007 C 
ATOM     15  C   UNL     1     -13.703   8.206  20.952  0.00  0.00    +0.186 C 
ATOM     16  C   UNL     1     -11.035  10.929  17.190  0.00  0.00    +0.119 C 
ATOM     17  C   UNL     1     -12.624   7.251  20.453  0.00  0.00    +0.046 C 
ATOM     18  C   UNL     1     -12.010  11.873  17.887  0.00  0.00    +0.032 C 
ATOM     19  C   UNL     1     -10.236   9.138  19.705  0.00  0.00    +0.012 C 
ATOM     21  C   UNL     1     -14.551  10.557  21.187  0.00  0.00    +0.017 C 
ENDROOT
BRANCH  16   2
ATOM      2  O   UNL     1      -9.705  11.207  17.620  0.00  0.00    -0.391 OA
ATOM     33  H   UNL     1      -9.123  10.527  17.240  0.00  0.00    +0.210 HD
ENDBRANCH  16   2
BRANCH  15   1
ATOM      1  O   UNL     1     -14.077   7.769  22.259  0.00  0.00    -0.446 OA
BRANCH   1  24
ATOM      5  O   UNL     1     -16.085   6.932  21.519  0.00  0.00    -0.226 OA
ATOM      8  N   UNL     1     -15.049   6.110  23.425  0.00  0.00    -0.279 N 
ATOM     24  C   UNL     1     -15.160   6.934  22.325  0.00  0.00    +0.401 C 
ATOM     36  H   UNL     1     -14.206   6.184  23.988  0.00  0.00    +0.152 HD
BRANCH   8  26
ATOM     26  C   UNL     1     -16.030   5.111  23.782  0.00  0.00    +0.070 C 
ATOM     28  C   UNL     1     -17.095   5.715  24.688  0.00  0.00    +0.027 C 
ATOM     29  C   UNL     1     -15.358   3.914  24.442  0.00  0.00    +0.027 C 
ENDBRANCH   8  26
ENDBRANCH   1  24
ENDBRANCH  15   1
BRANCH  11  20
ATOM     20  C   UNL     1     -12.327  10.024  22.119  0.00  0.00    +0.166 C 
BRANCH  20   3
ATOM      3  O   UNL     1     -13.119  10.236  23.268  0.00  0.00    -0.394 OA
ATOM     34  H   UNL     1     -12.561  10.684  23.926  0.00  0.00    +0.209 HD
ENDBRANCH  20   3
ENDBRANCH  11  20
BRANCH  12  22
ATOM     22  C   UNL     1     -10.401   8.544  16.663  0.00  0.00    +0.102 C 
BRANCH  22  23
ATOM      4  O   UNL     1     -10.151   8.011  14.316  0.00  0.00    -0.276 OA
ATOM      7  N   UNL     1     -12.279   8.169  15.237  0.00  0.00    -0.308 N 
ATOM     23  C   UNL     1     -10.893   8.211  15.274  0.00  0.00    +0.214 C 
ATOM     35  H   UNL     1     -12.804   8.333  16.092  0.00  0.00    +0.149 HD
BRANCH   7  25
ATOM     25  C   UNL     1     -13.029   7.876  14.037  0.00  0.00    +0.178 C 
BRANCH  25  27
ATOM      6  O   UNL     1     -14.896   7.672  15.580  0.00  0.00    -0.466 OA
ATOM     27  C   UNL     1     -14.410   7.377  14.344  0.00  0.00    +0.122 A 
ATOM     30  C   UNL     1     -15.333   6.657  13.622  0.00  0.00    +0.046 A 
ATOM     31  C   UNL     1     -16.458   6.500  14.467  0.00  0.00    +0.041 A 
ATOM     32  C   UNL     1     -16.142   7.134  15.646  0.00  0.00    +0.195 A 
ENDBRANCH  25  27
ENDBRANCH   7  25
ENDBRANCH  22  23
ENDBRANCH  12  22
TORSDOF 10
ENDMDL
MODEL 9
REMARK VINA RESULT:      -5.7     21.010     25.766
REMARK  Name = 44716885
REMARK  14 active torsions:
REMARK  status: ('A' for Active; 'I' for Inactive)
REMARK    1  A    between atoms: O_1  and  C_15
REMARK    2  A    between atoms: O_1  and  C_24
REMARK    3  A    between atoms: O_2  and  C_16
REMARK    4  A    between atoms: O_3  and  C_20
REMARK    5  A    between atoms: N_7  and  C_25
REMARK    6  A    between atoms: N_8  and  C_26
REMARK    7  A    between atoms: C_9  and  C_19
REMARK    8  A    between atoms: C_11  and  C_20
REMARK    9  A    between atoms: C_11  and  C_21
REMARK   10  A    between atoms: C_12  and  C_22
REMARK   11  A    between atoms: C_22  and  C_23
REMARK   12  A    between atoms: C_25  and  C_27
REMARK   13  A    between atoms: C_26  and  C_28
REMARK   14  A    between atoms: C_26  and  C_29
REMARK                            x       y       z     vdW  Elec       q    Type
REMARK                         _______ _______ _______ _____ _____    ______ ____
ROOT
ATOM      9  C   UNL     1      -4.264 -10.610  11.752  0.00  0.00    -0.023 C 
ATOM     10  C   UNL     1      -4.977 -11.417  10.598  0.00  0.00    +0.007 C 
ATOM     11  C   UNL     1      -5.633 -10.569   9.443  0.00  0.00    +0.031 C 
ATOM     12  C   UNL     1      -3.979 -11.635  12.926  0.00  0.00    +0.032 C 
ATOM     13  C   UNL     1      -5.237  -9.512  12.258  0.00  0.00    +0.011 C 
ATOM     14  C   UNL     1      -4.093 -12.588  10.116  0.00  0.00    +0.007 C 
ATOM     15  C   UNL     1      -6.519  -9.454  10.076  0.00  0.00    +0.186 C 
ATOM     16  C   UNL     1      -3.170 -12.875  12.478  0.00  0.00    +0.119 C 
ATOM     17  C   UNL     1      -5.808  -8.636  11.148  0.00  0.00    +0.046 C 
ATOM     18  C   UNL     1      -3.784 -13.557  11.258  0.00  0.00    +0.032 C 
ATOM     19  C   UNL     1      -2.952  -9.918  11.304  0.00  0.00    +0.012 C 
ATOM     21  C   UNL     1      -6.569 -11.489   8.606  0.00  0.00    +0.017 C 
ENDROOT
BRANCH  16   2
ATOM      2  O   UNL     1      -1.816 -12.528  12.204  0.00  0.00    -0.391 OA
ATOM     33  H   UNL     1      -1.608 -12.834  11.305  0.00  0.00    +0.210 HD
ENDBRANCH  16   2
BRANCH  15   1
ATOM      1  O   UNL     1      -6.997  -8.534   9.094  0.00  0.00    -0.446 OA
BRANCH   1  24
ATOM      5  O   UNL     1      -9.153  -8.774   9.850  0.00  0.00    -0.226 OA
ATOM      8  N   UNL     1      -8.519  -6.982   8.520  0.00  0.00    -0.279 N 
ATOM     24  C   UNL     1      -8.306  -8.154   9.215  0.00  0.00    +0.401 C 
ATOM     36  H   UNL     1      -7.717  -6.545   8.074  0.00  0.00    +0.152 HD
BRANCH   8  26
ATOM     26  C   UNL     1      -9.797  -6.313   8.446  0.00  0.00    +0.070 C 
ATOM     28  C   UNL     1     -10.459  -6.582   7.102  0.00  0.00    +0.027 C 
ATOM     29  C   UNL     1      -9.634  -4.818   8.693  0.00  0.00    +0.027 C 
ENDBRANCH   8  26
ENDBRANCH   1  24
ENDBRANCH  15   1
BRANCH  11  20
ATOM     20  C   UNL     1      -4.620  -9.981   8.440  0.00  0.00    +0.166 C 
BRANCH  20   3
ATOM      3  O   UNL     1      -4.903 -10.523   7.168  0.00  0.00    -0.394 OA
ATOM     34  H   UNL     1      -5.418 -11.337   7.308  0.00  0.00    +0.209 HD
ENDBRANCH  20   3
ENDBRANCH  11  20
BRANCH  12  22
ATOM     22  C   UNL     1      -3.338 -11.020  14.180  0.00  0.00    +0.102 C 
BRANCH  22  23
ATOM      4  O   UNL     1      -4.114 -12.936  15.437  0.00  0.00    -0.276 OA
ATOM      7  N   UNL     1      -3.537 -10.984  16.559  0.00  0.00    -0.308 N 
ATOM     23  C   UNL     1      -3.710 -11.776  15.434  0.00  0.00    +0.214 C 
ATOM     35  H   UNL     1      -3.180 -10.039  16.451  0.00  0.00    +0.149 HD
BRANCH   7  25
ATOM     25  C   UNL     1      -3.817 -11.445  17.900  0.00  0.00    +0.178 C 
BRANCH  25  27
ATOM      6  O   UNL     1      -5.915 -10.286  17.493  0.00  0.00    -0.466 OA
ATOM     27  C   UNL     1      -5.193 -11.054  18.352  0.00  0.00    +0.122 A 
ATOM     30  C   UNL     1      -5.917 -11.311  19.493  0.00  0.00    +0.046 A 
ATOM     31  C   UNL     1      -7.163 -10.661  19.324  0.00  0.00    +0.041 A 
ATOM     32  C   UNL     1      -7.112 -10.052  18.092  0.00  0.00    +0.195 A 
ENDBRANCH  25  27
ENDBRANCH   7  25
ENDBRANCH  22  23
ENDBRANCH  12  22
TORSDOF 10
ENDMDL
MODEL 10
REMARK VINA RESULT:      -5.6     12.713     17.397
REMARK  Name = 44716885
REMARK  14 active torsions:
REMARK  status: ('A' for Active; 'I' for Inactive)
REMARK    1  A    between atoms: O_1  and  C_15
REMARK    2  A    between atoms: O_1  and  C_24
REMARK    3  A    between atoms: O_2  and  C_16
REMARK    4  A    between atoms: O_3  and  C_20
REMARK    5  A    between atoms: N_7  and  C_25
REMARK    6  A    between atoms: N_8  and  C_26
REMARK    7  A    between atoms: C_9  and  C_19
REMARK    8  A    between atoms: C_11  and  C_20
REMARK    9  A    between atoms: C_11  and  C_21
REMARK   10  A    between atoms: C_12  and  C_22
REMARK   11  A    between atoms: C_22  and  C_23
REMARK   12  A    between atoms: C_25  and  C_27
REMARK   13  A    between atoms: C_26  and  C_28
REMARK   14  A    between atoms: C_26  and  C_29
REMARK                            x       y       z     vdW  Elec       q    Type
REMARK                         _______ _______ _______ _____ _____    ______ ____
ROOT
ATOM      9  C   UNL     1      -3.116   7.125  41.130  0.00  0.00    -0.023 C 
ATOM     10  C   UNL     1      -2.605   6.931  39.649  0.00  0.00    +0.007 C 
ATOM     11  C   UNL     1      -2.801   8.148  38.668  0.00  0.00    +0.031 C 
ATOM     12  C   UNL     1      -3.108   5.695  41.813  0.00  0.00    +0.032 C 
ATOM     13  C   UNL     1      -4.573   7.658  41.081  0.00  0.00    +0.011 C 
ATOM     14  C   UNL     1      -1.190   6.310  39.632  0.00  0.00    +0.007 C 
ATOM     15  C   UNL     1      -4.276   8.643  38.768  0.00  0.00    +0.186 C 
ATOM     16  C   UNL     1      -1.734   4.988  41.745  0.00  0.00    +0.119 C 
ATOM     17  C   UNL     1      -4.748   8.888  40.196  0.00  0.00    +0.046 C 
ATOM     18  C   UNL     1      -1.173   4.948  40.326  0.00  0.00    +0.032 C 
ATOM     19  C   UNL     1      -2.267   8.125  41.952  0.00  0.00    +0.012 C 
ATOM     21  C   UNL     1      -2.570   7.666  37.206  0.00  0.00    +0.017 C 
ENDROOT
BRANCH  16   2
ATOM      2  O   UNL     1      -0.797   5.614  42.616  0.00  0.00    -0.391 OA
ATOM     33  H   UNL     1      -0.102   4.964  42.819  0.00  0.00    +0.210 HD
ENDBRANCH  16   2
BRANCH  15   1
ATOM      1  O   UNL     1      -4.478   9.858  38.045  0.00  0.00    -0.446 OA
BRANCH   1  24
ATOM      5  O   UNL     1      -4.896   9.975  35.789  0.00  0.00    -0.226 OA
ATOM      8  N   UNL     1      -6.559   9.427  37.311  0.00  0.00    -0.279 N 
ATOM     24  C   UNL     1      -5.277   9.772  36.937  0.00  0.00    +0.401 C 
ATOM     36  H   UNL     1      -6.730   9.242  38.295  0.00  0.00    +0.152 HD
BRANCH   8  26
ATOM     26  C   UNL     1      -7.648   9.255  36.378  0.00  0.00    +0.070 C 
ATOM     28  C   UNL     1      -8.316  10.593  36.091  0.00  0.00    +0.027 C 
ATOM     29  C   UNL     1      -8.652   8.239  36.909  0.00  0.00    +0.027 C 
ENDBRANCH   8  26
ENDBRANCH   1  24
ENDBRANCH  15   1
BRANCH  11  20
ATOM     20  C   UNL     1      -1.804   9.303  38.888  0.00  0.00    +0.166 C 
BRANCH  20   3
ATOM      3  O   UNL     1      -1.617   9.958  37.653  0.00  0.00    -0.394 OA
ATOM     34  H   UNL     1      -0.836   9.563  37.230  0.00  0.00    +0.209 HD
ENDBRANCH  20   3
ENDBRANCH  11  20
BRANCH  12  22
ATOM     22  C   UNL     1      -3.639   5.665  43.255  0.00  0.00    +0.102 C 
BRANCH  22  23
ATOM      4  O   UNL     1      -5.119   3.758  43.087  0.00  0.00    -0.276 OA
ATOM      7  N   UNL     1      -5.965   5.811  43.777  0.00  0.00    -0.308 N 
ATOM     23  C   UNL     1      -4.965   4.947  43.354  0.00  0.00    +0.214 C 
ATOM     35  H   UNL     1      -5.730   6.776  43.988  0.00  0.00    +0.149 HD
BRANCH   7  25
ATOM     25  C   UNL     1      -7.338   5.399  43.959  0.00  0.00    +0.178 C 
BRANCH  25  27
ATOM      6  O   UNL     1      -9.569   5.729  43.053  0.00  0.00    -0.466 OA
ATOM     27  C   UNL     1      -8.271   6.133  43.041  0.00  0.00    +0.122 A 
ATOM     30  C   UNL     1      -8.096   7.167  42.152  0.00  0.00    +0.046 A 
ATOM     31  C   UNL     1      -9.368   7.416  41.582  0.00  0.00    +0.041 A 
ATOM     32  C   UNL     1     -10.229   6.515  42.162  0.00  0.00    +0.195 A 
ENDBRANCH  25  27
ENDBRANCH   7  25
ENDBRANCH  22  23
ENDBRANCH  12  22
TORSDOF 10
ENDMDL
