MODEL 1
REMARK VINA RESULT:      -6.8      0.000      0.000
REMARK  Name = 51136636
REMARK  12 active torsions:
REMARK  status: ('A' for Active; 'I' for Inactive)
REMARK    1  A    between atoms: S_1  and  N_8
REMARK    2  A    between atoms: S_1  and  C_21
REMARK    3  A    between atoms: O_4  and  C_19
REMARK    4  A    between atoms: O_6  and  C_29
REMARK    5  A    between atoms: O_6  and  C_35
REMARK    6  A    between atoms: O_7  and  C_30
REMARK    7  A    between atoms: O_7  and  C_36
REMARK    8  A    between atoms: C_11  and  C_16
REMARK    9  A    between atoms: C_12  and  C_17
REMARK   10  A    between atoms: C_16  and  C_18
REMARK   11  A    between atoms: C_17  and  C_19
REMARK   12  A    between atoms: C_31  and  C_34
REMARK                            x       y       z     vdW  Elec       q    Type
REMARK                         _______ _______ _______ _____ _____    ______ ____
ROOT
ATOM      8  N   UNL     1      10.897   8.246   6.403  0.00  0.00    -0.176 NA
ATOM     11  C   UNL     1      10.540   5.812   6.760  0.00  0.00    +0.014 C 
ATOM     12  C   UNL     1      10.080   6.114   8.207  0.00  0.00    +0.006 C 
ATOM     13  C   UNL     1      11.524   6.895   6.289  0.00  0.00    +0.113 C 
ATOM     14  C   UNL     1       9.531   7.544   8.334  0.00  0.00    +0.021 C 
ATOM     15  C   UNL     1      10.527   8.573   7.809  0.00  0.00    +0.110 C 
ENDROOT
BRANCH   8   1
ATOM      1  S   UNL     1      11.692   9.497   5.543  0.00  0.00    +0.061 S 
ATOM      2  O   UNL     1      11.914  10.614   6.437  0.00  0.00    -0.153 OA
ATOM      3  O   UNL     1      11.034   9.681   4.268  0.00  0.00    -0.153 OA
BRANCH   1  21
ATOM     21  C   UNL     1      13.251   8.724   5.246  0.00  0.00    +0.107 A 
ATOM     26  C   UNL     1      13.491   8.084   4.030  0.00  0.00    +0.047 A 
ATOM     27  C   UNL     1      14.241   8.752   6.227  0.00  0.00    +0.028 A 
ATOM     31  C   UNL     1      14.723   7.472   3.796  0.00  0.00    +0.054 A 
ATOM     32  C   UNL     1      15.473   8.140   5.993  0.00  0.00    +0.003 A 
ATOM     33  C   UNL     1      15.714   7.501   4.777  0.00  0.00    +0.019 A 
BRANCH  31  34
ATOM     10  N   UNL     1      15.171   6.282   1.539  0.00  0.00    -0.191 NA
ATOM     34  C   UNL     1      14.970   6.817   2.551  0.00  0.00    +0.099 C 
ENDBRANCH  31  34
ENDBRANCH   1  21
ENDBRANCH   8   1
BRANCH  11  16
ATOM     16  C   UNL     1       9.390   5.656   5.757  0.00  0.00    +0.060 C 
BRANCH  16  18
ATOM      9  N   UNL     1      10.639   4.365   4.162  0.00  0.00    -0.287 NA
ATOM     18  C   UNL     1       9.946   5.435   4.371  0.00  0.00    +0.044 C 
ATOM     20  C   UNL     1       9.678   6.454   3.323  0.00  0.00    +0.003 A 
ATOM     22  C   UNL     1      10.505   6.428   2.192  0.00  0.00    -0.033 A 
ATOM     23  C   UNL     1      11.596   5.401   2.121  0.00  0.00    +0.059 C 
ATOM     24  C   UNL     1      11.127   4.122   2.801  0.00  0.00    +0.146 C 
ATOM     25  C   UNL     1       8.668   7.410   3.440  0.00  0.00    +0.059 A 
ATOM     28  C   UNL     1      10.330   7.385   1.188  0.00  0.00    +0.053 A 
ATOM     29  C   UNL     1       8.492   8.352   2.426  0.00  0.00    +0.162 A 
ATOM     30  C   UNL     1       9.322   8.341   1.304  0.00  0.00    +0.162 A 
BRANCH  29   6
ATOM      6  O   UNL     1       7.504   9.284   2.543  0.00  0.00    -0.491 OA
ATOM     35  C   UNL     1       6.964   9.495   3.845  0.00  0.00    +0.277 C 
ENDBRANCH  29   6
BRANCH  30   7
ATOM      7  O   UNL     1       9.158   9.263   0.315  0.00  0.00    -0.491 OA
ATOM     36  C   UNL     1       8.401   8.863  -0.826  0.00  0.00    +0.277 C 
ENDBRANCH  30   7
ENDBRANCH  16  18
ENDBRANCH  11  16
BRANCH  12  17
ATOM     17  C   UNL     1       9.069   5.099   8.740  0.00  0.00    +0.124 C 
BRANCH  17  19
ATOM      5  O   UNL     1      10.389   4.600  10.727  0.00  0.00    -0.251 OA
ATOM     19  C   UNL     1       9.308   4.789  10.192  0.00  0.00    +0.305 C 
BRANCH  19   4
ATOM      4  O   UNL     1       8.121   4.745  10.852  0.00  0.00    -0.481 OA
ATOM     37  H   UNL     1       7.578   5.544  10.682  0.00  0.00    +0.295 HD
ENDBRANCH  19   4
ENDBRANCH  17  19
ENDBRANCH  12  17
TORSDOF 10
ENDMDL
MODEL 2
REMARK VINA RESULT:      -6.4     23.109     27.399
REMARK  Name = 51136636
REMARK  12 active torsions:
REMARK  status: ('A' for Active; 'I' for Inactive)
REMARK    1  A    between atoms: S_1  and  N_8
REMARK    2  A    between atoms: S_1  and  C_21
REMARK    3  A    between atoms: O_4  and  C_19
REMARK    4  A    between atoms: O_6  and  C_29
REMARK    5  A    between atoms: O_6  and  C_35
REMARK    6  A    between atoms: O_7  and  C_30
REMARK    7  A    between atoms: O_7  and  C_36
REMARK    8  A    between atoms: C_11  and  C_16
REMARK    9  A    between atoms: C_12  and  C_17
REMARK   10  A    between atoms: C_16  and  C_18
REMARK   11  A    between atoms: C_17  and  C_19
REMARK   12  A    between atoms: C_31  and  C_34
REMARK                            x       y       z     vdW  Elec       q    Type
REMARK                         _______ _______ _______ _____ _____    ______ ____
ROOT
ATOM      8  N   UNL     1      -4.421 -13.198  11.578  0.00  0.00    -0.176 NA
ATOM     11  C   UNL     1      -3.057 -11.152  11.939  0.00  0.00    +0.014 C 
ATOM     12  C   UNL     1      -3.252 -10.786  10.447  0.00  0.00    +0.006 C 
ATOM     13  C   UNL     1      -3.128 -12.677  12.115  0.00  0.00    +0.113 C 
ATOM     14  C   UNL     1      -4.534 -11.413   9.879  0.00  0.00    +0.021 C 
ATOM     15  C   UNL     1      -4.575 -12.919  10.122  0.00  0.00    +0.110 C 
ENDROOT
BRANCH   8   1
ATOM      1  S   UNL     1      -4.828 -14.790  12.066  0.00  0.00    +0.061 S 
ATOM      2  O   UNL     1      -3.638 -15.613  12.024  0.00  0.00    -0.153 OA
ATOM      3  O   UNL     1      -6.038 -15.194  11.385  0.00  0.00    -0.153 OA
BRANCH   1  21
ATOM     21  C   UNL     1      -5.227 -14.499  13.761  0.00  0.00    +0.107 A 
ATOM     26  C   UNL     1      -6.498 -14.047  14.110  0.00  0.00    +0.047 A 
ATOM     27  C   UNL     1      -4.269 -14.722  14.750  0.00  0.00    +0.028 A 
ATOM     31  C   UNL     1      -6.813 -13.817  15.450  0.00  0.00    +0.054 A 
ATOM     32  C   UNL     1      -4.583 -14.493  16.090  0.00  0.00    +0.003 A 
ATOM     33  C   UNL     1      -5.855 -14.040  16.439  0.00  0.00    +0.019 A 
BRANCH  31  34
ATOM     10  N   UNL     1      -9.175 -12.977  16.100  0.00  0.00    -0.191 NA
ATOM     34  C   UNL     1      -8.116 -13.353  15.809  0.00  0.00    +0.099 C 
ENDBRANCH  31  34
ENDBRANCH   1  21
ENDBRANCH   8   1
BRANCH  11  16
ATOM     16  C   UNL     1      -4.039 -10.454  12.888  0.00  0.00    +0.060 C 
BRANCH  16  18
ATOM      9  N   UNL     1      -2.195 -10.476  14.426  0.00  0.00    -0.287 NA
ATOM     18  C   UNL     1      -3.479 -10.448  14.290  0.00  0.00    +0.044 C 
ATOM     20  C   UNL     1      -4.423 -10.417  15.437  0.00  0.00    +0.003 A 
ATOM     22  C   UNL     1      -3.912 -10.798  16.685  0.00  0.00    -0.033 A 
ATOM     23  C   UNL     1      -2.476 -11.219  16.777  0.00  0.00    +0.059 C 
ATOM     24  C   UNL     1      -1.650 -10.409  15.787  0.00  0.00    +0.146 C 
ATOM     25  C   UNL     1      -5.761 -10.044  15.303  0.00  0.00    +0.059 A 
ATOM     28  C   UNL     1      -4.760 -10.829  17.796  0.00  0.00    +0.053 A 
ATOM     29  C   UNL     1      -6.595 -10.064  16.422  0.00  0.00    +0.162 A 
ATOM     30  C   UNL     1      -6.097 -10.458  17.664  0.00  0.00    +0.162 A 
BRANCH  29   6
ATOM      6  O   UNL     1      -7.902  -9.698  16.288  0.00  0.00    -0.491 OA
ATOM     35  C   UNL     1      -8.431  -9.661  14.965  0.00  0.00    +0.277 C 
ENDBRANCH  29   6
BRANCH  30   7
ATOM      7  O   UNL     1      -6.910 -10.485  18.757  0.00  0.00    -0.491 OA
ATOM     36  C   UNL     1      -7.380 -11.762  19.184  0.00  0.00    +0.277 C 
ENDBRANCH  30   7
ENDBRANCH  16  18
ENDBRANCH  11  16
BRANCH  12  17
ATOM     17  C   UNL     1      -3.230  -9.279  10.191  0.00  0.00    +0.124 C 
BRANCH  17  19
ATOM      5  O   UNL     1      -5.516  -8.461  10.396  0.00  0.00    -0.251 OA
ATOM     19  C   UNL     1      -4.561  -8.779   9.704  0.00  0.00    +0.305 C 
BRANCH  19   4
ATOM      4  O   UNL     1      -4.562  -8.725   8.347  0.00  0.00    -0.481 OA
ATOM     37  H   UNL     1      -3.835  -8.165   8.002  0.00  0.00    +0.295 HD
ENDBRANCH  19   4
ENDBRANCH  17  19
ENDBRANCH  12  17
TORSDOF 10
ENDMDL
MODEL 3
REMARK VINA RESULT:      -6.3     23.833     27.467
REMARK  Name = 51136636
REMARK  12 active torsions:
REMARK  status: ('A' for Active; 'I' for Inactive)
REMARK    1  A    between atoms: S_1  and  N_8
REMARK    2  A    between atoms: S_1  and  C_21
REMARK    3  A    between atoms: O_4  and  C_19
REMARK    4  A    between atoms: O_6  and  C_29
REMARK    5  A    between atoms: O_6  and  C_35
REMARK    6  A    between atoms: O_7  and  C_30
REMARK    7  A    between atoms: O_7  and  C_36
REMARK    8  A    between atoms: C_11  and  C_16
REMARK    9  A    between atoms: C_12  and  C_17
REMARK   10  A    between atoms: C_16  and  C_18
REMARK   11  A    between atoms: C_17  and  C_19
REMARK   12  A    between atoms: C_31  and  C_34
REMARK                            x       y       z     vdW  Elec       q    Type
REMARK                         _______ _______ _______ _____ _____    ______ ____
ROOT
ATOM      8  N   UNL     1      -3.266 -11.130  13.648  0.00  0.00    -0.176 NA
ATOM     11  C   UNL     1      -4.938 -11.401  15.466  0.00  0.00    +0.014 C 
ATOM     12  C   UNL     1      -3.779 -11.634  16.467  0.00  0.00    +0.006 C 
ATOM     13  C   UNL     1      -4.510 -11.847  14.059  0.00  0.00    +0.113 C 
ATOM     14  C   UNL     1      -2.478 -10.978  15.981  0.00  0.00    +0.021 C 
ATOM     15  C   UNL     1      -2.126 -11.418  14.563  0.00  0.00    +0.110 C 
ENDROOT
BRANCH   8   1
ATOM      1  S   UNL     1      -2.900 -11.201  11.975  0.00  0.00    +0.061 S 
ATOM      2  O   UNL     1      -2.798 -12.589  11.575  0.00  0.00    -0.153 OA
ATOM      3  O   UNL     1      -1.837 -10.263  11.688  0.00  0.00    -0.153 OA
BRANCH   1  21
ATOM     21  C   UNL     1      -4.397 -10.552  11.304  0.00  0.00    +0.107 A 
ATOM     26  C   UNL     1      -5.410 -11.418  10.892  0.00  0.00    +0.047 A 
ATOM     27  C   UNL     1      -4.567  -9.173  11.184  0.00  0.00    +0.028 A 
ATOM     31  C   UNL     1      -6.594 -10.903  10.362  0.00  0.00    +0.054 A 
ATOM     32  C   UNL     1      -5.750  -8.658  10.654  0.00  0.00    +0.003 A 
ATOM     33  C   UNL     1      -6.763  -9.524  10.242  0.00  0.00    +0.019 A 
BRANCH  31  34
ATOM     10  N   UNL     1      -8.475 -12.510   9.596  0.00  0.00    -0.191 NA
ATOM     34  C   UNL     1      -7.632 -11.789   9.940  0.00  0.00    +0.099 C 
ENDBRANCH  31  34
ENDBRANCH   1  21
ENDBRANCH   8   1
BRANCH  11  16
ATOM     16  C   UNL     1      -5.460  -9.959  15.439  0.00  0.00    +0.060 C 
BRANCH  16  18
ATOM      9  N   UNL     1      -7.290  -9.844  13.887  0.00  0.00    -0.287 NA
ATOM     18  C   UNL     1      -6.937  -9.955  15.125  0.00  0.00    +0.044 C 
ATOM     20  C   UNL     1      -7.906 -10.071  16.245  0.00  0.00    +0.003 A 
ATOM     22  C   UNL     1      -9.226  -9.681  15.980  0.00  0.00    -0.033 A 
ATOM     23  C   UNL     1      -9.564  -9.167  14.613  0.00  0.00    +0.059 C 
ATOM     24  C   UNL     1      -8.722  -9.901  13.577  0.00  0.00    +0.146 C 
ATOM     25  C   UNL     1      -7.544 -10.530  17.513  0.00  0.00    +0.059 A 
ATOM     28  C   UNL     1     -10.177  -9.729  17.003  0.00  0.00    +0.053 A 
ATOM     29  C   UNL     1      -8.505 -10.588  18.523  0.00  0.00    +0.162 A 
ATOM     30  C   UNL     1      -9.817 -10.186  18.270  0.00  0.00    +0.162 A 
BRANCH  29   6
ATOM      6  O   UNL     1      -8.148 -11.038  19.760  0.00  0.00    -0.491 OA
ATOM     35  C   UNL     1      -7.717 -12.393  19.856  0.00  0.00    +0.277 C 
ENDBRANCH  29   6
BRANCH  30   7
ATOM      7  O   UNL     1     -10.756 -10.234  19.256  0.00  0.00    -0.491 OA
ATOM     36  C   UNL     1     -12.061  -9.756  18.933  0.00  0.00    +0.277 C 
ENDBRANCH  30   7
ENDBRANCH  16  18
ENDBRANCH  11  16
BRANCH  12  17
ATOM     17  C   UNL     1      -4.113 -11.183  17.888  0.00  0.00    +0.124 C 
BRANCH  17  19
ATOM      5  O   UNL     1      -3.295 -12.183  19.955  0.00  0.00    -0.251 OA
ATOM     19  C   UNL     1      -3.881 -12.281  18.888  0.00  0.00    +0.305 C 
BRANCH  19   4
ATOM      4  O   UNL     1      -4.430 -13.438  18.433  0.00  0.00    -0.481 OA
ATOM     37  H   UNL     1      -3.746 -14.105  18.211  0.00  0.00    +0.295 HD
ENDBRANCH  19   4
ENDBRANCH  17  19
ENDBRANCH  12  17
TORSDOF 10
ENDMDL
MODEL 4
REMARK VINA RESULT:      -6.3     23.796     28.128
REMARK  Name = 51136636
REMARK  12 active torsions:
REMARK  status: ('A' for Active; 'I' for Inactive)
REMARK    1  A    between atoms: S_1  and  N_8
REMARK    2  A    between atoms: S_1  and  C_21
REMARK    3  A    between atoms: O_4  and  C_19
REMARK    4  A    between atoms: O_6  and  C_29
REMARK    5  A    between atoms: O_6  and  C_35
REMARK    6  A    between atoms: O_7  and  C_30
REMARK    7  A    between atoms: O_7  and  C_36
REMARK    8  A    between atoms: C_11  and  C_16
REMARK    9  A    between atoms: C_12  and  C_17
REMARK   10  A    between atoms: C_16  and  C_18
REMARK   11  A    between atoms: C_17  and  C_19
REMARK   12  A    between atoms: C_31  and  C_34
REMARK                            x       y       z     vdW  Elec       q    Type
REMARK                         _______ _______ _______ _____ _____    ______ ____
ROOT
ATOM      8  N   UNL     1      -6.770 -12.392  18.278  0.00  0.00    -0.176 NA
ATOM     11  C   UNL     1      -4.756 -12.786  16.877  0.00  0.00    +0.014 C 
ATOM     12  C   UNL     1      -5.419 -14.071  16.323  0.00  0.00    +0.006 C 
ATOM     13  C   UNL     1      -5.280 -12.496  18.292  0.00  0.00    +0.113 C 
ATOM     14  C   UNL     1      -6.951 -13.993  16.410  0.00  0.00    +0.021 C 
ATOM     15  C   UNL     1      -7.415 -13.656  17.823  0.00  0.00    +0.110 C 
ENDROOT
BRANCH   8   1
ATOM      1  S   UNL     1      -7.467 -11.672  19.668  0.00  0.00    +0.061 S 
ATOM      2  O   UNL     1      -6.491 -10.799  20.285  0.00  0.00    -0.153 OA
ATOM      3  O   UNL     1      -8.144 -12.694  20.436  0.00  0.00    -0.153 OA
BRANCH   1  21
ATOM     21  C   UNL     1      -8.695 -10.658  18.907  0.00  0.00    +0.107 A 
ATOM     26  C   UNL     1      -9.985 -10.610  19.436  0.00  0.00    +0.047 A 
ATOM     27  C   UNL     1      -8.376  -9.907  17.776  0.00  0.00    +0.028 A 
ATOM     31  C   UNL     1     -10.955  -9.808  18.834  0.00  0.00    +0.054 A 
ATOM     32  C   UNL     1      -9.347  -9.106  17.174  0.00  0.00    +0.003 A 
ATOM     33  C   UNL     1     -10.636  -9.057  17.703  0.00  0.00    +0.019 A 
BRANCH  31  34
ATOM     10  N   UNL     1     -13.351  -9.717  19.814  0.00  0.00    -0.191 NA
ATOM     34  C   UNL     1     -12.277  -9.757  19.375  0.00  0.00    +0.099 C 
ENDBRANCH  31  34
ENDBRANCH   1  21
ENDBRANCH   8   1
BRANCH  11  16
ATOM     16  C   UNL     1      -4.927 -11.557  15.976  0.00  0.00    +0.060 C 
BRANCH  16  18
ATOM      9  N   UNL     1      -2.555 -11.181  15.990  0.00  0.00    -0.287 NA
ATOM     18  C   UNL     1      -3.627 -11.253  15.272  0.00  0.00    +0.044 C 
ATOM     20  C   UNL     1      -3.641 -11.046  13.801  0.00  0.00    +0.003 A 
ATOM     22  C   UNL     1      -2.531 -10.399  13.243  0.00  0.00    -0.033 A 
ATOM     23  C   UNL     1      -1.426  -9.951  14.154  0.00  0.00    +0.059 C 
ATOM     24  C   UNL     1      -1.283 -10.947  15.297  0.00  0.00    +0.146 C 
ATOM     25  C   UNL     1      -4.703 -11.455  12.992  0.00  0.00    +0.059 A 
ATOM     28  C   UNL     1      -2.501 -10.138  11.870  0.00  0.00    +0.053 A 
ATOM     29  C   UNL     1      -4.657 -11.204  11.620  0.00  0.00    +0.162 A 
ATOM     30  C   UNL     1      -3.562 -10.545  11.061  0.00  0.00    +0.162 A 
BRANCH  29   6
ATOM      6  O   UNL     1      -5.696 -11.605  10.832  0.00  0.00    -0.491 OA
ATOM     35  C   UNL     1      -6.884 -10.820  10.879  0.00  0.00    +0.277 C 
ENDBRANCH  29   6
BRANCH  30   7
ATOM      7  O   UNL     1      -3.517 -10.291   9.723  0.00  0.00    -0.491 OA
ATOM     36  C   UNL     1      -3.963  -9.007   9.291  0.00  0.00    +0.277 C 
ENDBRANCH  30   7
ENDBRANCH  16  18
ENDBRANCH  11  16
BRANCH  12  17
ATOM     17  C   UNL     1      -4.976 -14.412  14.901  0.00  0.00    +0.124 C 
BRANCH  17  19
ATOM      5  O   UNL     1      -2.683 -14.459  14.076  0.00  0.00    -0.251 OA
ATOM     19  C   UNL     1      -3.537 -14.847  14.858  0.00  0.00    +0.305 C 
BRANCH  19   4
ATOM      4  O   UNL     1      -3.305 -15.760  15.837  0.00  0.00    -0.481 OA
ATOM     37  H   UNL     1      -2.901 -16.581  15.483  0.00  0.00    +0.295 HD
ENDBRANCH  19   4
ENDBRANCH  17  19
ENDBRANCH  12  17
TORSDOF 10
ENDMDL
MODEL 5
REMARK VINA RESULT:      -6.2     23.791     27.955
REMARK  Name = 51136636
REMARK  12 active torsions:
REMARK  status: ('A' for Active; 'I' for Inactive)
REMARK    1  A    between atoms: S_1  and  N_8
REMARK    2  A    between atoms: S_1  and  C_21
REMARK    3  A    between atoms: O_4  and  C_19
REMARK    4  A    between atoms: O_6  and  C_29
REMARK    5  A    between atoms: O_6  and  C_35
REMARK    6  A    between atoms: O_7  and  C_30
REMARK    7  A    between atoms: O_7  and  C_36
REMARK    8  A    between atoms: C_11  and  C_16
REMARK    9  A    between atoms: C_12  and  C_17
REMARK   10  A    between atoms: C_16  and  C_18
REMARK   11  A    between atoms: C_17  and  C_19
REMARK   12  A    between atoms: C_31  and  C_34
REMARK                            x       y       z     vdW  Elec       q    Type
REMARK                         _______ _______ _______ _____ _____    ______ ____
ROOT
ATOM      8  N   UNL     1      -3.820 -11.763  15.347  0.00  0.00    -0.176 NA
ATOM     11  C   UNL     1      -5.680 -12.119  16.956  0.00  0.00    +0.014 C 
ATOM     12  C   UNL     1      -5.076 -11.019  17.864  0.00  0.00    +0.006 C 
ATOM     13  C   UNL     1      -4.567 -12.788  16.136  0.00  0.00    +0.113 C 
ATOM     14  C   UNL     1      -4.226 -10.029  17.055  0.00  0.00    +0.021 C 
ATOM     15  C   UNL     1      -3.168 -10.749  16.223  0.00  0.00    +0.110 C 
ENDROOT
BRANCH   8   1
ATOM      1  S   UNL     1      -2.839 -12.381  14.086  0.00  0.00    +0.061 S 
ATOM      2  O   UNL     1      -3.353 -13.672  13.680  0.00  0.00    -0.153 OA
ATOM      3  O   UNL     1      -1.449 -12.213  14.448  0.00  0.00    -0.153 OA
BRANCH   1  21
ATOM     21  C   UNL     1      -3.214 -11.223  12.808  0.00  0.00    +0.107 A 
ATOM     26  C   UNL     1      -4.522 -10.771  12.639  0.00  0.00    +0.047 A 
ATOM     27  C   UNL     1      -2.202 -10.760  11.967  0.00  0.00    +0.028 A 
ATOM     31  C   UNL     1      -4.818  -9.855  11.628  0.00  0.00    +0.054 A 
ATOM     32  C   UNL     1      -2.497  -9.845  10.957  0.00  0.00    +0.003 A 
ATOM     33  C   UNL     1      -3.806  -9.393  10.787  0.00  0.00    +0.019 A 
BRANCH  31  34
ATOM     10  N   UNL     1      -7.247  -9.013  11.313  0.00  0.00    -0.191 NA
ATOM     34  C   UNL     1      -6.158  -9.391  11.454  0.00  0.00    +0.099 C 
ENDBRANCH  31  34
ENDBRANCH   1  21
ENDBRANCH   8   1
BRANCH  11  16
ATOM     16  C   UNL     1      -6.803 -11.623  16.037  0.00  0.00    +0.060 C 
BRANCH  16  18
ATOM      9  N   UNL     1      -8.202 -13.455  16.713  0.00  0.00    -0.287 NA
ATOM     18  C   UNL     1      -8.127 -12.182  16.498  0.00  0.00    +0.044 C 
ATOM     20  C   UNL     1      -9.273 -11.254  16.675  0.00  0.00    +0.003 A 
ATOM     22  C   UNL     1     -10.551 -11.829  16.719  0.00  0.00    -0.033 A 
ATOM     23  C   UNL     1     -10.676 -13.317  16.573  0.00  0.00    +0.059 C 
ATOM     24  C   UNL     1      -9.471 -13.988  17.219  0.00  0.00    +0.146 C 
ATOM     25  C   UNL     1      -9.116  -9.871  16.780  0.00  0.00    +0.059 A 
ATOM     28  C   UNL     1     -11.674 -11.006  16.844  0.00  0.00    +0.053 A 
ATOM     29  C   UNL     1     -10.242  -9.060  16.920  0.00  0.00    +0.162 A 
ATOM     30  C   UNL     1     -11.518  -9.624  16.948  0.00  0.00    +0.162 A 
BRANCH  29   6
ATOM      6  O   UNL     1     -10.084  -7.709  17.023  0.00  0.00    -0.491 OA
ATOM     35  C   UNL     1     -10.132  -6.957  15.813  0.00  0.00    +0.277 C 
ENDBRANCH  29   6
BRANCH  30   7
ATOM      7  O   UNL     1     -12.620  -8.835  17.077  0.00  0.00    -0.491 OA
ATOM     36  C   UNL     1     -13.478  -8.729  15.943  0.00  0.00    +0.277 C 
ENDBRANCH  30   7
ENDBRANCH  16  18
ENDBRANCH  11  16
BRANCH  12  17
ATOM     17  C   UNL     1      -6.127 -10.278  18.691  0.00  0.00    +0.124 C 
BRANCH  17  19
ATOM      5  O   UNL     1      -5.760 -11.400  20.823  0.00  0.00    -0.251 OA
ATOM     19  C   UNL     1      -6.508 -11.050  19.923  0.00  0.00    +0.305 C 
BRANCH  19   4
ATOM      4  O   UNL     1      -7.840 -11.316  19.903  0.00  0.00    -0.481 OA
ATOM     37  H   UNL     1      -8.087 -11.999  20.562  0.00  0.00    +0.295 HD
ENDBRANCH  19   4
ENDBRANCH  17  19
ENDBRANCH  12  17
TORSDOF 10
ENDMDL
MODEL 6
REMARK VINA RESULT:      -6.1     23.774     27.235
REMARK  Name = 51136636
REMARK  12 active torsions:
REMARK  status: ('A' for Active; 'I' for Inactive)
REMARK    1  A    between atoms: S_1  and  N_8
REMARK    2  A    between atoms: S_1  and  C_21
REMARK    3  A    between atoms: O_4  and  C_19
REMARK    4  A    between atoms: O_6  and  C_29
REMARK    5  A    between atoms: O_6  and  C_35
REMARK    6  A    between atoms: O_7  and  C_30
REMARK    7  A    between atoms: O_7  and  C_36
REMARK    8  A    between atoms: C_11  and  C_16
REMARK    9  A    between atoms: C_12  and  C_17
REMARK   10  A    between atoms: C_16  and  C_18
REMARK   11  A    between atoms: C_17  and  C_19
REMARK   12  A    between atoms: C_31  and  C_34
REMARK                            x       y       z     vdW  Elec       q    Type
REMARK                         _______ _______ _______ _____ _____    ______ ____
ROOT
ATOM      8  N   UNL     1      -4.902 -12.059  14.881  0.00  0.00    -0.176 NA
ATOM     11  C   UNL     1      -6.506 -11.219  16.583  0.00  0.00    +0.014 C 
ATOM     12  C   UNL     1      -5.374 -11.261  17.639  0.00  0.00    +0.006 C 
ATOM     13  C   UNL     1      -6.246 -12.274  15.497  0.00  0.00    +0.113 C 
ATOM     14  C   UNL     1      -3.991 -11.142  16.982  0.00  0.00    +0.021 C 
ATOM     15  C   UNL     1      -3.803 -12.180  15.880  0.00  0.00    +0.110 C 
ENDROOT
BRANCH   8   1
ATOM      1  S   UNL     1      -4.637 -12.874  13.397  0.00  0.00    +0.061 S 
ATOM      2  O   UNL     1      -5.915 -13.128  12.765  0.00  0.00    -0.153 OA
ATOM      3  O   UNL     1      -3.687 -13.944  13.613  0.00  0.00    -0.153 OA
BRANCH   1  21
ATOM     21  C   UNL     1      -3.826 -11.599  12.486  0.00  0.00    +0.107 A 
ATOM     26  C   UNL     1      -4.574 -10.697  11.731  0.00  0.00    +0.047 A 
ATOM     27  C   UNL     1      -2.435 -11.496  12.520  0.00  0.00    +0.028 A 
ATOM     31  C   UNL     1      -3.932  -9.689  11.011  0.00  0.00    +0.054 A 
ATOM     32  C   UNL     1      -1.793 -10.488  11.799  0.00  0.00    +0.003 A 
ATOM     33  C   UNL     1      -2.542  -9.586  11.044  0.00  0.00    +0.019 A 
BRANCH  31  34
ATOM     10  N   UNL     1      -5.320  -8.011   9.609  0.00  0.00    -0.191 NA
ATOM     34  C   UNL     1      -4.698  -8.764  10.237  0.00  0.00    +0.099 C 
ENDBRANCH  31  34
ENDBRANCH   1  21
ENDBRANCH   8   1
BRANCH  11  16
ATOM     16  C   UNL     1      -6.722  -9.838  15.953  0.00  0.00    +0.060 C 
BRANCH  16  18
ATOM      9  N   UNL     1      -8.449  -8.847  17.297  0.00  0.00    -0.287 NA
ATOM     18  C   UNL     1      -8.150  -9.396  16.166  0.00  0.00    +0.044 C 
ATOM     20  C   UNL     1      -9.137  -9.617  15.077  0.00  0.00    +0.003 A 
ATOM     22  C   UNL     1     -10.491  -9.563  15.433  0.00  0.00    -0.033 A 
ATOM     23  C   UNL     1     -10.850  -9.305  16.866  0.00  0.00    +0.059 C 
ATOM     24  C   UNL     1      -9.821  -8.363  17.479  0.00  0.00    +0.146 C 
ATOM     25  C   UNL     1      -8.760  -9.882  13.760  0.00  0.00    +0.059 A 
ATOM     28  C   UNL     1     -11.469  -9.803  14.463  0.00  0.00    +0.053 A 
ATOM     29  C   UNL     1      -9.744 -10.105  12.796  0.00  0.00    +0.162 A 
ATOM     30  C   UNL     1     -11.094 -10.068  13.146  0.00  0.00    +0.162 A 
BRANCH  29   6
ATOM      6  O   UNL     1      -9.373 -10.362  11.509  0.00  0.00    -0.491 OA
ATOM     35  C   UNL     1      -8.237  -9.661  11.010  0.00  0.00    +0.277 C 
ENDBRANCH  29   6
BRANCH  30   7
ATOM      7  O   UNL     1     -12.058 -10.292  12.210  0.00  0.00    -0.491 OA
ATOM     36  C   UNL     1     -12.959  -9.220  11.937  0.00  0.00    +0.277 C 
ENDBRANCH  30   7
ENDBRANCH  16  18
ENDBRANCH  11  16
BRANCH  12  17
ATOM     17  C   UNL     1      -5.540 -10.215  18.741  0.00  0.00    +0.124 C 
BRANCH  17  19
ATOM      5  O   UNL     1      -5.876 -11.432  20.825  0.00  0.00    -0.251 OA
ATOM     19  C   UNL     1      -6.318 -10.758  19.908  0.00  0.00    +0.305 C 
BRANCH  19   4
ATOM      4  O   UNL     1      -7.620 -10.386  19.804  0.00  0.00    -0.481 OA
ATOM     37  H   UNL     1      -7.717  -9.415  19.709  0.00  0.00    +0.295 HD
ENDBRANCH  19   4
ENDBRANCH  17  19
ENDBRANCH  12  17
TORSDOF 10
ENDMDL
MODEL 7
REMARK VINA RESULT:      -6.0     23.020     26.901
REMARK  Name = 51136636
REMARK  12 active torsions:
REMARK  status: ('A' for Active; 'I' for Inactive)
REMARK    1  A    between atoms: S_1  and  N_8
REMARK    2  A    between atoms: S_1  and  C_21
REMARK    3  A    between atoms: O_4  and  C_19
REMARK    4  A    between atoms: O_6  and  C_29
REMARK    5  A    between atoms: O_6  and  C_35
REMARK    6  A    between atoms: O_7  and  C_30
REMARK    7  A    between atoms: O_7  and  C_36
REMARK    8  A    between atoms: C_11  and  C_16
REMARK    9  A    between atoms: C_12  and  C_17
REMARK   10  A    between atoms: C_16  and  C_18
REMARK   11  A    between atoms: C_17  and  C_19
REMARK   12  A    between atoms: C_31  and  C_34
REMARK                            x       y       z     vdW  Elec       q    Type
REMARK                         _______ _______ _______ _____ _____    ______ ____
ROOT
ATOM      8  N   UNL     1      -3.769 -11.404  14.995  0.00  0.00    -0.176 NA
ATOM     11  C   UNL     1      -6.183 -11.218  15.556  0.00  0.00    +0.014 C 
ATOM     12  C   UNL     1      -5.795 -10.880  17.017  0.00  0.00    +0.006 C 
ATOM     13  C   UNL     1      -5.093 -12.091  14.916  0.00  0.00    +0.113 C 
ATOM     14  C   UNL     1      -4.388 -10.268  17.096  0.00  0.00    +0.021 C 
ATOM     15  C   UNL     1      -3.354 -11.151  16.404  0.00  0.00    +0.110 C 
ENDROOT
BRANCH   8   1
ATOM      1  S   UNL     1      -2.550 -12.044  13.976  0.00  0.00    +0.061 S 
ATOM      2  O   UNL     1      -2.938 -13.374  13.556  0.00  0.00    -0.153 OA
ATOM      3  O   UNL     1      -1.258 -11.800  14.579  0.00  0.00    -0.153 OA
BRANCH   1  21
ATOM     21  C   UNL     1      -2.714 -10.968  12.586  0.00  0.00    +0.107 A 
ATOM     26  C   UNL     1      -3.945 -10.845  11.942  0.00  0.00    +0.047 A 
ATOM     27  C   UNL     1      -1.613 -10.243  12.132  0.00  0.00    +0.028 A 
ATOM     31  C   UNL     1      -4.074  -9.994  10.843  0.00  0.00    +0.054 A 
ATOM     32  C   UNL     1      -1.742  -9.392  11.034  0.00  0.00    +0.003 A 
ATOM     33  C   UNL     1      -2.973  -9.269  10.390  0.00  0.00    +0.019 A 
BRANCH  31  34
ATOM     10  N   UNL     1      -6.359  -9.762   9.646  0.00  0.00    -0.191 NA
ATOM     34  C   UNL     1      -5.334  -9.867  10.183  0.00  0.00    +0.099 C 
ENDBRANCH  31  34
ENDBRANCH   1  21
ENDBRANCH   8   1
BRANCH  11  16
ATOM     16  C   UNL     1      -6.470  -9.988  14.685  0.00  0.00    +0.060 C 
BRANCH  16  18
ATOM      9  N   UNL     1      -7.554 -10.950  12.770  0.00  0.00    -0.287 NA
ATOM     18  C   UNL     1      -7.695 -10.236  13.838  0.00  0.00    +0.044 C 
ATOM     20  C   UNL     1      -8.990  -9.646  14.264  0.00  0.00    +0.003 A 
ATOM     22  C   UNL     1      -9.994  -9.559  13.291  0.00  0.00    -0.033 A 
ATOM     23  C   UNL     1      -9.696 -10.045  11.903  0.00  0.00    +0.059 C 
ATOM     24  C   UNL     1      -8.756 -11.240  11.980  0.00  0.00    +0.146 C 
ATOM     25  C   UNL     1      -9.218  -9.181  15.560  0.00  0.00    +0.059 A 
ATOM     28  C   UNL     1     -11.223  -8.978  13.617  0.00  0.00    +0.053 A 
ATOM     29  C   UNL     1     -10.453  -8.616  15.880  0.00  0.00    +0.162 A 
ATOM     30  C   UNL     1     -11.452  -8.512  14.912  0.00  0.00    +0.162 A 
BRANCH  29   6
ATOM      6  O   UNL     1     -10.672  -8.164  17.148  0.00  0.00    -0.491 OA
ATOM     35  C   UNL     1     -10.905  -9.146  18.155  0.00  0.00    +0.277 C 
ENDBRANCH  29   6
BRANCH  30   7
ATOM      7  O   UNL     1     -12.656  -7.955  15.218  0.00  0.00    -0.491 OA
ATOM     36  C   UNL     1     -12.868  -6.604  14.811  0.00  0.00    +0.277 C 
ENDBRANCH  30   7
ENDBRANCH  16  18
ENDBRANCH  11  16
BRANCH  12  17
ATOM     17  C   UNL     1      -6.814  -9.982  17.717  0.00  0.00    +0.124 C 
BRANCH  17  19
ATOM      5  O   UNL     1      -8.199 -11.486  19.044  0.00  0.00    -0.251 OA
ATOM     19  C   UNL     1      -7.343 -10.618  18.973  0.00  0.00    +0.305 C 
BRANCH  19   4
ATOM      4  O   UNL     1      -6.722 -10.080  20.055  0.00  0.00    -0.481 OA
ATOM     37  H   UNL     1      -5.808 -10.420  20.159  0.00  0.00    +0.295 HD
ENDBRANCH  19   4
ENDBRANCH  17  19
ENDBRANCH  12  17
TORSDOF 10
ENDMDL
MODEL 8
REMARK VINA RESULT:      -6.0      2.757      5.312
REMARK  Name = 51136636
REMARK  12 active torsions:
REMARK  status: ('A' for Active; 'I' for Inactive)
REMARK    1  A    between atoms: S_1  and  N_8
REMARK    2  A    between atoms: S_1  and  C_21
REMARK    3  A    between atoms: O_4  and  C_19
REMARK    4  A    between atoms: O_6  and  C_29
REMARK    5  A    between atoms: O_6  and  C_35
REMARK    6  A    between atoms: O_7  and  C_30
REMARK    7  A    between atoms: O_7  and  C_36
REMARK    8  A    between atoms: C_11  and  C_16
REMARK    9  A    between atoms: C_12  and  C_17
REMARK   10  A    between atoms: C_16  and  C_18
REMARK   11  A    between atoms: C_17  and  C_19
REMARK   12  A    between atoms: C_31  and  C_34
REMARK                            x       y       z     vdW  Elec       q    Type
REMARK                         _______ _______ _______ _____ _____    ______ ____
ROOT
ATOM      8  N   UNL     1       9.347   7.288   5.485  0.00  0.00    -0.176 NA
ATOM     11  C   UNL     1       8.312   7.940   3.322  0.00  0.00    +0.014 C 
ATOM     12  C   UNL     1       7.449   8.983   4.075  0.00  0.00    +0.006 C 
ATOM     13  C   UNL     1       8.660   6.775   4.262  0.00  0.00    +0.113 C 
ATOM     14  C   UNL     1       8.119   9.426   5.384  0.00  0.00    +0.021 C 
ATOM     15  C   UNL     1       8.486   8.230   6.256  0.00  0.00    +0.110 C 
ENDROOT
BRANCH   8   1
ATOM      1  S   UNL     1      10.159   6.103   6.420  0.00  0.00    +0.061 S 
ATOM      2  O   UNL     1       9.956   4.805   5.812  0.00  0.00    -0.153 OA
ATOM      3  O   UNL     1       9.863   6.326   7.818  0.00  0.00    -0.153 OA
BRANCH   1  21
ATOM     21  C   UNL     1      11.834   6.580   6.134  0.00  0.00    +0.107 A 
ATOM     26  C   UNL     1      12.243   6.958   4.855  0.00  0.00    +0.047 A 
ATOM     27  C   UNL     1      12.748   6.578   7.187  0.00  0.00    +0.028 A 
ATOM     31  C   UNL     1      13.567   7.334   4.630  0.00  0.00    +0.054 A 
ATOM     32  C   UNL     1      14.073   6.955   6.962  0.00  0.00    +0.003 A 
ATOM     33  C   UNL     1      14.482   7.332   5.683  0.00  0.00    +0.019 A 
BRANCH  31  34
ATOM     10  N   UNL     1      14.330   8.036   2.257  0.00  0.00    -0.191 NA
ATOM     34  C   UNL     1      13.987   7.721   3.320  0.00  0.00    +0.099 C 
ENDBRANCH  31  34
ENDBRANCH   1  21
ENDBRANCH   8   1
BRANCH  11  16
ATOM     16  C   UNL     1       9.582   8.521   2.689  0.00  0.00    +0.060 C 
BRANCH  16  18
ATOM      9  N   UNL     1       9.109   9.395   0.502  0.00  0.00    -0.287 NA
ATOM     18  C   UNL     1       9.517   8.378   1.187  0.00  0.00    +0.044 C 
ATOM     20  C   UNL     1       9.913   7.084   0.574  0.00  0.00    +0.003 A 
ATOM     22  C   UNL     1       9.484   6.851  -0.739  0.00  0.00    -0.033 A 
ATOM     23  C   UNL     1       8.654   7.896  -1.423  0.00  0.00    +0.059 C 
ATOM     24  C   UNL     1       9.104   9.276  -0.960  0.00  0.00    +0.146 C 
ATOM     25  C   UNL     1      10.664   6.125   1.255  0.00  0.00    +0.059 A 
ATOM     28  C   UNL     1       9.790   5.636  -1.359  0.00  0.00    +0.053 A 
ATOM     29  C   UNL     1      10.977   4.922   0.622  0.00  0.00    +0.162 A 
ATOM     30  C   UNL     1      10.539   4.676  -0.680  0.00  0.00    +0.162 A 
BRANCH  29   6
ATOM      6  O   UNL     1      11.712   3.987   1.290  0.00  0.00    -0.491 OA
ATOM     35  C   UNL     1      11.294   3.659   2.613  0.00  0.00    +0.277 C 
ENDBRANCH  29   6
BRANCH  30   7
ATOM      7  O   UNL     1      10.837   3.499  -1.298  0.00  0.00    -0.491 OA
ATOM     36  C   UNL     1      10.716   3.465  -2.719  0.00  0.00    +0.277 C 
ENDBRANCH  30   7
ENDBRANCH  16  18
ENDBRANCH  11  16
BRANCH  12  17
ATOM     17  C   UNL     1       7.086  10.195   3.217  0.00  0.00    +0.124 C 
BRANCH  17  19
ATOM      5  O   UNL     1       4.691   9.954   2.839  0.00  0.00    -0.251 OA
ATOM     19  C   UNL     1       5.837   9.954   2.416  0.00  0.00    +0.305 C 
BRANCH  19   4
ATOM      4  O   UNL     1       6.161   9.729   1.116  0.00  0.00    -0.481 OA
ATOM     37  H   UNL     1       6.933   9.130   1.030  0.00  0.00    +0.295 HD
ENDBRANCH  19   4
ENDBRANCH  17  19
ENDBRANCH  12  17
TORSDOF 10
ENDMDL
MODEL 9
REMARK VINA RESULT:      -6.0     22.832     26.898
REMARK  Name = 51136636
REMARK  12 active torsions:
REMARK  status: ('A' for Active; 'I' for Inactive)
REMARK    1  A    between atoms: S_1  and  N_8
REMARK    2  A    between atoms: S_1  and  C_21
REMARK    3  A    between atoms: O_4  and  C_19
REMARK    4  A    between atoms: O_6  and  C_29
REMARK    5  A    between atoms: O_6  and  C_35
REMARK    6  A    between atoms: O_7  and  C_30
REMARK    7  A    between atoms: O_7  and  C_36
REMARK    8  A    between atoms: C_11  and  C_16
REMARK    9  A    between atoms: C_12  and  C_17
REMARK   10  A    between atoms: C_16  and  C_18
REMARK   11  A    between atoms: C_17  and  C_19
REMARK   12  A    between atoms: C_31  and  C_34
REMARK                            x       y       z     vdW  Elec       q    Type
REMARK                         _______ _______ _______ _____ _____    ______ ____
ROOT
ATOM      8  N   UNL     1      -5.300 -12.018  16.675  0.00  0.00    -0.176 NA
ATOM     11  C   UNL     1      -3.592 -11.856  14.878  0.00  0.00    +0.014 C 
ATOM     12  C   UNL     1      -3.862 -13.338  14.517  0.00  0.00    +0.006 C 
ATOM     13  C   UNL     1      -3.895 -11.617  16.365  0.00  0.00    +0.113 C 
ATOM     14  C   UNL     1      -5.276 -13.768  14.935  0.00  0.00    +0.021 C 
ATOM     15  C   UNL     1      -5.541 -13.465  16.407  0.00  0.00    +0.110 C 
ENDROOT
BRANCH   8   1
ATOM      1  S   UNL     1      -5.916 -11.436  18.164  0.00  0.00    +0.061 S 
ATOM      2  O   UNL     1      -5.001 -10.449  18.698  0.00  0.00    -0.153 OA
ATOM      3  O   UNL     1      -6.350 -12.561  18.964  0.00  0.00    -0.153 OA
BRANCH   1  21
ATOM     21  C   UNL     1      -7.354 -10.588  17.592  0.00  0.00    +0.107 A 
ATOM     26  C   UNL     1      -8.502 -10.549  18.383  0.00  0.00    +0.047 A 
ATOM     27  C   UNL     1      -7.343  -9.957  16.348  0.00  0.00    +0.028 A 
ATOM     31  C   UNL     1      -9.639  -9.878  17.931  0.00  0.00    +0.054 A 
ATOM     32  C   UNL     1      -8.479  -9.286  15.895  0.00  0.00    +0.003 A 
ATOM     33  C   UNL     1      -9.627  -9.248  16.687  0.00  0.00    +0.019 A 
BRANCH  31  34
ATOM     10  N   UNL     1     -11.772  -9.805  19.397  0.00  0.00    -0.191 NA
ATOM     34  C   UNL     1     -10.815  -9.838  18.740  0.00  0.00    +0.099 C 
ENDBRANCH  31  34
ENDBRANCH   1  21
ENDBRANCH   8   1
BRANCH  11  16
ATOM     16  C   UNL     1      -4.353 -10.852  14.003  0.00  0.00    +0.060 C 
BRANCH  16  18
ATOM      9  N   UNL     1      -2.243 -10.398  12.949  0.00  0.00    -0.287 NA
ATOM     18  C   UNL     1      -3.523 -10.492  12.795  0.00  0.00    +0.044 C 
ATOM     20  C   UNL     1      -4.210 -10.259  11.499  0.00  0.00    +0.003 A 
ATOM     22  C   UNL     1      -3.489  -9.564  10.518  0.00  0.00    -0.033 A 
ATOM     23  C   UNL     1      -2.101  -9.097  10.841  0.00  0.00    +0.059 C 
ATOM     24  C   UNL     1      -1.432 -10.108  11.762  0.00  0.00    +0.146 C 
ATOM     25  C   UNL     1      -5.515 -10.687  11.248  0.00  0.00    +0.059 A 
ATOM     28  C   UNL     1      -4.094  -9.277   9.291  0.00  0.00    +0.053 A 
ATOM     29  C   UNL     1      -6.104 -10.409  10.014  0.00  0.00    +0.162 A 
ATOM     30  C   UNL     1      -5.397  -9.704   9.039  0.00  0.00    +0.162 A 
BRANCH  29   6
ATOM      6  O   UNL     1      -7.379 -10.830   9.772  0.00  0.00    -0.491 OA
ATOM     35  C   UNL     1      -7.645 -12.219   9.945  0.00  0.00    +0.277 C 
ENDBRANCH  29   6
BRANCH  30   7
ATOM      7  O   UNL     1      -5.972  -9.424   7.836  0.00  0.00    -0.491 OA
ATOM     36  C   UNL     1      -5.635 -10.276   6.743  0.00  0.00    +0.277 C 
ENDBRANCH  30   7
ENDBRANCH  16  18
ENDBRANCH  11  16
BRANCH  12  17
ATOM     17  C   UNL     1      -3.616 -13.652  13.042  0.00  0.00    +0.124 C 
BRANCH  17  19
ATOM      5  O   UNL     1      -2.075 -15.488  12.601  0.00  0.00    -0.251 OA
ATOM     19  C   UNL     1      -2.279 -14.306  12.830  0.00  0.00    +0.305 C 
BRANCH  19   4
ATOM      4  O   UNL     1      -1.293 -13.376  12.929  0.00  0.00    -0.481 OA
ATOM     37  H   UNL     1      -0.405 -13.788  12.987  0.00  0.00    +0.295 HD
ENDBRANCH  19   4
ENDBRANCH  17  19
ENDBRANCH  12  17
TORSDOF 10
ENDMDL
MODEL 10
REMARK VINA RESULT:      -6.0     24.600     27.628
REMARK  Name = 51136636
REMARK  12 active torsions:
REMARK  status: ('A' for Active; 'I' for Inactive)
REMARK    1  A    between atoms: S_1  and  N_8
REMARK    2  A    between atoms: S_1  and  C_21
REMARK    3  A    between atoms: O_4  and  C_19
REMARK    4  A    between atoms: O_6  and  C_29
REMARK    5  A    between atoms: O_6  and  C_35
REMARK    6  A    between atoms: O_7  and  C_30
REMARK    7  A    between atoms: O_7  and  C_36
REMARK    8  A    between atoms: C_11  and  C_16
REMARK    9  A    between atoms: C_12  and  C_17
REMARK   10  A    between atoms: C_16  and  C_18
REMARK   11  A    between atoms: C_17  and  C_19
REMARK   12  A    between atoms: C_31  and  C_34
REMARK                            x       y       z     vdW  Elec       q    Type
REMARK                         _______ _______ _______ _____ _____    ______ ____
ROOT
ATOM      8  N   UNL     1      -3.304 -10.720  13.905  0.00  0.00    -0.176 NA
ATOM     11  C   UNL     1      -4.995 -11.289  15.634  0.00  0.00    +0.014 C 
ATOM     12  C   UNL     1      -3.849 -11.515  16.650  0.00  0.00    +0.006 C 
ATOM     13  C   UNL     1      -4.493 -11.571  14.209  0.00  0.00    +0.113 C 
ATOM     14  C   UNL     1      -2.595 -10.714  16.268  0.00  0.00    +0.021 C 
ATOM     15  C   UNL     1      -2.168 -10.995  14.831  0.00  0.00    +0.110 C 
ENDROOT
BRANCH   8   1
ATOM      1  S   UNL     1      -2.887 -10.611  12.246  0.00  0.00    +0.061 S 
ATOM      2  O   UNL     1      -1.488 -10.256  12.135  0.00  0.00    -0.153 OA
ATOM      3  O   UNL     1      -3.906  -9.851  11.556  0.00  0.00    -0.153 OA
BRANCH   1  21
ATOM     21  C   UNL     1      -3.056 -12.303  11.774  0.00  0.00    +0.107 A 
ATOM     26  C   UNL     1      -2.343 -13.291  12.453  0.00  0.00    +0.047 A 
ATOM     27  C   UNL     1      -3.902 -12.652  10.722  0.00  0.00    +0.028 A 
ATOM     31  C   UNL     1      -2.476 -14.629  12.080  0.00  0.00    +0.054 A 
ATOM     32  C   UNL     1      -4.035 -13.990  10.348  0.00  0.00    +0.003 A 
ATOM     33  C   UNL     1      -3.322 -14.978  11.027  0.00  0.00    +0.019 A 
BRANCH  31  34
ATOM     10  N   UNL     1      -1.152 -16.463  13.340  0.00  0.00    -0.191 NA
ATOM     34  C   UNL     1      -1.746 -15.641  12.774  0.00  0.00    +0.099 C 
ENDBRANCH  31  34
ENDBRANCH   1  21
ENDBRANCH   8   1
BRANCH  11  16
ATOM     16  C   UNL     1      -5.636  -9.897  15.715  0.00  0.00    +0.060 C 
BRANCH  16  18
ATOM      9  N   UNL     1      -7.241  -9.748  13.933  0.00  0.00    -0.287 NA
ATOM     18  C   UNL     1      -7.052  -9.955  15.195  0.00  0.00    +0.044 C 
ATOM     20  C   UNL     1      -8.154 -10.238  16.151  0.00  0.00    +0.003 A 
ATOM     22  C   UNL     1      -9.451  -9.907  15.735  0.00  0.00    -0.033 A 
ATOM     23  C   UNL     1      -9.637  -9.286  14.382  0.00  0.00    +0.059 C 
ATOM     24  C   UNL     1      -8.609  -9.864  13.418  0.00  0.00    +0.146 C 
ATOM     25  C   UNL     1      -7.935 -10.792  17.413  0.00  0.00    +0.059 A 
ATOM     28  C   UNL     1     -10.527 -10.111  16.604  0.00  0.00    +0.053 A 
ATOM     29  C   UNL     1      -9.017 -11.006  18.267  0.00  0.00    +0.162 A 
ATOM     30  C   UNL     1     -10.309 -10.664  17.865  0.00  0.00    +0.162 A 
BRANCH  29   6
ATOM      6  O   UNL     1      -8.800 -11.549  19.499  0.00  0.00    -0.491 OA
ATOM     35  C   UNL     1      -7.514 -12.115  19.738  0.00  0.00    +0.277 C 
ENDBRANCH  29   6
BRANCH  30   7
ATOM      7  O   UNL     1     -11.368 -10.864  18.699  0.00  0.00    -0.491 OA
ATOM     36  C   UNL     1     -12.236  -9.755  18.923  0.00  0.00    +0.277 C 
ENDBRANCH  30   7
ENDBRANCH  16  18
ENDBRANCH  11  16
BRANCH  12  17
ATOM     17  C   UNL     1      -4.258 -11.222  18.093  0.00  0.00    +0.124 C 
BRANCH  17  19
ATOM      5  O   UNL     1      -3.263 -12.274  20.053  0.00  0.00    -0.251 OA
ATOM     19  C   UNL     1      -3.898 -12.355  19.013  0.00  0.00    +0.305 C 
BRANCH  19   4
ATOM      4  O   UNL     1      -4.390 -13.521  18.518  0.00  0.00    -0.481 OA
ATOM     37  H   UNL     1      -4.447 -13.507  17.539  0.00  0.00    +0.295 HD
ENDBRANCH  19   4
ENDBRANCH  17  19
ENDBRANCH  12  17
TORSDOF 10
ENDMDL
