REMARK  Name = 45360664
REMARK  13 active torsions:
REMARK  status: ('A' for Active; 'I' for Inactive)
REMARK    1  A    between atoms: O_3  and  C_34
REMARK    2  A    between atoms: O_3  and  C_35
REMARK    3  A    between atoms: N_6  and  C_10
REMARK    4  A    between atoms: N_6  and  C_18
REMARK    5  A    between atoms: N_7  and  C_23
REMARK    6  A    between atoms: N_8  and  C_26
REMARK    7  A    between atoms: N_8  and  C_30
REMARK    8  A    between atoms: N_8  and  C_31
REMARK    9  A    between atoms: C_12  and  C_16
REMARK   10  A    between atoms: C_16  and  C_17
REMARK   11  A    between atoms: C_17  and  C_19
REMARK   12  A    between atoms: C_18  and  C_20
REMARK   13  A    between atoms: C_23  and  C_27
REMARK                            x       y       z     vdW  Elec       q    Type
REMARK                         _______ _______ _______ _____ _____    ______ ____
ROOT
ATOM      1  O   UNL     1      -0.971  -2.027   2.709  0.00  0.00    -0.274 OA
ATOM      4  N   UNL     1      -1.061   1.048   0.744  0.00  0.00    -0.286 NA
ATOM      5  N   UNL     1      -1.676   0.055   3.295  0.00  0.00    -0.313 N 
ATOM      9  C   UNL     1      -1.021  -0.407   0.938  0.00  0.00    +0.145 C 
ATOM     10  C   UNL     1       1.025   0.477  -0.025  0.00  0.00    +0.070 C 
ATOM     11  C   UNL     1       0.355  -0.830   0.402  0.00  0.00    +0.048 C 
ATOM     12  C   UNL     1      -2.064   1.734   1.550  0.00  0.00    +0.075 C 
ATOM     13  C   UNL     1       0.316   1.530   0.815  0.00  0.00    +0.104 C 
ATOM     14  C   UNL     1      -1.846   1.465   3.030  0.00  0.00    +0.123 C 
ATOM     15  C   UNL     1      -1.196  -0.857   2.386  0.00  0.00    +0.230 C 
ATOM     36  H   UNL     1      -1.808  -0.262   4.251  0.00  0.00    +0.149 HD
ENDROOT
BRANCH  10   6
ATOM      6  N   UNL     1       2.467   0.465   0.156  0.00  0.00    -0.308 NA
ATOM     37  H   UNL     1       2.808   1.426   0.173  0.00  0.00    +0.123 HD
BRANCH   6  18
ATOM     18  C   UNL     1       3.125  -0.252  -0.930  0.00  0.00    +0.116 C 
BRANCH  18  20
ATOM     20  C   UNL     1       4.620  -0.288  -0.753  0.00  0.00    -0.033 A 
ATOM     21  C   UNL     1       5.383   0.846  -1.033  0.00  0.00    +0.007 A 
ATOM     22  C   UNL     1       5.242  -1.455  -0.310  0.00  0.00    +0.007 A 
ATOM     24  C   UNL     1       6.767   0.813  -0.870  0.00  0.00    +0.023 A 
ATOM     25  C   UNL     1       6.627  -1.488  -0.146  0.00  0.00    +0.023 A 
ATOM     26  C   UNL     1       7.389  -0.354  -0.426  0.00  0.00    +0.029 A 
BRANCH  26   8
ATOM      8  N   UNL     1       8.790  -0.388  -0.261  0.00  0.00    -0.336 N 
ATOM     30  C   UNL     1       9.445  -1.593   0.206  0.00  0.00    +0.129 C 
ATOM     31  C   UNL     1       9.591   0.785  -0.549  0.00  0.00    +0.129 C 
ENDBRANCH  26   8
ENDBRANCH  18  20
ENDBRANCH   6  18
ENDBRANCH  10   6
BRANCH  12  16
ATOM     16  C   UNL     1      -2.125   3.236   1.269  0.00  0.00    +0.029 C 
BRANCH  16  17
ATOM     17  C   UNL     1      -2.301   3.511  -0.219  0.00  0.00    +0.097 C 
BRANCH  17  19
ATOM      2  O   UNL     1      -4.702   3.226  -0.346  0.00  0.00    -0.276 OA
ATOM      7  N   UNL     1      -3.342   1.997  -1.770  0.00  0.00    -0.311 N 
ATOM     19  C   UNL     1      -3.589   2.917  -0.762  0.00  0.00    +0.213 C 
ATOM     38  H   UNL     1      -2.387   1.778  -2.036  0.00  0.00    +0.149 HD
BRANCH   7  23
ATOM     23  C   UNL     1      -4.405   1.292  -2.447  0.00  0.00    +0.139 C 
BRANCH  23  27
ATOM     27  C   UNL     1      -4.745  -0.003  -1.760  0.00  0.00    -0.030 A 
ATOM     28  C   UNL     1      -3.911  -1.111  -1.906  0.00  0.00    +0.009 A 
ATOM     29  C   UNL     1      -5.896  -0.095  -0.976  0.00  0.00    +0.009 A 
ATOM     32  C   UNL     1      -4.227  -2.311  -1.269  0.00  0.00    +0.046 A 
ATOM     33  C   UNL     1      -6.212  -1.295  -0.339  0.00  0.00    +0.046 A 
ATOM     34  C   UNL     1      -5.378  -2.403  -0.485  0.00  0.00    +0.120 A 
BRANCH  34   3
ATOM      3  O   UNL     1      -5.686  -3.574   0.137  0.00  0.00    -0.495 OA
ATOM     35  C   UNL     1      -4.788  -4.666  -0.055  0.00  0.00    +0.277 C 
ENDBRANCH  34   3
ENDBRANCH  23  27
ENDBRANCH   7  23
ENDBRANCH  17  19
ENDBRANCH  16  17
ENDBRANCH  12  16
TORSDOF 10
