MODEL 1
REMARK VINA RESULT:      -7.3      0.000      0.000
REMARK  Name = 71693650
REMARK  6 active torsions:
REMARK  status: ('A' for Active; 'I' for Inactive)
REMARK    1  A    between atoms: O_3  and  C_16
REMARK    2  A    between atoms: N_5  and  C_22
REMARK    3  A    between atoms: N_6  and  C_19
REMARK    4  A    between atoms: C_7  and  C_14
REMARK    5  A    between atoms: C_12  and  C_16
REMARK    6  A    between atoms: C_13  and  C_15
REMARK                            x       y       z     vdW  Elec       q    Type
REMARK                         _______ _______ _______ _____ _____    ______ ____
ROOT
ATOM     15  C   UNL     1      16.073   7.226  19.684  0.00  0.00    -0.017 A 
ATOM     19  C   UNL     1      18.569   6.065  20.135  0.00  0.00    +0.033 A 
ATOM     20  C   UNL     1      16.473   6.119  18.934  0.00  0.00    +0.008 A 
ATOM     21  C   UNL     1      16.920   7.752  20.658  0.00  0.00    +0.008 A 
ATOM     23  C   UNL     1      17.721   5.538  19.160  0.00  0.00    +0.023 A 
ATOM     24  C   UNL     1      18.169   7.171  20.885  0.00  0.00    +0.023 A 
ENDROOT
BRANCH  15  13
ATOM      1  O   UNL     1      14.336   7.518  18.103  0.00  0.00    -0.361 OA
ATOM      4  O   UNL     1      10.889   8.417  18.158  0.00  0.00    -0.273 OA
ATOM      5  N   UNL     1      12.272   7.816  19.936  0.00  0.00    -0.295 N 
ATOM     12  C   UNL     1      13.609   7.359  20.388  0.00  0.00    +0.134 C 
ATOM     13  C   UNL     1      14.717   7.854  19.438  0.00  0.00    +0.171 C 
ATOM     17  C   UNL     1      13.215   8.267  17.700  0.00  0.00    +0.256 C 
ATOM     18  C   UNL     1      12.006   8.155  18.608  0.00  0.00    +0.242 C 
ATOM     22  C   UNL     1      11.149   7.674  20.859  0.00  0.00    +0.132 C 
BRANCH  12  16
ATOM     16  C   UNL     1      13.912   7.771  21.835  0.00  0.00    +0.181 C 
BRANCH  16   3
ATOM      3  O   UNL     1      14.006   9.181  21.882  0.00  0.00    -0.393 OA
ATOM     26  H   UNL     1      13.958   9.503  20.966  0.00  0.00    +0.209 HD
ENDBRANCH  16   3
ENDBRANCH  12  16
ENDBRANCH  15  13
BRANCH  19   6
ATOM      2  O   UNL     1      21.301   7.315  20.320  0.00  0.00    -0.275 OA
ATOM      6  N   UNL     1      19.818   5.484  20.362  0.00  0.00    -0.285 N 
ATOM     14  C   UNL     1      21.065   6.118  20.437  0.00  0.00    +0.220 C 
ATOM     25  H   UNL     1      19.804   4.475  20.493  0.00  0.00    +0.155 HD
BRANCH  14   7
ATOM      7  C   UNL     1      22.170   5.139  20.695  0.00  0.00    +0.075 C 
ATOM      8  C   UNL     1      21.590   3.770  21.066  0.00  0.00    +0.013 C 
ATOM      9  C   UNL     1      23.015   5.583  21.890  0.00  0.00    +0.013 C 
ATOM     10  C   UNL     1      22.195   3.413  22.419  0.00  0.00    +0.001 C 
ATOM     11  C   UNL     1      22.495   4.757  23.058  0.00  0.00    +0.001 C 
ENDBRANCH  14   7
ENDBRANCH  19   6
TORSDOF 5
ENDMDL
MODEL 2
REMARK VINA RESULT:      -6.9      1.824      8.599
REMARK  Name = 71693650
REMARK  6 active torsions:
REMARK  status: ('A' for Active; 'I' for Inactive)
REMARK    1  A    between atoms: O_3  and  C_16
REMARK    2  A    between atoms: N_5  and  C_22
REMARK    3  A    between atoms: N_6  and  C_19
REMARK    4  A    between atoms: C_7  and  C_14
REMARK    5  A    between atoms: C_12  and  C_16
REMARK    6  A    between atoms: C_13  and  C_15
REMARK                            x       y       z     vdW  Elec       q    Type
REMARK                         _______ _______ _______ _____ _____    ______ ____
ROOT
ATOM     15  C   UNL     1      18.955   6.035  20.573  0.00  0.00    -0.017 A 
ATOM     19  C   UNL     1      16.303   6.479  19.831  0.00  0.00    +0.033 A 
ATOM     20  C   UNL     1      18.092   6.708  21.439  0.00  0.00    +0.008 A 
ATOM     21  C   UNL     1      18.492   5.585  19.338  0.00  0.00    +0.008 A 
ATOM     23  C   UNL     1      16.766   6.930  21.068  0.00  0.00    +0.023 A 
ATOM     24  C   UNL     1      17.166   5.806  18.966  0.00  0.00    +0.023 A 
ENDROOT
BRANCH  15  13
ATOM      1  O   UNL     1      20.754   4.500  20.492  0.00  0.00    -0.361 OA
ATOM      4  O   UNL     1      24.294   4.612  20.879  0.00  0.00    -0.273 OA
ATOM      5  N   UNL     1      22.794   6.378  20.618  0.00  0.00    -0.295 N 
ATOM     12  C   UNL     1      21.394   6.814  20.396  0.00  0.00    +0.134 C 
ATOM     13  C   UNL     1      20.394   5.794  20.977  0.00  0.00    +0.171 C 
ATOM     17  C   UNL     1      21.983   4.085  21.038  0.00  0.00    +0.256 C 
ATOM     18  C   UNL     1      23.139   5.040  20.817  0.00  0.00    +0.242 C 
ATOM     22  C   UNL     1      23.861   7.347  20.381  0.00  0.00    +0.132 C 
BRANCH  12  16
ATOM     16  C   UNL     1      21.120   8.217  20.953  0.00  0.00    +0.181 C 
BRANCH  16   3
ATOM      3  O   UNL     1      21.165   8.149  22.363  0.00  0.00    -0.393 OA
ATOM     26  H   UNL     1      22.025   8.507  22.642  0.00  0.00    +0.209 HD
ENDBRANCH  16   3
ENDBRANCH  12  16
ENDBRANCH  15  13
BRANCH  19   6
ATOM      2  O   UNL     1      14.943   8.971  18.828  0.00  0.00    -0.275 OA
ATOM      6  N   UNL     1      14.976   6.700  19.460  0.00  0.00    -0.285 N 
ATOM     14  C   UNL     1      14.394   7.888  18.998  0.00  0.00    +0.220 C 
ATOM     25  H   UNL     1      14.368   5.886  19.533  0.00  0.00    +0.155 HD
BRANCH  14   7
ATOM      7  C   UNL     1      12.935   7.713  18.704  0.00  0.00    +0.075 C 
ATOM      8  C   UNL     1      12.178   9.016  18.981  0.00  0.00    +0.013 C 
ATOM      9  C   UNL     1      12.321   6.658  19.626  0.00  0.00    +0.013 C 
ATOM     10  C   UNL     1      11.082   8.658  19.980  0.00  0.00    +0.001 C 
ATOM     11  C   UNL     1      11.638   7.458  20.726  0.00  0.00    +0.001 C 
ENDBRANCH  14   7
ENDBRANCH  19   6
TORSDOF 5
ENDMDL
MODEL 3
REMARK VINA RESULT:      -6.4      2.159      8.693
REMARK  Name = 71693650
REMARK  6 active torsions:
REMARK  status: ('A' for Active; 'I' for Inactive)
REMARK    1  A    between atoms: O_3  and  C_16
REMARK    2  A    between atoms: N_5  and  C_22
REMARK    3  A    between atoms: N_6  and  C_19
REMARK    4  A    between atoms: C_7  and  C_14
REMARK    5  A    between atoms: C_12  and  C_16
REMARK    6  A    between atoms: C_13  and  C_15
REMARK                            x       y       z     vdW  Elec       q    Type
REMARK                         _______ _______ _______ _____ _____    ______ ____
ROOT
ATOM     15  C   UNL     1      19.056   7.069  21.473  0.00  0.00    -0.017 A 
ATOM     19  C   UNL     1      16.725   7.301  19.958  0.00  0.00    +0.033 A 
ATOM     20  C   UNL     1      18.253   8.203  21.597  0.00  0.00    +0.008 A 
ATOM     21  C   UNL     1      18.694   6.052  20.591  0.00  0.00    +0.008 A 
ATOM     23  C   UNL     1      17.088   8.319  20.840  0.00  0.00    +0.023 A 
ATOM     24  C   UNL     1      17.528   6.166  19.833  0.00  0.00    +0.023 A 
ENDROOT
BRANCH  15  13
ATOM      1  O   UNL     1      19.919   6.687  23.643  0.00  0.00    -0.361 OA
ATOM      4  O   UNL     1      23.020   5.667  25.071  0.00  0.00    -0.273 OA
ATOM      5  N   UNL     1      22.334   5.575  22.845  0.00  0.00    -0.295 N 
ATOM     12  C   UNL     1      21.255   5.801  21.853  0.00  0.00    +0.134 C 
ATOM     13  C   UNL     1      20.321   6.944  22.296  0.00  0.00    +0.171 C 
ATOM     17  C   UNL     1      21.011   6.810  24.522  0.00  0.00    +0.256 C 
ATOM     18  C   UNL     1      22.208   5.945  24.185  0.00  0.00    +0.242 C 
ATOM     22  C   UNL     1      23.457   4.726  22.456  0.00  0.00    +0.132 C 
BRANCH  12  16
ATOM     16  C   UNL     1      21.798   6.063  20.442  0.00  0.00    +0.181 C 
BRANCH  16   3
ATOM      3  O   UNL     1      21.628   4.887  19.677  0.00  0.00    -0.393 OA
ATOM     26  H   UNL     1      21.550   4.146  20.301  0.00  0.00    +0.209 HD
ENDBRANCH  16   3
ENDBRANCH  12  16
ENDBRANCH  15  13
BRANCH  19   6
ATOM      2  O   UNL     1      13.861   6.715  20.676  0.00  0.00    -0.275 OA
ATOM      6  N   UNL     1      15.559   7.416  19.199  0.00  0.00    -0.285 N 
ATOM     14  C   UNL     1      14.244   7.126  19.587  0.00  0.00    +0.220 C 
ATOM     25  H   UNL     1      15.696   7.760  18.251  0.00  0.00    +0.155 HD
BRANCH  14   7
ATOM      7  C   UNL     1      13.270   7.382  18.477  0.00  0.00    +0.075 C 
ATOM      8  C   UNL     1      14.015   7.785  17.200  0.00  0.00    +0.013 C 
ATOM      9  C   UNL     1      12.352   8.555  18.825  0.00  0.00    +0.013 C 
ATOM     10  C   UNL     1      13.435   9.134  16.787  0.00  0.00    +0.001 C 
ATOM     11  C   UNL     1      12.953   9.746  18.091  0.00  0.00    +0.001 C 
ENDBRANCH  14   7
ENDBRANCH  19   6
TORSDOF 5
ENDMDL
MODEL 4
REMARK VINA RESULT:      -6.3     27.849     31.564
REMARK  Name = 71693650
REMARK  6 active torsions:
REMARK  status: ('A' for Active; 'I' for Inactive)
REMARK    1  A    between atoms: O_3  and  C_16
REMARK    2  A    between atoms: N_5  and  C_22
REMARK    3  A    between atoms: N_6  and  C_19
REMARK    4  A    between atoms: C_7  and  C_14
REMARK    5  A    between atoms: C_12  and  C_16
REMARK    6  A    between atoms: C_13  and  C_15
REMARK                            x       y       z     vdW  Elec       q    Type
REMARK                         _______ _______ _______ _____ _____    ______ ____
ROOT
ATOM     15  C   UNL     1     -12.938   7.499  20.970  0.00  0.00    -0.017 A 
ATOM     19  C   UNL     1     -14.050   5.872  22.944  0.00  0.00    +0.033 A 
ATOM     20  C   UNL     1     -12.438   6.213  21.178  0.00  0.00    +0.008 A 
ATOM     21  C   UNL     1     -13.994   7.970  21.749  0.00  0.00    +0.008 A 
ATOM     23  C   UNL     1     -12.994   5.399  22.165  0.00  0.00    +0.023 A 
ATOM     24  C   UNL     1     -14.551   7.158  22.736  0.00  0.00    +0.023 A 
ENDROOT
BRANCH  15  13
ATOM      1  O   UNL     1     -10.915   8.305  20.044  0.00  0.00    -0.361 OA
ATOM      4  O   UNL     1      -9.858   9.770  16.973  0.00  0.00    -0.273 OA
ATOM      5  N   UNL     1     -11.867   8.696  17.466  0.00  0.00    -0.295 N 
ATOM     12  C   UNL     1     -12.686   7.956  18.457  0.00  0.00    +0.134 C 
ATOM     13  C   UNL     1     -12.334   8.380  19.897  0.00  0.00    +0.171 C 
ATOM     17  C   UNL     1     -10.279   9.286  19.260  0.00  0.00    +0.256 C 
ATOM     18  C   UNL     1     -10.630   9.258  17.786  0.00  0.00    +0.242 C 
ATOM     22  C   UNL     1     -12.259   8.622  16.060  0.00  0.00    +0.132 C 
BRANCH  12  16
ATOM     16  C   UNL     1     -14.192   8.103  18.203  0.00  0.00    +0.181 C 
BRANCH  16   3
ATOM      3  O   UNL     1     -14.569   9.424  18.536  0.00  0.00    -0.393 OA
ATOM     26  H   UNL     1     -14.534   9.498  19.504  0.00  0.00    +0.209 HD
ENDBRANCH  16   3
ENDBRANCH  12  16
ENDBRANCH  15  13
BRANCH  19   6
ATOM      2  O   UNL     1     -16.012   3.598  22.728  0.00  0.00    -0.275 OA
ATOM      6  N   UNL     1     -14.607   5.058  23.932  0.00  0.00    -0.285 N 
ATOM     14  C   UNL     1     -15.522   4.009  23.774  0.00  0.00    +0.220 C 
ATOM     25  H   UNL     1     -14.296   5.261  24.880  0.00  0.00    +0.155 HD
BRANCH  14   7
ATOM      7  C   UNL     1     -15.878   3.381  25.086  0.00  0.00    +0.075 C 
ATOM      8  C   UNL     1     -16.789   2.168  24.865  0.00  0.00    +0.013 C 
ATOM      9  C   UNL     1     -16.672   4.358  25.956  0.00  0.00    +0.013 C 
ATOM     10  C   UNL     1     -18.042   2.431  25.693  0.00  0.00    +0.001 C 
ATOM     11  C   UNL     1     -18.125   3.945  25.771  0.00  0.00    +0.001 C 
ENDBRANCH  14   7
ENDBRANCH  19   6
TORSDOF 5
ENDMDL
MODEL 5
REMARK VINA RESULT:      -6.3     24.246     28.049
REMARK  Name = 71693650
REMARK  6 active torsions:
REMARK  status: ('A' for Active; 'I' for Inactive)
REMARK    1  A    between atoms: O_3  and  C_16
REMARK    2  A    between atoms: N_5  and  C_22
REMARK    3  A    between atoms: N_6  and  C_19
REMARK    4  A    between atoms: C_7  and  C_14
REMARK    5  A    between atoms: C_12  and  C_16
REMARK    6  A    between atoms: C_13  and  C_15
REMARK                            x       y       z     vdW  Elec       q    Type
REMARK                         _______ _______ _______ _____ _____    ______ ____
ROOT
ATOM     15  C   UNL     1      -3.842   8.316   4.786  0.00  0.00    -0.017 A 
ATOM     19  C   UNL     1      -6.162   6.804   4.450  0.00  0.00    +0.033 A 
ATOM     20  C   UNL     1      -3.886   6.996   5.236  0.00  0.00    +0.008 A 
ATOM     21  C   UNL     1      -4.958   8.879   4.169  0.00  0.00    +0.008 A 
ATOM     23  C   UNL     1      -5.046   6.240   5.068  0.00  0.00    +0.023 A 
ATOM     24  C   UNL     1      -6.118   8.124   4.000  0.00  0.00    +0.023 A 
ENDROOT
BRANCH  15  13
ATOM      1  O   UNL     1      -1.989   9.284   3.677  0.00  0.00    -0.361 OA
ATOM      4  O   UNL     1       0.392  11.850   4.338  0.00  0.00    -0.273 OA
ATOM      5  N   UNL     1      -1.593  11.373   5.462  0.00  0.00    -0.295 N 
ATOM     12  C   UNL     1      -2.820  10.543   5.547  0.00  0.00    +0.134 C 
ATOM     13  C   UNL     1      -2.581   9.135   4.968  0.00  0.00    +0.171 C 
ATOM     17  C   UNL     1      -0.687   9.809   3.781  0.00  0.00    +0.256 C 
ATOM     18  C   UNL     1      -0.582  11.120   4.533  0.00  0.00    +0.242 C 
ATOM     22  C   UNL     1      -1.560  12.628   6.208  0.00  0.00    +0.132 C 
BRANCH  12  16
ATOM     16  C   UNL     1      -3.371  10.454   6.977  0.00  0.00    +0.181 C 
BRANCH  16   3
ATOM      3  O   UNL     1      -2.494   9.650   7.739  0.00  0.00    -0.393 OA
ATOM     26  H   UNL     1      -1.601  10.022   7.638  0.00  0.00    +0.209 HD
ENDBRANCH  16   3
ENDBRANCH  12  16
ENDBRANCH  15  13
BRANCH  19   6
ATOM      2  O   UNL     1      -8.330   6.087   6.413  0.00  0.00    -0.275 OA
ATOM      6  N   UNL     1      -7.324   6.049   4.281  0.00  0.00    -0.285 N 
ATOM     14  C   UNL     1      -8.303   5.744   5.236  0.00  0.00    +0.220 C 
ATOM     25  H   UNL     1      -7.467   5.686   3.341  0.00  0.00    +0.155 HD
BRANCH  14   7
ATOM      7  C   UNL     1      -9.399   4.903   4.656  0.00  0.00    +0.075 C 
ATOM      8  C   UNL     1      -9.124   4.618   3.176  0.00  0.00    +0.013 C 
ATOM      9  C   UNL     1     -10.735   5.646   4.707  0.00  0.00    +0.013 C 
ATOM     10  C   UNL     1     -10.352   5.114   2.420  0.00  0.00    +0.001 C 
ATOM     11  C   UNL     1     -10.915   6.212   3.306  0.00  0.00    +0.001 C 
ENDBRANCH  14   7
ENDBRANCH  19   6
TORSDOF 5
ENDMDL
MODEL 6
REMARK VINA RESULT:      -6.3     27.988     31.360
REMARK  Name = 71693650
REMARK  6 active torsions:
REMARK  status: ('A' for Active; 'I' for Inactive)
REMARK    1  A    between atoms: O_3  and  C_16
REMARK    2  A    between atoms: N_5  and  C_22
REMARK    3  A    between atoms: N_6  and  C_19
REMARK    4  A    between atoms: C_7  and  C_14
REMARK    5  A    between atoms: C_12  and  C_16
REMARK    6  A    between atoms: C_13  and  C_15
REMARK                            x       y       z     vdW  Elec       q    Type
REMARK                         _______ _______ _______ _____ _____    ______ ____
ROOT
ATOM     15  C   UNL     1     -14.744   6.037  21.539  0.00  0.00    -0.017 A 
ATOM     19  C   UNL     1     -12.696   7.248  20.083  0.00  0.00    +0.033 A 
ATOM     20  C   UNL     1     -15.052   6.898  20.485  0.00  0.00    +0.008 A 
ATOM     21  C   UNL     1     -13.412   5.782  21.864  0.00  0.00    +0.008 A 
ATOM     23  C   UNL     1     -14.028   7.503  19.757  0.00  0.00    +0.023 A 
ATOM     24  C   UNL     1     -12.387   6.387  21.136  0.00  0.00    +0.023 A 
ENDROOT
BRANCH  15  13
ATOM      1  O   UNL     1     -15.481   4.016  22.525  0.00  0.00    -0.361 OA
ATOM      4  O   UNL     1     -17.830   3.040  25.019  0.00  0.00    -0.273 OA
ATOM      5  N   UNL     1     -17.021   5.169  24.525  0.00  0.00    -0.295 N 
ATOM     12  C   UNL     1     -16.107   6.008  23.713  0.00  0.00    +0.134 C 
ATOM     13  C   UNL     1     -15.857   5.380  22.328  0.00  0.00    +0.171 C 
ATOM     17  C   UNL     1     -16.563   3.266  23.022  0.00  0.00    +0.256 C 
ATOM     18  C   UNL     1     -17.183   3.802  24.297  0.00  0.00    +0.242 C 
ATOM     22  C   UNL     1     -17.581   5.746  25.745  0.00  0.00    +0.132 C 
BRANCH  12  16
ATOM     16  C   UNL     1     -16.605   7.453  23.570  0.00  0.00    +0.181 C 
BRANCH  16   3
ATOM      3  O   UNL     1     -15.625   8.314  24.113  0.00  0.00    -0.393 OA
ATOM     26  H   UNL     1     -15.343   7.931  24.960  0.00  0.00    +0.209 HD
ENDBRANCH  16   3
ENDBRANCH  12  16
ENDBRANCH  15  13
BRANCH  19   6
ATOM      2  O   UNL     1     -11.650  10.071  20.153  0.00  0.00    -0.275 OA
ATOM      6  N   UNL     1     -11.670   7.853  19.354  0.00  0.00    -0.285 N 
ATOM     14  C   UNL     1     -11.224   9.179  19.427  0.00  0.00    +0.220 C 
ATOM     25  H   UNL     1     -11.192   7.241  18.696  0.00  0.00    +0.155 HD
BRANCH  14   7
ATOM      7  C   UNL     1     -10.096   9.438  18.476  0.00  0.00    +0.075 C 
ATOM      8  C   UNL     1     -10.089  10.910  18.048  0.00  0.00    +0.013 C 
ATOM      9  C   UNL     1     -10.272   8.622  17.194  0.00  0.00    +0.013 C 
ATOM     10  C   UNL     1     -10.159  10.902  16.525  0.00  0.00    +0.001 C 
ATOM     11  C   UNL     1     -10.867   9.601  16.193  0.00  0.00    +0.001 C 
ENDBRANCH  14   7
ENDBRANCH  19   6
TORSDOF 5
ENDMDL
MODEL 7
REMARK VINA RESULT:      -6.2     27.958     30.876
REMARK  Name = 71693650
REMARK  6 active torsions:
REMARK  status: ('A' for Active; 'I' for Inactive)
REMARK    1  A    between atoms: O_3  and  C_16
REMARK    2  A    between atoms: N_5  and  C_22
REMARK    3  A    between atoms: N_6  and  C_19
REMARK    4  A    between atoms: C_7  and  C_14
REMARK    5  A    between atoms: C_12  and  C_16
REMARK    6  A    between atoms: C_13  and  C_15
REMARK                            x       y       z     vdW  Elec       q    Type
REMARK                         _______ _______ _______ _____ _____    ______ ____
ROOT
ATOM     15  C   UNL     1     -12.508   7.979  18.484  0.00  0.00    -0.017 A 
ATOM     19  C   UNL     1     -13.593   7.095  20.897  0.00  0.00    +0.033 A 
ATOM     20  C   UNL     1     -13.872   8.134  18.734  0.00  0.00    +0.008 A 
ATOM     21  C   UNL     1     -11.688   7.382  19.440  0.00  0.00    +0.008 A 
ATOM     23  C   UNL     1     -14.414   7.692  19.941  0.00  0.00    +0.023 A 
ATOM     24  C   UNL     1     -12.229   6.940  20.647  0.00  0.00    +0.023 A 
ENDROOT
BRANCH  15  13
ATOM      1  O   UNL     1     -12.915   8.254  16.169  0.00  0.00    -0.361 OA
ATOM      4  O   UNL     1     -11.559  10.182  13.498  0.00  0.00    -0.273 OA
ATOM      5  N   UNL     1     -11.211  10.412  15.791  0.00  0.00    -0.295 N 
ATOM     12  C   UNL     1     -11.537   9.953  17.163  0.00  0.00    +0.134 C 
ATOM     13  C   UNL     1     -11.921   8.460  17.174  0.00  0.00    +0.171 C 
ATOM     17  C   UNL     1     -12.370   8.432  14.883  0.00  0.00    +0.256 C 
ATOM     18  C   UNL     1     -11.695   9.769  14.651  0.00  0.00    +0.242 C 
ATOM     22  C   UNL     1     -10.565  11.714  15.638  0.00  0.00    +0.132 C 
BRANCH  12  16
ATOM     16  C   UNL     1     -10.403  10.227  18.160  0.00  0.00    +0.181 C 
BRANCH  16   3
ATOM      3  O   UNL     1      -9.299   9.417  17.807  0.00  0.00    -0.393 OA
ATOM     26  H   UNL     1      -9.231   8.715  18.475  0.00  0.00    +0.209 HD
ENDBRANCH  16   3
ENDBRANCH  12  16
ENDBRANCH  15  13
BRANCH  19   6
ATOM      2  O   UNL     1     -14.549   4.363  21.727  0.00  0.00    -0.275 OA
ATOM      6  N   UNL     1     -14.135   6.652  22.105  0.00  0.00    -0.285 N 
ATOM     14  C   UNL     1     -14.567   5.362  22.438  0.00  0.00    +0.220 C 
ATOM     25  H   UNL     1     -14.214   7.366  22.827  0.00  0.00    +0.155 HD
BRANCH  14   7
ATOM      7  C   UNL     1     -15.088   5.296  23.841  0.00  0.00    +0.075 C 
ATOM      8  C   UNL     1     -15.271   3.836  24.271  0.00  0.00    +0.013 C 
ATOM      9  C   UNL     1     -16.470   5.945  23.935  0.00  0.00    +0.013 C 
ATOM     10  C   UNL     1     -16.730   3.707  24.698  0.00  0.00    +0.001 C 
ATOM     11  C   UNL     1     -17.447   4.779  23.897  0.00  0.00    +0.001 C 
ENDBRANCH  14   7
ENDBRANCH  19   6
TORSDOF 5
ENDMDL
MODEL 8
REMARK VINA RESULT:      -6.2     30.584     32.978
REMARK  Name = 71693650
REMARK  6 active torsions:
REMARK  status: ('A' for Active; 'I' for Inactive)
REMARK    1  A    between atoms: O_3  and  C_16
REMARK    2  A    between atoms: N_5  and  C_22
REMARK    3  A    between atoms: N_6  and  C_19
REMARK    4  A    between atoms: C_7  and  C_14
REMARK    5  A    between atoms: C_12  and  C_16
REMARK    6  A    between atoms: C_13  and  C_15
REMARK                            x       y       z     vdW  Elec       q    Type
REMARK                         _______ _______ _______ _____ _____    ______ ____
ROOT
ATOM     15  C   UNL     1     -10.436  -8.357  16.331  0.00  0.00    -0.017 A 
ATOM     19  C   UNL     1     -11.505  -6.217  14.895  0.00  0.00    +0.033 A 
ATOM     20  C   UNL     1     -10.794  -8.524  14.993  0.00  0.00    +0.008 A 
ATOM     21  C   UNL     1     -10.612  -7.121  16.950  0.00  0.00    +0.008 A 
ATOM     23  C   UNL     1     -11.328  -7.454  14.275  0.00  0.00    +0.023 A 
ATOM     24  C   UNL     1     -11.146  -6.050  16.233  0.00  0.00    +0.023 A 
ENDROOT
BRANCH  15  13
ATOM      1  O   UNL     1      -8.550  -9.127  17.535  0.00  0.00    -0.361 OA
ATOM      4  O   UNL     1      -7.850 -11.667  19.933  0.00  0.00    -0.273 OA
ATOM      5  N   UNL     1      -9.917 -10.874  19.204  0.00  0.00    -0.295 N 
ATOM     12  C   UNL     1     -10.666  -9.912  18.360  0.00  0.00    +0.134 C 
ATOM     13  C   UNL     1      -9.855  -9.520  17.108  0.00  0.00    +0.171 C 
ATOM     17  C   UNL     1      -7.837 -10.229  18.042  0.00  0.00    +0.256 C 
ATOM     18  C   UNL     1      -8.525 -10.977  19.166  0.00  0.00    +0.242 C 
ATOM     22  C   UNL     1     -10.640 -11.558  20.273  0.00  0.00    +0.132 C 
BRANCH  12  16
ATOM     16  C   UNL     1     -12.054 -10.434  17.963  0.00  0.00    +0.181 C 
BRANCH  16   3
ATOM      3  O   UNL     1     -13.024  -9.545  18.478  0.00  0.00    -0.393 OA
ATOM     26  H   UNL     1     -12.552  -8.758  18.799  0.00  0.00    +0.209 HD
ENDBRANCH  16   3
ENDBRANCH  12  16
ENDBRANCH  15  13
BRANCH  19   6
ATOM      2  O   UNL     1     -14.303  -5.738  13.892  0.00  0.00    -0.275 OA
ATOM      6  N   UNL     1     -12.039  -5.146  14.178  0.00  0.00    -0.285 N 
ATOM     14  C   UNL     1     -13.356  -4.975  13.733  0.00  0.00    +0.220 C 
ATOM     25  H   UNL     1     -11.378  -4.401  13.963  0.00  0.00    +0.155 HD
BRANCH  14   7
ATOM      7  C   UNL     1     -13.528  -3.683  12.994  0.00  0.00    +0.075 C 
ATOM      8  C   UNL     1     -14.729  -3.769  12.045  0.00  0.00    +0.013 C 
ATOM      9  C   UNL     1     -12.309  -3.397  12.115  0.00  0.00    +0.013 C 
ATOM     10  C   UNL     1     -14.191  -3.432  10.659  0.00  0.00    +0.001 C 
ATOM     11  C   UNL     1     -12.728  -3.838  10.720  0.00  0.00    +0.001 C 
ENDBRANCH  14   7
ENDBRANCH  19   6
TORSDOF 5
ENDMDL
MODEL 9
REMARK VINA RESULT:      -6.1     17.104     20.408
REMARK  Name = 71693650
REMARK  6 active torsions:
REMARK  status: ('A' for Active; 'I' for Inactive)
REMARK    1  A    between atoms: O_3  and  C_16
REMARK    2  A    between atoms: N_5  and  C_22
REMARK    3  A    between atoms: N_6  and  C_19
REMARK    4  A    between atoms: C_7  and  C_14
REMARK    5  A    between atoms: C_12  and  C_16
REMARK    6  A    between atoms: C_13  and  C_15
REMARK                            x       y       z     vdW  Elec       q    Type
REMARK                         _______ _______ _______ _____ _____    ______ ____
ROOT
ATOM     15  C   UNL     1      10.553   5.525   2.809  0.00  0.00    -0.017 A 
ATOM     19  C   UNL     1      10.876   4.133   0.414  0.00  0.00    +0.033 A 
ATOM     20  C   UNL     1      11.201   4.290   2.803  0.00  0.00    +0.008 A 
ATOM     21  C   UNL     1      10.066   6.063   1.619  0.00  0.00    +0.008 A 
ATOM     23  C   UNL     1      11.363   3.594   1.605  0.00  0.00    +0.023 A 
ATOM     24  C   UNL     1      10.228   5.368   0.420  0.00  0.00    +0.023 A 
ENDROOT
BRANCH  15  13
ATOM      1  O   UNL     1       9.504   5.504   4.931  0.00  0.00    -0.361 OA
ATOM      4  O   UNL     1       9.967   7.102   8.081  0.00  0.00    -0.273 OA
ATOM      5  N   UNL     1      11.416   7.017   6.257  0.00  0.00    -0.295 N 
ATOM     12  C   UNL     1      11.688   6.504   4.892  0.00  0.00    +0.134 C 
ATOM     13  C   UNL     1      10.379   6.280   4.110  0.00  0.00    +0.171 C 
ATOM     17  C   UNL     1       9.081   6.245   6.051  0.00  0.00    +0.256 C 
ATOM     18  C   UNL     1      10.198   6.808   6.906  0.00  0.00    +0.242 C 
ATOM     22  C   UNL     1      12.539   7.542   7.030  0.00  0.00    +0.132 C 
BRANCH  12  16
ATOM     16  C   UNL     1      12.641   7.412   4.102  0.00  0.00    +0.181 C 
BRANCH  16   3
ATOM      3  O   UNL     1      13.808   6.674   3.804  0.00  0.00    -0.393 OA
ATOM     26  H   UNL     1      14.526   7.315   3.664  0.00  0.00    +0.209 HD
ENDBRANCH  16   3
ENDBRANCH  12  16
ENDBRANCH  15  13
BRANCH  19   6
ATOM      2  O   UNL     1      13.350   3.597  -1.217  0.00  0.00    -0.275 OA
ATOM      6  N   UNL     1      11.038   3.437  -0.785  0.00  0.00    -0.285 N 
ATOM     14  C   UNL     1      12.220   3.218  -1.505  0.00  0.00    +0.220 C 
ATOM     25  H   UNL     1      10.183   3.039  -1.169  0.00  0.00    +0.155 HD
BRANCH  14   7
ATOM      7  C   UNL     1      11.972   2.420  -2.749  0.00  0.00    +0.075 C 
ATOM      8  C   UNL     1      12.733   3.030  -3.931  0.00  0.00    +0.013 C 
ATOM      9  C   UNL     1      10.491   2.459  -3.129  0.00  0.00    +0.013 C 
ATOM     10  C   UNL     1      11.685   3.311  -5.002  0.00  0.00    +0.001 C 
ATOM     11  C   UNL     1      10.400   3.517  -4.219  0.00  0.00    +0.001 C 
ENDBRANCH  14   7
ENDBRANCH  19   6
TORSDOF 5
ENDMDL
MODEL 10
REMARK VINA RESULT:      -6.0     27.933     31.857
REMARK  Name = 71693650
REMARK  6 active torsions:
REMARK  status: ('A' for Active; 'I' for Inactive)
REMARK    1  A    between atoms: O_3  and  C_16
REMARK    2  A    between atoms: N_5  and  C_22
REMARK    3  A    between atoms: N_6  and  C_19
REMARK    4  A    between atoms: C_7  and  C_14
REMARK    5  A    between atoms: C_12  and  C_16
REMARK    6  A    between atoms: C_13  and  C_15
REMARK                            x       y       z     vdW  Elec       q    Type
REMARK                         _______ _______ _______ _____ _____    ______ ____
ROOT
ATOM     15  C   UNL     1     -15.400   5.595  21.975  0.00  0.00    -0.017 A 
ATOM     19  C   UNL     1     -13.316   7.247  21.133  0.00  0.00    +0.033 A 
ATOM     20  C   UNL     1     -14.088   5.122  21.985  0.00  0.00    +0.008 A 
ATOM     21  C   UNL     1     -15.670   6.893  21.543  0.00  0.00    +0.008 A 
ATOM     23  C   UNL     1     -13.046   5.948  21.565  0.00  0.00    +0.023 A 
ATOM     24  C   UNL     1     -14.628   7.720  21.123  0.00  0.00    +0.023 A 
ENDROOT
BRANCH  15  13
ATOM      1  O   UNL     1     -17.036   4.036  21.272  0.00  0.00    -0.361 OA
ATOM      4  O   UNL     1     -19.034   1.499  22.779  0.00  0.00    -0.273 OA
ATOM      5  N   UNL     1     -17.194   2.628  23.659  0.00  0.00    -0.295 N 
ATOM     12  C   UNL     1     -16.110   3.619  23.450  0.00  0.00    +0.134 C 
ATOM     13  C   UNL     1     -16.531   4.698  22.433  0.00  0.00    +0.171 C 
ATOM     17  C   UNL     1     -18.248   3.380  21.558  0.00  0.00    +0.256 C 
ATOM     18  C   UNL     1     -18.189   2.395  22.709  0.00  0.00    +0.242 C 
ATOM     22  C   UNL     1     -17.072   1.705  24.785  0.00  0.00    +0.132 C 
BRANCH  12  16
ATOM     16  C   UNL     1     -15.643   4.265  24.761  0.00  0.00    +0.181 C 
BRANCH  16   3
ATOM      3  O   UNL     1     -16.586   5.251  25.128  0.00  0.00    -0.393 OA
ATOM     26  H   UNL     1     -17.446   4.808  25.219  0.00  0.00    +0.209 HD
ENDBRANCH  16   3
ENDBRANCH  12  16
ENDBRANCH  15  13
BRANCH  19   6
ATOM      2  O   UNL     1     -11.504   7.042  18.737  0.00  0.00    -0.275 OA
ATOM      6  N   UNL     1     -12.273   8.074  20.712  0.00  0.00    -0.285 N 
ATOM     14  C   UNL     1     -11.457   7.929  19.583  0.00  0.00    +0.220 C 
ATOM     25  H   UNL     1     -12.100   8.882  21.307  0.00  0.00    +0.155 HD
BRANCH  14   7
ATOM      7  C   UNL     1     -10.449   9.032  19.482  0.00  0.00    +0.075 C 
ATOM      8  C   UNL     1     -11.078  10.367  19.896  0.00  0.00    +0.013 C 
ATOM      9  C   UNL     1      -9.984   9.209  18.036  0.00  0.00    +0.013 C 
ATOM     10  C   UNL     1     -10.871  11.310  18.715  0.00  0.00    +0.001 C 
ATOM     11  C   UNL     1     -10.794  10.386  17.512  0.00  0.00    +0.001 C 
ENDBRANCH  14   7
ENDBRANCH  19   6
TORSDOF 5
ENDMDL
