MODEL 1
REMARK VINA RESULT:      -7.1      0.000      0.000
REMARK  Name = 45361601
REMARK  10 active torsions:
REMARK  status: ('A' for Active; 'I' for Inactive)
REMARK    1  A    between atoms: O_1  and  C_10
REMARK    2  A    between atoms: N_4  and  C_14
REMARK    3  A    between atoms: N_5  and  C_24
REMARK    4  A    between atoms: C_7  and  C_17
REMARK    5  A    between atoms: C_9  and  C_19
REMARK    6  A    between atoms: C_13  and  C_18
REMARK    7  A    between atoms: C_18  and  C_20
REMARK    8  A    between atoms: C_18  and  C_21
REMARK    9  A    between atoms: C_22  and  C_23
REMARK   10  A    between atoms: C_24  and  C_26
REMARK                            x       y       z     vdW  Elec       q    Type
REMARK                         _______ _______ _______ _____ _____    ______ ____
ROOT
ATOM      7  C   UNL     1     -14.992   7.543  20.543  0.00  0.00    -0.027 C 
ATOM      8  C   UNL     1     -13.761   6.626  20.851  0.00  0.00    +0.028 C 
ATOM      9  C   UNL     1     -13.950   5.878  22.219  0.00  0.00    +0.012 C 
ATOM     10  C   UNL     1     -12.424   7.407  20.694  0.00  0.00    +0.122 C 
ATOM     11  C   UNL     1     -14.827   8.175  19.141  0.00  0.00    +0.007 C 
ATOM     12  C   UNL     1     -16.273   6.677  20.520  0.00  0.00    +0.009 C 
ATOM     13  C   UNL     1     -12.311   8.123  19.329  0.00  0.00    +0.029 C 
ATOM     14  C   UNL     1     -15.278   5.070  22.213  0.00  0.00    +0.076 C 
ATOM     15  C   UNL     1     -13.537   8.973  18.997  0.00  0.00    +0.007 C 
ATOM     16  C   UNL     1     -16.495   5.905  21.813  0.00  0.00    +0.023 C 
ATOM     17  C   UNL     1     -15.163   8.678  21.584  0.00  0.00    +0.011 C 
ATOM     19  C   UNL     1     -12.787   4.936  22.571  0.00  0.00    +0.010 C 
ENDROOT
BRANCH  14   4
ATOM      3  O   UNL     1     -16.457   2.495  22.681  0.00  0.00    -0.269 OA
ATOM      4  N   UNL     1     -15.543   4.462  23.499  0.00  0.00    -0.307 N 
ATOM     22  C   UNL     1     -16.117   3.208  23.621  0.00  0.00    +0.263 C 
ATOM     35  H   UNL     1     -15.349   5.002  24.338  0.00  0.00    +0.149 HD
BRANCH  22  23
ATOM      6  N   UNL     1     -16.576   1.410  25.149  0.00  0.00    -0.250 NA
ATOM     23  C   UNL     1     -16.347   2.735  25.011  0.00  0.00    +0.125 A 
ATOM     25  C   UNL     1     -16.316   3.631  26.068  0.00  0.00    +0.033 A 
ATOM     27  C   UNL     1     -16.536   3.136  27.348  0.00  0.00    +0.004 A 
ATOM     28  C   UNL     1     -16.785   0.965  26.408  0.00  0.00    +0.111 A 
ATOM     31  C   UNL     1     -16.775   1.778  27.530  0.00  0.00    +0.020 A 
ENDBRANCH  22  23
ENDBRANCH  14   4
BRANCH  10   1
ATOM      1  O   UNL     1     -11.328   6.493  20.769  0.00  0.00    -0.391 OA
ATOM     36  H   UNL     1     -11.475   5.790  20.114  0.00  0.00    +0.210 HD
ENDBRANCH  10   1
BRANCH  13  18
ATOM     18  C   UNL     1     -11.048   8.991  19.245  0.00  0.00    +0.077 C 
ATOM     20  C   UNL     1     -11.271  10.313  19.972  0.00  0.00    +0.017 C 
BRANCH  18  21
ATOM      2  O   UNL     1     -10.251  10.293  17.366  0.00  0.00    -0.276 OA
ATOM      5  N   UNL     1     -10.852   8.081  17.007  0.00  0.00    -0.311 N 
ATOM     21  C   UNL     1     -10.669   9.216  17.785  0.00  0.00    +0.216 C 
ATOM     37  H   UNL     1     -11.152   7.215  17.439  0.00  0.00    +0.149 HD
BRANCH   5  24
ATOM     24  C   UNL     1     -10.562   8.050  15.592  0.00  0.00    +0.139 C 
BRANCH  24  26
ATOM     26  C   UNL     1     -11.772   8.373  14.764  0.00  0.00    -0.030 A 
ATOM     29  C   UNL     1     -13.046   8.291  15.327  0.00  0.00    +0.005 A 
ATOM     30  C   UNL     1     -11.623   8.757  13.431  0.00  0.00    +0.005 A 
ATOM     32  C   UNL     1     -14.170   8.592  14.558  0.00  0.00    +0.000 A 
ATOM     33  C   UNL     1     -12.746   9.057  12.661  0.00  0.00    +0.000 A 
ATOM     34  C   UNL     1     -14.020   8.974  13.224  0.00  0.00    +0.000 A 
ENDBRANCH  24  26
ENDBRANCH   5  24
ENDBRANCH  18  21
ENDBRANCH  13  18
TORSDOF 7
ENDMDL
MODEL 2
REMARK VINA RESULT:      -7.1     18.150     19.487
REMARK  Name = 45361601
REMARK  10 active torsions:
REMARK  status: ('A' for Active; 'I' for Inactive)
REMARK    1  A    between atoms: O_1  and  C_10
REMARK    2  A    between atoms: N_4  and  C_14
REMARK    3  A    between atoms: N_5  and  C_24
REMARK    4  A    between atoms: C_7  and  C_17
REMARK    5  A    between atoms: C_9  and  C_19
REMARK    6  A    between atoms: C_13  and  C_18
REMARK    7  A    between atoms: C_18  and  C_20
REMARK    8  A    between atoms: C_18  and  C_21
REMARK    9  A    between atoms: C_22  and  C_23
REMARK   10  A    between atoms: C_24  and  C_26
REMARK                            x       y       z     vdW  Elec       q    Type
REMARK                         _______ _______ _______ _____ _____    ______ ____
ROOT
ATOM      7  C   UNL     1      -4.693 -11.091  16.887  0.00  0.00    -0.027 C 
ATOM      8  C   UNL     1      -5.464 -10.435  15.692  0.00  0.00    +0.028 C 
ATOM      9  C   UNL     1      -7.016 -10.515  15.918  0.00  0.00    +0.012 C 
ATOM     10  C   UNL     1      -4.958 -10.983  14.327  0.00  0.00    +0.122 C 
ATOM     11  C   UNL     1      -3.172 -10.895  16.688  0.00  0.00    +0.007 C 
ATOM     12  C   UNL     1      -5.092 -10.375  18.198  0.00  0.00    +0.009 C 
ATOM     13  C   UNL     1      -3.423 -10.880  14.177  0.00  0.00    +0.029 C 
ATOM     14  C   UNL     1      -7.398  -9.859  17.275  0.00  0.00    +0.076 C 
ATOM     15  C   UNL     1      -2.666 -11.465  15.369  0.00  0.00    +0.007 C 
ATOM     16  C   UNL     1      -6.592 -10.396  18.457  0.00  0.00    +0.023 C 
ATOM     17  C   UNL     1      -4.987 -12.606  17.023  0.00  0.00    +0.011 C 
ATOM     19  C   UNL     1      -7.837  -9.862  14.793  0.00  0.00    +0.010 C 
ENDROOT
BRANCH  14   4
ATOM      3  O   UNL     1      -9.384  -7.785  17.320  0.00  0.00    -0.269 OA
ATOM      4  N   UNL     1      -8.806 -10.016  17.571  0.00  0.00    -0.307 N 
ATOM     22  C   UNL     1      -9.688  -8.949  17.567  0.00  0.00    +0.263 C 
ATOM     35  H   UNL     1      -9.142 -10.936  17.845  0.00  0.00    +0.149 HD
BRANCH  22  23
ATOM      6  N   UNL     1     -12.014  -8.995  16.965  0.00  0.00    -0.250 NA
ATOM     23  C   UNL     1     -11.095  -9.273  17.917  0.00  0.00    +0.125 A 
ATOM     25  C   UNL     1     -11.399  -9.826  19.150  0.00  0.00    +0.033 A 
ATOM     27  C   UNL     1     -12.732 -10.110  19.426  0.00  0.00    +0.004 A 
ATOM     28  C   UNL     1     -13.299  -9.285  17.268  0.00  0.00    +0.111 A 
ATOM     31  C   UNL     1     -13.706  -9.839  18.472  0.00  0.00    +0.020 A 
ENDBRANCH  22  23
ENDBRANCH  14   4
BRANCH  10   1
ATOM      1  O   UNL     1      -5.525 -10.212  13.265  0.00  0.00    -0.391 OA
ATOM     36  H   UNL     1      -6.467 -10.442  13.194  0.00  0.00    +0.210 HD
ENDBRANCH  10   1
BRANCH  13  18
ATOM     18  C   UNL     1      -2.932 -11.541  12.883  0.00  0.00    +0.077 C 
ATOM     20  C   UNL     1      -1.749 -12.457  13.179  0.00  0.00    +0.017 C 
BRANCH  18  21
ATOM      2  O   UNL     1      -1.453  -9.949  11.814  0.00  0.00    -0.276 OA
ATOM      5  N   UNL     1      -3.617 -10.168  11.008  0.00  0.00    -0.311 N 
ATOM     21  C   UNL     1      -2.564 -10.472  11.859  0.00  0.00    +0.216 C 
ATOM     37  H   UNL     1      -4.488 -10.681  11.077  0.00  0.00    +0.149 HD
BRANCH   5  24
ATOM     24  C   UNL     1      -3.510  -9.184   9.956  0.00  0.00    +0.139 C 
BRANCH  24  26
ATOM     26  C   UNL     1      -4.777  -9.076   9.157  0.00  0.00    -0.030 A 
ATOM     29  C   UNL     1      -5.822  -8.271   9.611  0.00  0.00    +0.005 A 
ATOM     30  C   UNL     1      -4.910  -9.781   7.961  0.00  0.00    +0.005 A 
ATOM     32  C   UNL     1      -6.999  -8.170   8.869  0.00  0.00    +0.000 A 
ATOM     33  C   UNL     1      -6.086  -9.682   7.219  0.00  0.00    +0.000 A 
ATOM     34  C   UNL     1      -7.131  -8.876   7.673  0.00  0.00    +0.000 A 
ENDBRANCH  24  26
ENDBRANCH   5  24
ENDBRANCH  18  21
ENDBRANCH  13  18
TORSDOF 7
ENDMDL
MODEL 3
REMARK VINA RESULT:      -6.9     25.431     30.181
REMARK  Name = 45361601
REMARK  10 active torsions:
REMARK  status: ('A' for Active; 'I' for Inactive)
REMARK    1  A    between atoms: O_1  and  C_10
REMARK    2  A    between atoms: N_4  and  C_14
REMARK    3  A    between atoms: N_5  and  C_24
REMARK    4  A    between atoms: C_7  and  C_17
REMARK    5  A    between atoms: C_9  and  C_19
REMARK    6  A    between atoms: C_13  and  C_18
REMARK    7  A    between atoms: C_18  and  C_20
REMARK    8  A    between atoms: C_18  and  C_21
REMARK    9  A    between atoms: C_22  and  C_23
REMARK   10  A    between atoms: C_24  and  C_26
REMARK                            x       y       z     vdW  Elec       q    Type
REMARK                         _______ _______ _______ _____ _____    ______ ____
ROOT
ATOM      7  C   UNL     1       9.416   6.108   6.161  0.00  0.00    -0.027 C 
ATOM      8  C   UNL     1      10.429   7.206   5.692  0.00  0.00    +0.028 C 
ATOM      9  C   UNL     1       9.942   8.636   6.121  0.00  0.00    +0.012 C 
ATOM     10  C   UNL     1      10.778   7.043   4.184  0.00  0.00    +0.122 C 
ATOM     11  C   UNL     1       9.979   4.708   5.823  0.00  0.00    +0.007 C 
ATOM     12  C   UNL     1       9.256   6.193   7.696  0.00  0.00    +0.009 C 
ATOM     13  C   UNL     1      11.242   5.610   3.833  0.00  0.00    +0.029 C 
ATOM     14  C   UNL     1       9.712   8.688   7.658  0.00  0.00    +0.076 C 
ATOM     15  C   UNL     1      10.285   4.532   4.341  0.00  0.00    +0.007 C 
ATOM     16  C   UNL     1       8.811   7.568   8.176  0.00  0.00    +0.023 C 
ATOM     17  C   UNL     1       8.025   6.260   5.494  0.00  0.00    +0.011 C 
ATOM     19  C   UNL     1      10.908   9.762   5.716  0.00  0.00    +0.010 C 
ENDROOT
BRANCH  14   4
ATOM      3  O   UNL     1      10.979  10.659   9.317  0.00  0.00    -0.269 OA
ATOM      4  N   UNL     1       9.153   9.956   8.075  0.00  0.00    -0.307 N 
ATOM     22  C   UNL     1       9.846  10.844   8.879  0.00  0.00    +0.263 C 
ATOM     35  H   UNL     1       8.195  10.172   7.810  0.00  0.00    +0.149 HD
BRANCH  22  23
ATOM      6  N   UNL     1       8.406  12.042  10.384  0.00  0.00    -0.250 NA
ATOM     23  C   UNL     1       9.123  12.090   9.239  0.00  0.00    +0.125 A 
ATOM     25  C   UNL     1       9.208  13.208   8.425  0.00  0.00    +0.033 A 
ATOM     27  C   UNL     1       8.512  14.348   8.809  0.00  0.00    +0.004 A 
ATOM     28  C   UNL     1       7.742  13.169  10.726  0.00  0.00    +0.111 A 
ATOM     31  C   UNL     1       7.763  14.337   9.981  0.00  0.00    +0.020 A 
ENDBRANCH  22  23
ENDBRANCH  14   4
BRANCH  10   1
ATOM      1  O   UNL     1      11.858   7.916   3.849  0.00  0.00    -0.391 OA
ATOM     36  H   UNL     1      12.358   7.512   3.119  0.00  0.00    +0.210 HD
ENDBRANCH  10   1
BRANCH  13  18
ATOM     18  C   UNL     1      11.456   5.435   2.324  0.00  0.00    +0.077 C 
ATOM     20  C   UNL     1      10.638   4.254   1.812  0.00  0.00    +0.017 C 
BRANCH  18  21
ATOM      2  O   UNL     1      13.758   6.164   2.149  0.00  0.00    -0.276 OA
ATOM      5  N   UNL     1      13.246   3.965   1.612  0.00  0.00    -0.311 N 
ATOM     21  C   UNL     1      12.941   5.254   2.027  0.00  0.00    +0.216 C 
ATOM     37  H   UNL     1      12.521   3.256   1.588  0.00  0.00    +0.149 HD
BRANCH   5  24
ATOM     24  C   UNL     1      14.588   3.552   1.273  0.00  0.00    +0.139 C 
BRANCH  24  26
ATOM     26  C   UNL     1      14.974   3.981  -0.113  0.00  0.00    -0.030 A 
ATOM     29  C   UNL     1      14.013   4.022  -1.124  0.00  0.00    +0.005 A 
ATOM     30  C   UNL     1      16.293   4.338  -0.391  0.00  0.00    +0.005 A 
ATOM     32  C   UNL     1      14.371   4.420  -2.412  0.00  0.00    +0.000 A 
ATOM     33  C   UNL     1      16.652   4.736  -1.678  0.00  0.00    +0.000 A 
ATOM     34  C   UNL     1      15.691   4.777  -2.689  0.00  0.00    +0.000 A 
ENDBRANCH  24  26
ENDBRANCH   5  24
ENDBRANCH  18  21
ENDBRANCH  13  18
TORSDOF 7
ENDMDL
MODEL 4
REMARK VINA RESULT:      -6.9      3.838      5.422
REMARK  Name = 45361601
REMARK  10 active torsions:
REMARK  status: ('A' for Active; 'I' for Inactive)
REMARK    1  A    between atoms: O_1  and  C_10
REMARK    2  A    between atoms: N_4  and  C_14
REMARK    3  A    between atoms: N_5  and  C_24
REMARK    4  A    between atoms: C_7  and  C_17
REMARK    5  A    between atoms: C_9  and  C_19
REMARK    6  A    between atoms: C_13  and  C_18
REMARK    7  A    between atoms: C_18  and  C_20
REMARK    8  A    between atoms: C_18  and  C_21
REMARK    9  A    between atoms: C_22  and  C_23
REMARK   10  A    between atoms: C_24  and  C_26
REMARK                            x       y       z     vdW  Elec       q    Type
REMARK                         _______ _______ _______ _____ _____    ______ ____
ROOT
ATOM      7  C   UNL     1     -11.510   8.013  19.685  0.00  0.00    -0.027 C 
ATOM      8  C   UNL     1     -12.808   8.834  19.383  0.00  0.00    +0.028 C 
ATOM      9  C   UNL     1     -14.061   7.890  19.308  0.00  0.00    +0.012 C 
ATOM     10  C   UNL     1     -12.607   9.776  18.161  0.00  0.00    +0.122 C 
ATOM     11  C   UNL     1     -10.318   8.982  19.865  0.00  0.00    +0.007 C 
ATOM     12  C   UNL     1     -11.696   7.246  21.015  0.00  0.00    +0.009 C 
ATOM     13  C   UNL     1     -11.353  10.670  18.299  0.00  0.00    +0.029 C 
ATOM     14  C   UNL     1     -14.196   7.068  20.621  0.00  0.00    +0.076 C 
ATOM     15  C   UNL     1     -10.094   9.879  18.654  0.00  0.00    +0.007 C 
ATOM     16  C   UNL     1     -12.914   6.333  21.012  0.00  0.00    +0.023 C 
ATOM     17  C   UNL     1     -11.169   7.005  18.559  0.00  0.00    +0.011 C 
ATOM     19  C   UNL     1     -15.379   8.636  19.041  0.00  0.00    +0.010 C 
ENDROOT
BRANCH  14   4
ATOM      3  O   UNL     1     -15.988   6.323  22.736  0.00  0.00    -0.269 OA
ATOM      4  N   UNL     1     -15.272   6.103  20.543  0.00  0.00    -0.307 N 
ATOM     22  C   UNL     1     -16.086   5.812  21.624  0.00  0.00    +0.263 C 
ATOM     35  H   UNL     1     -15.393   5.584  19.677  0.00  0.00    +0.149 HD
BRANCH  22  23
ATOM      6  N   UNL     1     -17.426   4.533  20.093  0.00  0.00    -0.250 NA
ATOM     23  C   UNL     1     -17.128   4.779  21.388  0.00  0.00    +0.125 A 
ATOM     25  C   UNL     1     -17.727   4.134  22.457  0.00  0.00    +0.033 A 
ATOM     27  C   UNL     1     -18.695   3.176  22.181  0.00  0.00    +0.004 A 
ATOM     28  C   UNL     1     -18.372   3.595  19.862  0.00  0.00    +0.111 A 
ATOM     31  C   UNL     1     -19.030   2.894  20.860  0.00  0.00    +0.020 A 
ENDBRANCH  22  23
ENDBRANCH  14   4
BRANCH  10   1
ATOM      1  O   UNL     1     -13.727  10.657  18.050  0.00  0.00    -0.391 OA
ATOM     36  H   UNL     1     -13.477  11.392  17.464  0.00  0.00    +0.210 HD
ENDBRANCH  10   1
BRANCH  13  18
ATOM     18  C   UNL     1     -11.100  11.496  17.032  0.00  0.00    +0.077 C 
ATOM     20  C   UNL     1     -10.614  10.591  15.905  0.00  0.00    +0.017 C 
BRANCH  18  21
ATOM      2  O   UNL     1     -10.355  13.558  18.059  0.00  0.00    -0.276 OA
ATOM      5  N   UNL     1      -8.884  12.412  16.679  0.00  0.00    -0.311 N 
ATOM     21  C   UNL     1     -10.096  12.606  17.327  0.00  0.00    +0.216 C 
ATOM     37  H   UNL     1      -8.732  11.572  16.132  0.00  0.00    +0.149 HD
BRANCH   5  24
ATOM     24  C   UNL     1      -7.777  13.331  16.803  0.00  0.00    +0.139 C 
BRANCH  24  26
ATOM     26  C   UNL     1      -7.151  13.639  15.474  0.00  0.00    -0.030 A 
ATOM     29  C   UNL     1      -7.953  14.006  14.393  0.00  0.00    +0.005 A 
ATOM     30  C   UNL     1      -5.767  13.559  15.319  0.00  0.00    +0.005 A 
ATOM     32  C   UNL     1      -7.371  14.293  13.158  0.00  0.00    +0.000 A 
ATOM     33  C   UNL     1      -5.185  13.844  14.085  0.00  0.00    +0.000 A 
ATOM     34  C   UNL     1      -5.987  14.212  13.004  0.00  0.00    +0.000 A 
ENDBRANCH  24  26
ENDBRANCH   5  24
ENDBRANCH  18  21
ENDBRANCH  13  18
TORSDOF 7
ENDMDL
MODEL 5
REMARK VINA RESULT:      -6.8      4.189      6.929
REMARK  Name = 45361601
REMARK  10 active torsions:
REMARK  status: ('A' for Active; 'I' for Inactive)
REMARK    1  A    between atoms: O_1  and  C_10
REMARK    2  A    between atoms: N_4  and  C_14
REMARK    3  A    between atoms: N_5  and  C_24
REMARK    4  A    between atoms: C_7  and  C_17
REMARK    5  A    between atoms: C_9  and  C_19
REMARK    6  A    between atoms: C_13  and  C_18
REMARK    7  A    between atoms: C_18  and  C_20
REMARK    8  A    between atoms: C_18  and  C_21
REMARK    9  A    between atoms: C_22  and  C_23
REMARK   10  A    between atoms: C_24  and  C_26
REMARK                            x       y       z     vdW  Elec       q    Type
REMARK                         _______ _______ _______ _____ _____    ______ ____
ROOT
ATOM      7  C   UNL     1     -13.201   7.542  21.173  0.00  0.00    -0.027 C 
ATOM      8  C   UNL     1     -14.195   7.969  22.305  0.00  0.00    +0.028 C 
ATOM      9  C   UNL     1     -15.353   6.918  22.456  0.00  0.00    +0.012 C 
ATOM     10  C   UNL     1     -14.652   9.445  22.126  0.00  0.00    +0.122 C 
ATOM     11  C   UNL     1     -12.016   8.534  21.127  0.00  0.00    +0.007 C 
ATOM     12  C   UNL     1     -12.630   6.144  21.504  0.00  0.00    +0.009 C 
ATOM     13  C   UNL     1     -13.462  10.421  21.975  0.00  0.00    +0.029 C 
ATOM     14  C   UNL     1     -14.766   5.502  22.715  0.00  0.00    +0.076 C 
ATOM     15  C   UNL     1     -12.457   9.977  20.912  0.00  0.00    +0.007 C 
ATOM     16  C   UNL     1     -13.710   5.087  21.690  0.00  0.00    +0.023 C 
ATOM     17  C   UNL     1     -13.872   7.501  19.777  0.00  0.00    +0.011 C 
ATOM     19  C   UNL     1     -16.353   7.261  23.573  0.00  0.00    +0.010 C 
ENDROOT
BRANCH  14   4
ATOM      3  O   UNL     1     -15.216   3.573  24.793  0.00  0.00    -0.269 OA
ATOM      4  N   UNL     1     -15.799   4.489  22.745  0.00  0.00    -0.307 N 
ATOM     22  C   UNL     1     -15.935   3.601  23.797  0.00  0.00    +0.263 C 
ATOM     35  H   UNL     1     -16.407   4.396  21.936  0.00  0.00    +0.149 HD
BRANCH  22  23
ATOM      6  N   UNL     1     -17.197   2.080  22.430  0.00  0.00    -0.250 NA
ATOM     23  C   UNL     1     -17.030   2.605  23.665  0.00  0.00    +0.125 A 
ATOM     25  C   UNL     1     -17.802   2.265  24.763  0.00  0.00    +0.033 A 
ATOM     27  C   UNL     1     -18.813   1.327  24.584  0.00  0.00    +0.004 A 
ATOM     28  C   UNL     1     -18.189   1.171  22.294  0.00  0.00    +0.111 A 
ATOM     31  C   UNL     1     -19.016   0.764  23.329  0.00  0.00    +0.020 A 
ENDBRANCH  22  23
ENDBRANCH  14   4
BRANCH  10   1
ATOM      1  O   UNL     1     -15.378   9.862  23.284  0.00  0.00    -0.391 OA
ATOM     36  H   UNL     1     -16.277  10.106  23.005  0.00  0.00    +0.210 HD
ENDBRANCH  10   1
BRANCH  13  18
ATOM     18  C   UNL     1     -13.932  11.849  21.671  0.00  0.00    +0.077 C 
ATOM     20  C   UNL     1     -13.262  12.362  20.400  0.00  0.00    +0.017 C 
BRANCH  18  21
ATOM      2  O   UNL     1     -13.931  13.951  22.873  0.00  0.00    -0.276 OA
ATOM      5  N   UNL     1     -13.011  12.085  23.900  0.00  0.00    -0.311 N 
ATOM     21  C   UNL     1     -13.638  12.757  22.861  0.00  0.00    +0.216 C 
ATOM     37  H   UNL     1     -12.849  11.087  23.832  0.00  0.00    +0.149 HD
BRANCH   5  24
ATOM     24  C   UNL     1     -12.631  12.735  25.133  0.00  0.00    +0.139 C 
BRANCH  24  26
ATOM     26  C   UNL     1     -12.143  11.753  26.158  0.00  0.00    -0.030 A 
ATOM     29  C   UNL     1     -12.657  11.784  27.455  0.00  0.00    +0.005 A 
ATOM     30  C   UNL     1     -11.175  10.808  25.815  0.00  0.00    +0.005 A 
ATOM     32  C   UNL     1     -12.203  10.871  28.407  0.00  0.00    +0.000 A 
ATOM     33  C   UNL     1     -10.721   9.896  26.766  0.00  0.00    +0.000 A 
ATOM     34  C   UNL     1     -11.235   9.927  28.063  0.00  0.00    +0.000 A 
ENDBRANCH  24  26
ENDBRANCH   5  24
ENDBRANCH  18  21
ENDBRANCH  13  18
TORSDOF 7
ENDMDL
MODEL 6
REMARK VINA RESULT:      -6.8     26.995     32.030
REMARK  Name = 45361601
REMARK  10 active torsions:
REMARK  status: ('A' for Active; 'I' for Inactive)
REMARK    1  A    between atoms: O_1  and  C_10
REMARK    2  A    between atoms: N_4  and  C_14
REMARK    3  A    between atoms: N_5  and  C_24
REMARK    4  A    between atoms: C_7  and  C_17
REMARK    5  A    between atoms: C_9  and  C_19
REMARK    6  A    between atoms: C_13  and  C_18
REMARK    7  A    between atoms: C_18  and  C_20
REMARK    8  A    between atoms: C_18  and  C_21
REMARK    9  A    between atoms: C_22  and  C_23
REMARK   10  A    between atoms: C_24  and  C_26
REMARK                            x       y       z     vdW  Elec       q    Type
REMARK                         _______ _______ _______ _____ _____    ______ ____
ROOT
ATOM      7  C   UNL     1      13.835   4.912   0.584  0.00  0.00    -0.027 C 
ATOM      8  C   UNL     1      12.279   4.784   0.463  0.00  0.00    +0.028 C 
ATOM      9  C   UNL     1      11.617   4.657   1.881  0.00  0.00    +0.012 C 
ATOM     10  C   UNL     1      11.883   3.682  -0.561  0.00  0.00    +0.122 C 
ATOM     11  C   UNL     1      14.443   5.149  -0.818  0.00  0.00    +0.007 C 
ATOM     12  C   UNL     1      14.173   6.143   1.457  0.00  0.00    +0.009 C 
ATOM     13  C   UNL     1      12.577   3.865  -1.930  0.00  0.00    +0.029 C 
ATOM     14  C   UNL     1      12.024   5.862   2.776  0.00  0.00    +0.076 C 
ATOM     15  C   UNL     1      14.090   4.050  -1.813  0.00  0.00    +0.007 C 
ATOM     16  C   UNL     1      13.534   6.089   2.838  0.00  0.00    +0.023 C 
ATOM     17  C   UNL     1      14.488   3.652   1.205  0.00  0.00    +0.011 C 
ATOM     19  C   UNL     1      10.083   4.557   1.837  0.00  0.00    +0.010 C 
ENDROOT
BRANCH  14   4
ATOM      3  O   UNL     1       9.984   7.449   4.028  0.00  0.00    -0.269 OA
ATOM      4  N   UNL     1      11.526   5.720   4.127  0.00  0.00    -0.307 N 
ATOM     22  C   UNL     1      10.535   6.538   4.641  0.00  0.00    +0.263 C 
ATOM     35  H   UNL     1      11.963   5.030   4.733  0.00  0.00    +0.149 HD
BRANCH  22  23
ATOM      6  N   UNL     1       9.840   7.373   6.785  0.00  0.00    -0.250 NA
ATOM     23  C   UNL     1      10.153   6.280   6.054  0.00  0.00    +0.125 A 
ATOM     25  C   UNL     1      10.130   4.985   6.547  0.00  0.00    +0.033 A 
ATOM     27  C   UNL     1       9.764   4.800   7.875  0.00  0.00    +0.004 A 
ATOM     28  C   UNL     1       9.489   7.155   8.072  0.00  0.00    +0.111 A 
ATOM     31  C   UNL     1       9.435   5.900   8.659  0.00  0.00    +0.020 A 
ENDBRANCH  22  23
ENDBRANCH  14   4
BRANCH  10   1
ATOM      1  O   UNL     1      10.476   3.742  -0.805  0.00  0.00    -0.391 OA
ATOM     36  H   UNL     1      10.159   2.838  -0.970  0.00  0.00    +0.210 HD
ENDBRANCH  10   1
BRANCH  13  18
ATOM     18  C   UNL     1      12.276   2.700  -2.882  0.00  0.00    +0.077 C 
ATOM     20  C   UNL     1      13.090   2.846  -4.164  0.00  0.00    +0.017 C 
BRANCH  18  21
ATOM      2  O   UNL     1      10.064   1.719  -2.793  0.00  0.00    -0.276 OA
ATOM      5  N   UNL     1      10.341   3.733  -3.912  0.00  0.00    -0.311 N 
ATOM     21  C   UNL     1      10.781   2.642  -3.175  0.00  0.00    +0.216 C 
ATOM     37  H   UNL     1      10.987   4.479  -4.145  0.00  0.00    +0.149 HD
BRANCH   5  24
ATOM     24  C   UNL     1       8.964   3.900  -4.313  0.00  0.00    +0.139 C 
BRANCH  24  26
ATOM     26  C   UNL     1       8.376   5.176  -3.784  0.00  0.00    -0.030 A 
ATOM     29  C   UNL     1       9.067   5.919  -2.827  0.00  0.00    +0.005 A 
ATOM     30  C   UNL     1       7.138   5.620  -4.250  0.00  0.00    +0.005 A 
ATOM     32  C   UNL     1       8.521   7.105  -2.336  0.00  0.00    +0.000 A 
ATOM     33  C   UNL     1       6.591   6.805  -3.760  0.00  0.00    +0.000 A 
ATOM     34  C   UNL     1       7.283   7.548  -2.802  0.00  0.00    +0.000 A 
ENDBRANCH  24  26
ENDBRANCH   5  24
ENDBRANCH  18  21
ENDBRANCH  13  18
TORSDOF 7
ENDMDL
MODEL 7
REMARK VINA RESULT:      -6.7     25.524     29.745
REMARK  Name = 45361601
REMARK  10 active torsions:
REMARK  status: ('A' for Active; 'I' for Inactive)
REMARK    1  A    between atoms: O_1  and  C_10
REMARK    2  A    between atoms: N_4  and  C_14
REMARK    3  A    between atoms: N_5  and  C_24
REMARK    4  A    between atoms: C_7  and  C_17
REMARK    5  A    between atoms: C_9  and  C_19
REMARK    6  A    between atoms: C_13  and  C_18
REMARK    7  A    between atoms: C_18  and  C_20
REMARK    8  A    between atoms: C_18  and  C_21
REMARK    9  A    between atoms: C_22  and  C_23
REMARK   10  A    between atoms: C_24  and  C_26
REMARK                            x       y       z     vdW  Elec       q    Type
REMARK                         _______ _______ _______ _____ _____    ______ ____
ROOT
ATOM      7  C   UNL     1       9.498   6.103   6.053  0.00  0.00    -0.027 C 
ATOM      8  C   UNL     1      10.409   7.292   5.599  0.00  0.00    +0.028 C 
ATOM      9  C   UNL     1       9.850   8.660   6.132  0.00  0.00    +0.012 C 
ATOM     10  C   UNL     1      10.690   7.235   4.070  0.00  0.00    +0.122 C 
ATOM     11  C   UNL     1      10.137   4.766   5.610  0.00  0.00    +0.007 C 
ATOM     12  C   UNL     1       9.412   6.094   7.596  0.00  0.00    +0.009 C 
ATOM     13  C   UNL     1      11.231   5.860   3.616  0.00  0.00    +0.029 C 
ATOM     14  C   UNL     1       9.697   8.614   7.678  0.00  0.00    +0.076 C 
ATOM     15  C   UNL     1      10.376   4.691   4.107  0.00  0.00    +0.007 C 
ATOM     16  C   UNL     1       8.901   7.406   8.174  0.00  0.00    +0.023 C 
ATOM     17  C   UNL     1       8.068   6.193   5.463  0.00  0.00    +0.011 C 
ATOM     19  C   UNL     1      10.715   9.871   5.746  0.00  0.00    +0.010 C 
ENDROOT
BRANCH  14   4
ATOM      3  O   UNL     1      10.950  10.644   9.275  0.00  0.00    -0.269 OA
ATOM      4  N   UNL     1       9.075   9.815   8.193  0.00  0.00    -0.307 N 
ATOM     22  C   UNL     1       9.767  10.738   8.957  0.00  0.00    +0.263 C 
ATOM     35  H   UNL     1       8.081   9.952   8.031  0.00  0.00    +0.149 HD
BRANCH  22  23
ATOM      6  N   UNL     1       8.599  12.782   8.474  0.00  0.00    -0.250 NA
ATOM     23  C   UNL     1       8.979  11.906   9.431  0.00  0.00    +0.125 A 
ATOM     25  C   UNL     1       8.676  12.045  10.775  0.00  0.00    +0.033 A 
ATOM     27  C   UNL     1       7.935  13.155  11.164  0.00  0.00    +0.004 A 
ATOM     28  C   UNL     1       7.880  13.849   8.889  0.00  0.00    +0.111 A 
ATOM     31  C   UNL     1       7.524  14.079  10.209  0.00  0.00    +0.020 A 
ENDBRANCH  22  23
ENDBRANCH  14   4
BRANCH  10   1
ATOM      1  O   UNL     1      11.690   8.199   3.733  0.00  0.00    -0.391 OA
ATOM     36  H   UNL     1      11.843   8.761   4.511  0.00  0.00    +0.210 HD
ENDBRANCH  10   1
BRANCH  13  18
ATOM     18  C   UNL     1      11.378   5.781   2.091  0.00  0.00    +0.077 C 
ATOM     20  C   UNL     1      10.998   4.389   1.598  0.00  0.00    +0.017 C 
BRANCH  18  21
ATOM      2  O   UNL     1      13.125   6.379   0.524  0.00  0.00    -0.276 OA
ATOM      5  N   UNL     1      13.671   6.174   2.769  0.00  0.00    -0.311 N 
ATOM     21  C   UNL     1      12.803   6.144   1.687  0.00  0.00    +0.216 C 
ATOM     37  H   UNL     1      13.316   6.018   3.706  0.00  0.00    +0.149 HD
BRANCH   5  24
ATOM     24  C   UNL     1      15.074   6.492   2.637  0.00  0.00    +0.139 C 
BRANCH  24  26
ATOM     26  C   UNL     1      15.585   7.277   3.810  0.00  0.00    -0.030 A 
ATOM     29  C   UNL     1      16.794   7.966   3.714  0.00  0.00    +0.005 A 
ATOM     30  C   UNL     1      14.851   7.318   4.995  0.00  0.00    +0.005 A 
ATOM     32  C   UNL     1      17.269   8.696   4.804  0.00  0.00    +0.000 A 
ATOM     33  C   UNL     1      15.325   8.047   6.085  0.00  0.00    +0.000 A 
ATOM     34  C   UNL     1      16.534   8.737   5.990  0.00  0.00    +0.000 A 
ENDBRANCH  24  26
ENDBRANCH   5  24
ENDBRANCH  18  21
ENDBRANCH  13  18
TORSDOF 7
ENDMDL
MODEL 8
REMARK VINA RESULT:      -6.7     19.467     22.455
REMARK  Name = 45361601
REMARK  10 active torsions:
REMARK  status: ('A' for Active; 'I' for Inactive)
REMARK    1  A    between atoms: O_1  and  C_10
REMARK    2  A    between atoms: N_4  and  C_14
REMARK    3  A    between atoms: N_5  and  C_24
REMARK    4  A    between atoms: C_7  and  C_17
REMARK    5  A    between atoms: C_9  and  C_19
REMARK    6  A    between atoms: C_13  and  C_18
REMARK    7  A    between atoms: C_18  and  C_20
REMARK    8  A    between atoms: C_18  and  C_21
REMARK    9  A    between atoms: C_22  and  C_23
REMARK   10  A    between atoms: C_24  and  C_26
REMARK                            x       y       z     vdW  Elec       q    Type
REMARK                         _______ _______ _______ _____ _____    ______ ____
ROOT
ATOM      7  C   UNL     1      -3.249 -11.390  11.763  0.00  0.00    -0.027 C 
ATOM      8  C   UNL     1      -4.584 -10.906  12.423  0.00  0.00    +0.028 C 
ATOM      9  C   UNL     1      -5.374  -9.956  11.453  0.00  0.00    +0.012 C 
ATOM     10  C   UNL     1      -4.335 -10.344  13.852  0.00  0.00    +0.122 C 
ATOM     11  C   UNL     1      -2.554 -12.409  12.695  0.00  0.00    +0.007 C 
ATOM     12  C   UNL     1      -3.576 -12.113  10.436  0.00  0.00    +0.009 C 
ATOM     13  C   UNL     1      -3.547 -11.328  14.748  0.00  0.00    +0.029 C 
ATOM     14  C   UNL     1      -5.632 -10.667  10.094  0.00  0.00    +0.076 C 
ATOM     15  C   UNL     1      -2.273 -11.849  14.084  0.00  0.00    +0.007 C 
ATOM     16  C   UNL     1      -4.366 -11.249   9.464  0.00  0.00    +0.023 C 
ATOM     17  C   UNL     1      -2.270 -10.223  11.480  0.00  0.00    +0.011 C 
ATOM     19  C   UNL     1      -6.713  -9.465  12.027  0.00  0.00    +0.010 C 
ENDROOT
BRANCH  14   4
ATOM      3  O   UNL     1      -7.900 -11.259   8.436  0.00  0.00    -0.269 OA
ATOM      4  N   UNL     1      -6.256  -9.781   9.134  0.00  0.00    -0.307 N 
ATOM     22  C   UNL     1      -7.352 -10.161   8.379  0.00  0.00    +0.263 C 
ATOM     35  H   UNL     1      -5.835  -8.870   8.974  0.00  0.00    +0.149 HD
BRANCH  22  23
ATOM      6  N   UNL     1      -8.119  -9.596   6.173  0.00  0.00    -0.250 NA
ATOM     23  C   UNL     1      -7.859  -9.145   7.420  0.00  0.00    +0.125 A 
ATOM     25  C   UNL     1      -8.040  -7.832   7.824  0.00  0.00    +0.033 A 
ATOM     27  C   UNL     1      -8.518  -6.923   6.887  0.00  0.00    +0.004 A 
ATOM     28  C   UNL     1      -8.582  -8.684   5.289  0.00  0.00    +0.111 A 
ATOM     31  C   UNL     1      -8.798  -7.349   5.593  0.00  0.00    +0.020 A 
ENDBRANCH  22  23
ENDBRANCH  14   4
BRANCH  10   1
ATOM      1  O   UNL     1      -5.589 -10.117  14.499  0.00  0.00    -0.391 OA
ATOM     36  H   UNL     1      -5.452 -10.194  15.459  0.00  0.00    +0.210 HD
ENDBRANCH  10   1
BRANCH  13  18
ATOM     18  C   UNL     1      -3.199 -10.706  16.107  0.00  0.00    +0.077 C 
ATOM     20  C   UNL     1      -1.686 -10.664  16.292  0.00  0.00    +0.017 C 
BRANCH  18  21
ATOM      2  O   UNL     1      -3.445 -11.511  18.377  0.00  0.00    -0.276 OA
ATOM      5  N   UNL     1      -5.008 -12.167  16.792  0.00  0.00    -0.311 N 
ATOM     21  C   UNL     1      -3.875 -11.492  17.226  0.00  0.00    +0.216 C 
ATOM     37  H   UNL     1      -5.327 -12.058  15.836  0.00  0.00    +0.149 HD
BRANCH   5  24
ATOM     24  C   UNL     1      -5.816 -12.980  17.670  0.00  0.00    +0.139 C 
BRANCH  24  26
ATOM     26  C   UNL     1      -7.038 -12.249  18.146  0.00  0.00    -0.030 A 
ATOM     29  C   UNL     1      -7.490 -11.123  17.457  0.00  0.00    +0.005 A 
ATOM     30  C   UNL     1      -7.723 -12.696  19.276  0.00  0.00    +0.005 A 
ATOM     32  C   UNL     1      -8.626 -10.444  17.898  0.00  0.00    +0.000 A 
ATOM     33  C   UNL     1      -8.858 -12.017  19.718  0.00  0.00    +0.000 A 
ATOM     34  C   UNL     1      -9.310 -10.891  19.029  0.00  0.00    +0.000 A 
ENDBRANCH  24  26
ENDBRANCH   5  24
ENDBRANCH  18  21
ENDBRANCH  13  18
TORSDOF 7
ENDMDL
MODEL 9
REMARK VINA RESULT:      -6.3     20.365     22.268
REMARK  Name = 45361601
REMARK  10 active torsions:
REMARK  status: ('A' for Active; 'I' for Inactive)
REMARK    1  A    between atoms: O_1  and  C_10
REMARK    2  A    between atoms: N_4  and  C_14
REMARK    3  A    between atoms: N_5  and  C_24
REMARK    4  A    between atoms: C_7  and  C_17
REMARK    5  A    between atoms: C_9  and  C_19
REMARK    6  A    between atoms: C_13  and  C_18
REMARK    7  A    between atoms: C_18  and  C_20
REMARK    8  A    between atoms: C_18  and  C_21
REMARK    9  A    between atoms: C_22  and  C_23
REMARK   10  A    between atoms: C_24  and  C_26
REMARK                            x       y       z     vdW  Elec       q    Type
REMARK                         _______ _______ _______ _____ _____    ______ ____
ROOT
ATOM      7  C   UNL     1      -5.536 -11.317   7.902  0.00  0.00    -0.027 C 
ATOM      8  C   UNL     1      -5.571  -9.846   8.438  0.00  0.00    +0.028 C 
ATOM      9  C   UNL     1      -5.354  -9.813   9.993  0.00  0.00    +0.012 C 
ATOM     10  C   UNL     1      -6.829  -9.089   7.922  0.00  0.00    +0.122 C 
ATOM     11  C   UNL     1      -5.639 -11.306   6.359  0.00  0.00    +0.007 C 
ATOM     12  C   UNL     1      -4.180 -11.958   8.278  0.00  0.00    +0.009 C 
ATOM     13  C   UNL     1      -6.983  -9.170   6.386  0.00  0.00    +0.029 C 
ATOM     14  C   UNL     1      -4.024 -10.527  10.367  0.00  0.00    +0.076 C 
ATOM     15  C   UNL     1      -6.890 -10.599   5.852  0.00  0.00    +0.007 C 
ATOM     16  C   UNL     1      -3.901 -11.930   9.774  0.00  0.00    +0.023 C 
ATOM     17  C   UNL     1      -6.686 -12.185   8.473  0.00  0.00    +0.011 C 
ATOM     19  C   UNL     1      -5.348  -8.393  10.584  0.00  0.00    +0.010 C 
ENDROOT
BRANCH  14   4
ATOM      3  O   UNL     1      -1.610 -10.009  11.833  0.00  0.00    -0.269 OA
ATOM      4  N   UNL     1      -3.847 -10.617  11.800  0.00  0.00    -0.307 N 
ATOM     22  C   UNL     1      -2.638 -10.346  12.416  0.00  0.00    +0.263 C 
ATOM     35  H   UNL     1      -4.627 -10.946  12.363  0.00  0.00    +0.149 HD
BRANCH  22  23
ATOM      6  N   UNL     1      -3.794 -10.838  14.465  0.00  0.00    -0.250 NA
ATOM     23  C   UNL     1      -2.614 -10.510  13.893  0.00  0.00    +0.125 A 
ATOM     25  C   UNL     1      -1.434 -10.330  14.597  0.00  0.00    +0.033 A 
ATOM     27  C   UNL     1      -1.467 -10.496  15.977  0.00  0.00    +0.004 A 
ATOM     28  C   UNL     1      -3.788 -10.992  15.808  0.00  0.00    +0.111 A 
ATOM     31  C   UNL     1      -2.663 -10.835  16.602  0.00  0.00    +0.020 A 
ENDBRANCH  22  23
ENDBRANCH  14   4
BRANCH  10   1
ATOM      1  O   UNL     1      -6.717  -7.703   8.249  0.00  0.00    -0.391 OA
ATOM     36  H   UNL     1      -7.415  -7.485   8.889  0.00  0.00    +0.210 HD
ENDBRANCH  10   1
BRANCH  13  18
ATOM     18  C   UNL     1      -8.294  -8.531   5.911  0.00  0.00    +0.077 C 
ATOM     20  C   UNL     1      -9.462  -9.047   6.746  0.00  0.00    +0.017 C 
BRANCH  18  21
ATOM      2  O   UNL     1      -9.217  -9.728   4.020  0.00  0.00    -0.276 OA
ATOM      5  N   UNL     1      -7.802  -7.935   3.614  0.00  0.00    -0.311 N 
ATOM     21  C   UNL     1      -8.503  -8.814   4.427  0.00  0.00    +0.216 C 
ATOM     37  H   UNL     1      -7.275  -7.174   4.028  0.00  0.00    +0.149 HD
BRANCH   5  24
ATOM     24  C   UNL     1      -7.842  -8.005   2.172  0.00  0.00    +0.139 C 
BRANCH  24  26
ATOM     26  C   UNL     1      -9.068  -7.345   1.611  0.00  0.00    -0.030 A 
ATOM     29  C   UNL     1      -9.505  -6.127   2.131  0.00  0.00    +0.005 A 
ATOM     30  C   UNL     1      -9.772  -7.951   0.570  0.00  0.00    +0.005 A 
ATOM     32  C   UNL     1     -10.644  -5.514   1.610  0.00  0.00    +0.000 A 
ATOM     33  C   UNL     1     -10.911  -7.339   0.049  0.00  0.00    +0.000 A 
ATOM     34  C   UNL     1     -11.348  -6.120   0.569  0.00  0.00    +0.000 A 
ENDBRANCH  24  26
ENDBRANCH   5  24
ENDBRANCH  18  21
ENDBRANCH  13  18
TORSDOF 7
ENDMDL
MODEL 10
REMARK VINA RESULT:      -6.3     27.564     33.048
REMARK  Name = 45361601
REMARK  10 active torsions:
REMARK  status: ('A' for Active; 'I' for Inactive)
REMARK    1  A    between atoms: O_1  and  C_10
REMARK    2  A    between atoms: N_4  and  C_14
REMARK    3  A    between atoms: N_5  and  C_24
REMARK    4  A    between atoms: C_7  and  C_17
REMARK    5  A    between atoms: C_9  and  C_19
REMARK    6  A    between atoms: C_13  and  C_18
REMARK    7  A    between atoms: C_18  and  C_20
REMARK    8  A    between atoms: C_18  and  C_21
REMARK    9  A    between atoms: C_22  and  C_23
REMARK   10  A    between atoms: C_24  and  C_26
REMARK                            x       y       z     vdW  Elec       q    Type
REMARK                         _______ _______ _______ _____ _____    ______ ____
ROOT
ATOM      7  C   UNL     1      12.611   8.591   3.134  0.00  0.00    -0.027 C 
ATOM      8  C   UNL     1      12.731   8.069   4.605  0.00  0.00    +0.028 C 
ATOM      9  C   UNL     1      14.208   7.647   4.929  0.00  0.00    +0.012 C 
ATOM     10  C   UNL     1      11.646   6.997   4.912  0.00  0.00    +0.122 C 
ATOM     11  C   UNL     1      11.173   9.103   2.884  0.00  0.00    +0.007 C 
ATOM     12  C   UNL     1      13.575   9.784   2.942  0.00  0.00    +0.009 C 
ATOM     13  C   UNL     1      10.219   7.478   4.562  0.00  0.00    +0.029 C 
ATOM     14  C   UNL     1      15.179   8.832   4.661  0.00  0.00    +0.076 C 
ATOM     15  C   UNL     1      10.110   8.043   3.146  0.00  0.00    +0.007 C 
ATOM     16  C   UNL     1      15.022   9.442   3.268  0.00  0.00    +0.023 C 
ATOM     17  C   UNL     1      12.940   7.496   2.087  0.00  0.00    +0.011 C 
ATOM     19  C   UNL     1      14.404   7.150   6.372  0.00  0.00    +0.010 C 
ENDROOT
BRANCH  14   4
ATOM      3  O   UNL     1      17.093  10.060   6.413  0.00  0.00    -0.269 OA
ATOM      4  N   UNL     1      16.562   8.444   4.839  0.00  0.00    -0.307 N 
ATOM     22  C   UNL     1      17.410   9.102   5.712  0.00  0.00    +0.263 C 
ATOM     35  H   UNL     1      16.932   7.697   4.257  0.00  0.00    +0.149 HD
BRANCH  22  23
ATOM      6  N   UNL     1      19.233   7.949   4.654  0.00  0.00    -0.250 NA
ATOM     23  C   UNL     1      18.807   8.598   5.760  0.00  0.00    +0.125 A 
ATOM     25  C   UNL     1      19.587   8.806   6.886  0.00  0.00    +0.033 A 
ATOM     27  C   UNL     1      20.887   8.314   6.878  0.00  0.00    +0.004 A 
ATOM     28  C   UNL     1      20.503   7.485   4.681  0.00  0.00    +0.111 A 
ATOM     31  C   UNL     1      21.362   7.641   5.757  0.00  0.00    +0.020 A 
ENDBRANCH  22  23
ENDBRANCH  14   4
BRANCH  10   1
ATOM      1  O   UNL     1      11.647   6.706   6.312  0.00  0.00    -0.391 OA
ATOM     36  H   UNL     1      10.987   7.277   6.740  0.00  0.00    +0.210 HD
ENDBRANCH  10   1
BRANCH  13  18
ATOM     18  C   UNL     1       9.181   6.364   4.750  0.00  0.00    +0.077 C 
ATOM     20  C   UNL     1       8.513   6.494   6.115  0.00  0.00    +0.017 C 
BRANCH  18  21
ATOM      2  O   UNL     1       9.916   4.180   5.495  0.00  0.00    -0.276 OA
ATOM      5  N   UNL     1      10.350   4.809   3.304  0.00  0.00    -0.311 N 
ATOM     21  C   UNL     1       9.845   5.001   4.583  0.00  0.00    +0.216 C 
ATOM     37  H   UNL     1      10.205   5.515   2.592  0.00  0.00    +0.149 HD
BRANCH   5  24
ATOM     24  C   UNL     1      11.024   3.595   2.906  0.00  0.00    +0.139 C 
BRANCH  24  26
ATOM     26  C   UNL     1      11.856   3.795   1.672  0.00  0.00    -0.030 A 
ATOM     29  C   UNL     1      11.289   4.370   0.534  0.00  0.00    +0.005 A 
ATOM     30  C   UNL     1      13.196   3.405   1.663  0.00  0.00    +0.005 A 
ATOM     32  C   UNL     1      12.062   4.555  -0.613  0.00  0.00    +0.000 A 
ATOM     33  C   UNL     1      13.969   3.590   0.517  0.00  0.00    +0.000 A 
ATOM     34  C   UNL     1      13.402   4.165  -0.621  0.00  0.00    +0.000 A 
ENDBRANCH  24  26
ENDBRANCH   5  24
ENDBRANCH  18  21
ENDBRANCH  13  18
TORSDOF 7
ENDMDL
