MODEL 1
REMARK VINA RESULT:      -7.3      0.000      0.000
REMARK  Name = 45784261
REMARK  3 active torsions:
REMARK  status: ('A' for Active; 'I' for Inactive)
REMARK    1  A    between atoms: N_4  and  C_7
REMARK    2  A    between atoms: C_10  and  C_15
REMARK    3  A    between atoms: C_20  and  C_22
REMARK                            x       y       z     vdW  Elec       q    Type
REMARK                         _______ _______ _______ _____ _____    ______ ____
ROOT
ATOM      5  N   UNL     1      15.763   6.091  19.593  0.00  0.00    -0.342 N 
ATOM      6  N   UNL     1      15.326   7.965  20.704  0.00  0.00    -0.232 NA
ATOM     15  C   UNL     1      14.817   7.004  19.965  0.00  0.00    +0.113 A 
ATOM     16  C   UNL     1      16.961   6.488  20.127  0.00  0.00    +0.067 A 
ATOM     17  C   UNL     1      16.663   7.660  20.816  0.00  0.00    +0.089 A 
ATOM     18  C   UNL     1      18.244   5.939  20.069  0.00  0.00    +0.040 A 
ATOM     19  C   UNL     1      17.691   8.339  21.491  0.00  0.00    +0.030 A 
ATOM     20  C   UNL     1      19.254   6.627  20.747  0.00  0.00    +0.057 A 
ATOM     21  C   UNL     1      18.986   7.806  21.447  0.00  0.00    +0.014 A 
ATOM     23  H   UNL     1      15.610   5.267  19.027  0.00  0.00    +0.167 HD
ENDROOT
BRANCH  15  10
ATOM      4  N   UNL     1      11.632   7.970  18.429  0.00  0.00    -0.299 NA
ATOM     10  C   UNL     1      13.374   6.861  19.538  0.00  0.00    +0.070 C 
ATOM     11  C   UNL     1      13.049   7.638  18.256  0.00  0.00    +0.096 C 
ATOM     13  C   UNL     1      11.514   8.397  19.824  0.00  0.00    +0.085 C 
ATOM     14  C   UNL     1      12.343   7.358  20.567  0.00  0.00    +0.028 C 
BRANCH   4   7
ATOM      7  C   UNL     1      11.236   9.051  17.518  0.00  0.00    +0.057 C 
ATOM      8  C   UNL     1      10.425   8.467  16.343  0.00  0.00    +0.019 C 
ATOM      9  C   UNL     1      12.369   9.318  16.506  0.00  0.00    +0.019 C 
ATOM     12  C   UNL     1      11.279   9.354  15.414  0.00  0.00    +0.003 C 
ENDBRANCH   4   7
ENDBRANCH  15  10
BRANCH  20  22
ATOM      1  F   UNL     1      21.177   5.950  21.970  0.00  0.00    -0.166 F 
ATOM      2  F   UNL     1      20.747   4.859  20.139  0.00  0.00    -0.166 F 
ATOM      3  F   UNL     1      21.524   6.883  20.037  0.00  0.00    -0.166 F 
ATOM     22  C   UNL     1      20.648   6.090  20.721  0.00  0.00    +0.417 C 
ENDBRANCH  20  22
TORSDOF 3
ENDMDL
MODEL 2
REMARK VINA RESULT:      -7.0     13.370     16.768
REMARK  Name = 45784261
REMARK  3 active torsions:
REMARK  status: ('A' for Active; 'I' for Inactive)
REMARK    1  A    between atoms: N_4  and  C_7
REMARK    2  A    between atoms: C_10  and  C_15
REMARK    3  A    between atoms: C_20  and  C_22
REMARK                            x       y       z     vdW  Elec       q    Type
REMARK                         _______ _______ _______ _____ _____    ______ ____
ROOT
ATOM      5  N   UNL     1      10.135   4.906   4.592  0.00  0.00    -0.342 N 
ATOM      6  N   UNL     1       9.617   7.055   4.354  0.00  0.00    -0.232 NA
ATOM     15  C   UNL     1       9.996   5.960   3.732  0.00  0.00    +0.113 A 
ATOM     16  C   UNL     1       9.825   5.351   5.851  0.00  0.00    +0.067 A 
ATOM     17  C   UNL     1       9.505   6.694   5.677  0.00  0.00    +0.089 A 
ATOM     18  C   UNL     1       9.797   4.712   7.093  0.00  0.00    +0.040 A 
ATOM     19  C   UNL     1       9.135   7.462   6.794  0.00  0.00    +0.030 A 
ATOM     20  C   UNL     1       9.426   5.490   8.193  0.00  0.00    +0.057 A 
ATOM     21  C   UNL     1       9.100   6.841   8.049  0.00  0.00    +0.014 A 
ATOM     23  H   UNL     1      10.414   3.966   4.347  0.00  0.00    +0.167 HD
ENDROOT
BRANCH  15  10
ATOM      4  N   UNL     1      11.818   4.971   0.709  0.00  0.00    -0.299 NA
ATOM     10  C   UNL     1      10.265   5.808   2.253  0.00  0.00    +0.070 C 
ATOM     11  C   UNL     1      11.099   4.564   1.919  0.00  0.00    +0.096 C 
ATOM     13  C   UNL     1      12.264   6.338   0.979  0.00  0.00    +0.085 C 
ATOM     14  C   UNL     1      11.035   6.976   1.613  0.00  0.00    +0.028 C 
BRANCH   4   7
ATOM      7  C   UNL     1      12.964   4.088   0.463  0.00  0.00    +0.057 C 
ATOM      8  C   UNL     1      13.203   3.193   1.697  0.00  0.00    +0.019 C 
ATOM      9  C   UNL     1      14.271   4.819   0.836  0.00  0.00    +0.019 C 
ATOM     12  C   UNL     1      14.703   3.521   1.550  0.00  0.00    +0.003 C 
ENDBRANCH   4   7
ENDBRANCH  15  10
BRANCH  20  22
ATOM      1  F   UNL     1      10.425   5.243  10.336  0.00  0.00    -0.166 F 
ATOM      2  F   UNL     1       8.253   5.179  10.255  0.00  0.00    -0.166 F 
ATOM      3  F   UNL     1       9.414   3.499   9.520  0.00  0.00    -0.166 F 
ATOM     22  C   UNL     1       9.379   4.864   9.548  0.00  0.00    +0.417 C 
ENDBRANCH  20  22
TORSDOF 3
ENDMDL
MODEL 3
REMARK VINA RESULT:      -7.0      1.660      2.782
REMARK  Name = 45784261
REMARK  3 active torsions:
REMARK  status: ('A' for Active; 'I' for Inactive)
REMARK    1  A    between atoms: N_4  and  C_7
REMARK    2  A    between atoms: C_10  and  C_15
REMARK    3  A    between atoms: C_20  and  C_22
REMARK                            x       y       z     vdW  Elec       q    Type
REMARK                         _______ _______ _______ _____ _____    ______ ____
ROOT
ATOM      5  N   UNL     1      16.396   6.989  19.309  0.00  0.00    -0.342 N 
ATOM      6  N   UNL     1      16.495   8.724  20.694  0.00  0.00    -0.232 NA
ATOM     15  C   UNL     1      15.794   8.134  19.751  0.00  0.00    +0.113 A 
ATOM     16  C   UNL     1      17.562   6.830  20.012  0.00  0.00    +0.067 A 
ATOM     17  C   UNL     1      17.601   7.926  20.870  0.00  0.00    +0.089 A 
ATOM     18  C   UNL     1      18.557   5.852  19.972  0.00  0.00    +0.040 A 
ATOM     19  C   UNL     1      18.689   8.071  21.747  0.00  0.00    +0.030 A 
ATOM     20  C   UNL     1      19.632   6.012  20.852  0.00  0.00    +0.057 A 
ATOM     21  C   UNL     1      19.699   7.100  21.725  0.00  0.00    +0.014 A 
ATOM     23  H   UNL     1      16.046   6.368  18.592  0.00  0.00    +0.167 HD
ENDROOT
BRANCH  15  10
ATOM      4  N   UNL     1      12.155   8.478  19.474  0.00  0.00    -0.299 NA
ATOM     10  C   UNL     1      14.477   8.603  19.177  0.00  0.00    +0.070 C 
ATOM     11  C   UNL     1      13.377   8.745  20.237  0.00  0.00    +0.096 C 
ATOM     13  C   UNL     1      12.483   7.329  18.630  0.00  0.00    +0.085 C 
ATOM     14  C   UNL     1      13.871   7.677  18.108  0.00  0.00    +0.028 C 
BRANCH   4   7
ATOM      7  C   UNL     1      11.038   8.162  20.372  0.00  0.00    +0.057 C 
ATOM      8  C   UNL     1      10.972   9.209  21.503  0.00  0.00    +0.019 C 
ATOM      9  C   UNL     1      11.502   7.150  21.440  0.00  0.00    +0.019 C 
ATOM     12  C   UNL     1      10.777   8.031  22.479  0.00  0.00    +0.003 C 
ENDBRANCH   4   7
ENDBRANCH  15  10
BRANCH  20  22
ATOM      1  F   UNL     1      20.311   3.773  20.428  0.00  0.00    -0.166 F 
ATOM      2  F   UNL     1      21.781   5.330  20.052  0.00  0.00    -0.166 F 
ATOM      3  F   UNL     1      21.273   4.790  22.091  0.00  0.00    -0.166 F 
ATOM     22  C   UNL     1      20.729   4.998  20.857  0.00  0.00    +0.417 C 
ENDBRANCH  20  22
TORSDOF 3
ENDMDL
MODEL 4
REMARK VINA RESULT:      -6.9      2.388      3.757
REMARK  Name = 45784261
REMARK  3 active torsions:
REMARK  status: ('A' for Active; 'I' for Inactive)
REMARK    1  A    between atoms: N_4  and  C_7
REMARK    2  A    between atoms: C_10  and  C_15
REMARK    3  A    between atoms: C_20  and  C_22
REMARK                            x       y       z     vdW  Elec       q    Type
REMARK                         _______ _______ _______ _____ _____    ______ ____
ROOT
ATOM      5  N   UNL     1      14.880   7.856  21.126  0.00  0.00    -0.342 N 
ATOM      6  N   UNL     1      14.334   6.947  19.173  0.00  0.00    -0.232 NA
ATOM     15  C   UNL     1      13.901   7.654  20.194  0.00  0.00    +0.113 A 
ATOM     16  C   UNL     1      16.019   7.239  20.678  0.00  0.00    +0.067 A 
ATOM     17  C   UNL     1      15.652   6.679  19.457  0.00  0.00    +0.089 A 
ATOM     18  C   UNL     1      17.301   7.125  21.219  0.00  0.00    +0.040 A 
ATOM     19  C   UNL     1      16.607   5.959  18.719  0.00  0.00    +0.030 A 
ATOM     20  C   UNL     1      18.238   6.406  20.472  0.00  0.00    +0.057 A 
ATOM     21  C   UNL     1      17.901   5.832  19.243  0.00  0.00    +0.014 A 
ATOM     23  H   UNL     1      14.785   8.369  21.992  0.00  0.00    +0.167 HD
ENDROOT
BRANCH  15  10
ATOM      4  N   UNL     1      11.282   9.833  21.546  0.00  0.00    -0.299 NA
ATOM     10  C   UNL     1      12.508   8.209  20.383  0.00  0.00    +0.070 C 
ATOM     11  C   UNL     1      12.501   9.700  20.742  0.00  0.00    +0.096 C 
ATOM     13  C   UNL     1      11.288   8.668  22.431  0.00  0.00    +0.085 C 
ATOM     14  C   UNL     1      11.689   7.535  21.497  0.00  0.00    +0.028 C 
BRANCH   4   7
ATOM      7  C   UNL     1      11.305  11.079  22.323  0.00  0.00    +0.057 C 
ATOM      8  C   UNL     1      12.749  11.384  22.770  0.00  0.00    +0.019 C 
ATOM      9  C   UNL     1      10.993  10.772  23.803  0.00  0.00    +0.019 C 
ATOM     12  C   UNL     1      12.170  11.702  24.163  0.00  0.00    +0.003 C 
ENDBRANCH   4   7
ENDBRANCH  15  10
BRANCH  20  22
ATOM      1  F   UNL     1      19.672   6.243  22.361  0.00  0.00    -0.166 F 
ATOM      2  F   UNL     1      20.230   5.087  20.605  0.00  0.00    -0.166 F 
ATOM      3  F   UNL     1      20.475   7.243  20.605  0.00  0.00    -0.166 F 
ATOM     22  C   UNL     1      19.627   6.248  20.998  0.00  0.00    +0.417 C 
ENDBRANCH  20  22
TORSDOF 3
ENDMDL
MODEL 5
REMARK VINA RESULT:      -6.7      3.580      5.014
REMARK  Name = 45784261
REMARK  3 active torsions:
REMARK  status: ('A' for Active; 'I' for Inactive)
REMARK    1  A    between atoms: N_4  and  C_7
REMARK    2  A    between atoms: C_10  and  C_15
REMARK    3  A    between atoms: C_20  and  C_22
REMARK                            x       y       z     vdW  Elec       q    Type
REMARK                         _______ _______ _______ _____ _____    ______ ____
ROOT
ATOM      5  N   UNL     1      14.267   9.151  21.609  0.00  0.00    -0.342 N 
ATOM      6  N   UNL     1      13.259   8.333  19.805  0.00  0.00    -0.232 NA
ATOM     15  C   UNL     1      13.140   9.142  20.835  0.00  0.00    +0.113 A 
ATOM     16  C   UNL     1      15.172   8.293  21.042  0.00  0.00    +0.067 A 
ATOM     17  C   UNL     1      14.520   7.794  19.917  0.00  0.00    +0.089 A 
ATOM     18  C   UNL     1      16.467   7.919  21.405  0.00  0.00    +0.040 A 
ATOM     19  C   UNL     1      15.183   6.868  19.095  0.00  0.00    +0.030 A 
ATOM     20  C   UNL     1      17.112   6.997  20.575  0.00  0.00    +0.057 A 
ATOM     21  C   UNL     1      16.484   6.480  19.439  0.00  0.00    +0.014 A 
ATOM     23  H   UNL     1      14.410   9.694  22.450  0.00  0.00    +0.167 HD
ENDROOT
BRANCH  15  10
ATOM      4  N   UNL     1      11.150  11.579  22.715  0.00  0.00    -0.299 NA
ATOM     10  C   UNL     1      11.937   9.987  21.185  0.00  0.00    +0.070 C 
ATOM     11  C   UNL     1      12.313  11.311  21.865  0.00  0.00    +0.096 C 
ATOM     13  C   UNL     1      10.824  10.288  23.322  0.00  0.00    +0.085 C 
ATOM     14  C   UNL     1      10.939   9.324  22.149  0.00  0.00    +0.028 C 
BRANCH   4   7
ATOM      7  C   UNL     1      11.478  12.571  23.747  0.00  0.00    +0.057 C 
ATOM      8  C   UNL     1      11.277  11.950  25.144  0.00  0.00    +0.019 C 
ATOM      9  C   UNL     1      10.239  13.443  24.040  0.00  0.00    +0.019 C 
ATOM     12  C   UNL     1      10.559  13.257  25.538  0.00  0.00    +0.003 C 
ENDBRANCH   4   7
ENDBRANCH  15  10
BRANCH  20  22
ATOM      1  F   UNL     1      18.858   5.414  20.259  0.00  0.00    -0.166 F 
ATOM      2  F   UNL     1      19.456   7.478  20.590  0.00  0.00    -0.166 F 
ATOM      3  F   UNL     1      18.683   6.298  22.238  0.00  0.00    -0.166 F 
ATOM     22  C   UNL     1      18.500   6.557  20.910  0.00  0.00    +0.417 C 
ENDBRANCH  20  22
TORSDOF 3
ENDMDL
MODEL 6
REMARK VINA RESULT:      -6.6     14.325     17.307
REMARK  Name = 45784261
REMARK  3 active torsions:
REMARK  status: ('A' for Active; 'I' for Inactive)
REMARK    1  A    between atoms: N_4  and  C_7
REMARK    2  A    between atoms: C_10  and  C_15
REMARK    3  A    between atoms: C_20  and  C_22
REMARK                            x       y       z     vdW  Elec       q    Type
REMARK                         _______ _______ _______ _____ _____    ______ ____
ROOT
ATOM      5  N   UNL     1      12.819   6.280   3.209  0.00  0.00    -0.342 N 
ATOM      6  N   UNL     1      11.226   4.766   2.880  0.00  0.00    -0.232 NA
ATOM     15  C   UNL     1      11.578   5.830   3.567  0.00  0.00    +0.113 A 
ATOM     16  C   UNL     1      13.297   5.452   2.227  0.00  0.00    +0.067 A 
ATOM     17  C   UNL     1      12.285   4.515   2.039  0.00  0.00    +0.089 A 
ATOM     18  C   UNL     1      14.494   5.442   1.508  0.00  0.00    +0.040 A 
ATOM     19  C   UNL     1      12.459   3.501   1.083  0.00  0.00    +0.030 A 
ATOM     20  C   UNL     1      14.650   4.426   0.560  0.00  0.00    +0.057 A 
ATOM     21  C   UNL     1      13.652   3.472   0.349  0.00  0.00    +0.014 A 
ATOM     23  H   UNL     1      13.299   7.081   3.597  0.00  0.00    +0.167 HD
ENDROOT
BRANCH  15  10
ATOM      4  N   UNL     1      10.104   6.372   6.878  0.00  0.00    -0.299 NA
ATOM     10  C   UNL     1      10.767   6.526   4.635  0.00  0.00    +0.070 C 
ATOM     11  C   UNL     1      11.310   6.287   6.050  0.00  0.00    +0.096 C 
ATOM     13  C   UNL     1       9.088   5.622   6.140  0.00  0.00    +0.085 C 
ATOM     14  C   UNL     1       9.291   6.098   4.707  0.00  0.00    +0.028 C 
BRANCH   4   7
ATOM      7  C   UNL     1      10.336   5.773   8.199  0.00  0.00    +0.057 C 
ATOM      8  C   UNL     1       9.922   4.288   8.173  0.00  0.00    +0.019 C 
ATOM      9  C   UNL     1       9.111   6.021   9.103  0.00  0.00    +0.019 C 
ATOM     12  C   UNL     1       9.218   4.539   9.522  0.00  0.00    +0.003 C 
ENDBRANCH   4   7
ENDBRANCH  15  10
BRANCH  20  22
ATOM      1  F   UNL     1      15.674   4.163  -1.569  0.00  0.00    -0.166 F 
ATOM      2  F   UNL     1      16.661   5.499  -0.167  0.00  0.00    -0.166 F 
ATOM      3  F   UNL     1      16.746   3.352   0.140  0.00  0.00    -0.166 F 
ATOM     22  C   UNL     1      15.909   4.361  -0.241  0.00  0.00    +0.417 C 
ENDBRANCH  20  22
TORSDOF 3
ENDMDL
MODEL 7
REMARK VINA RESULT:      -6.6      2.393      3.237
REMARK  Name = 45784261
REMARK  3 active torsions:
REMARK  status: ('A' for Active; 'I' for Inactive)
REMARK    1  A    between atoms: N_4  and  C_7
REMARK    2  A    between atoms: C_10  and  C_15
REMARK    3  A    between atoms: C_20  and  C_22
REMARK                            x       y       z     vdW  Elec       q    Type
REMARK                         _______ _______ _______ _____ _____    ______ ____
ROOT
ATOM      5  N   UNL     1      17.610   6.282  19.881  0.00  0.00    -0.342 N 
ATOM      6  N   UNL     1      17.877   7.990  21.278  0.00  0.00    -0.232 NA
ATOM     15  C   UNL     1      17.101   7.456  20.361  0.00  0.00    +0.113 A 
ATOM     16  C   UNL     1      18.793   6.042  20.531  0.00  0.00    +0.067 A 
ATOM     17  C   UNL     1      18.938   7.122  21.398  0.00  0.00    +0.089 A 
ATOM     18  C   UNL     1      19.721   5.004  20.438  0.00  0.00    +0.040 A 
ATOM     19  C   UNL     1      20.070   7.187  22.227  0.00  0.00    +0.030 A 
ATOM     20  C   UNL     1      20.841   5.085  21.271  0.00  0.00    +0.057 A 
ATOM     21  C   UNL     1      21.015   6.155  22.151  0.00  0.00    +0.014 A 
ATOM     23  H   UNL     1      17.191   5.693  19.174  0.00  0.00    +0.167 HD
ENDROOT
BRANCH  15  10
ATOM      4  N   UNL     1      13.520   8.241  20.379  0.00  0.00    -0.299 NA
ATOM     10  C   UNL     1      15.793   8.014  19.850  0.00  0.00    +0.070 C 
ATOM     11  C   UNL     1      14.843   8.444  20.976  0.00  0.00    +0.096 C 
ATOM     13  C   UNL     1      13.614   6.955  19.688  0.00  0.00    +0.085 C 
ATOM     14  C   UNL     1      14.965   7.041  18.993  0.00  0.00    +0.028 C 
BRANCH   4   7
ATOM      7  C   UNL     1      12.482   8.202  21.416  0.00  0.00    +0.057 C 
ATOM      8  C   UNL     1      11.969   6.757  21.580  0.00  0.00    +0.019 C 
ATOM      9  C   UNL     1      11.111   8.536  20.790  0.00  0.00    +0.019 C 
ATOM     12  C   UNL     1      10.543   7.344  21.588  0.00  0.00    +0.003 C 
ENDBRANCH   4   7
ENDBRANCH  15  10
BRANCH  20  22
ATOM      1  F   UNL     1      22.332   3.659  22.453  0.00  0.00    -0.166 F 
ATOM      2  F   UNL     1      21.417   2.845  20.657  0.00  0.00    -0.166 F 
ATOM      3  F   UNL     1      22.978   4.343  20.493  0.00  0.00    -0.166 F 
ATOM     22  C   UNL     1      21.872   4.005  21.217  0.00  0.00    +0.417 C 
ENDBRANCH  20  22
TORSDOF 3
ENDMDL
MODEL 8
REMARK VINA RESULT:      -6.5     29.169     32.173
REMARK  Name = 45784261
REMARK  3 active torsions:
REMARK  status: ('A' for Active; 'I' for Inactive)
REMARK    1  A    between atoms: N_4  and  C_7
REMARK    2  A    between atoms: C_10  and  C_15
REMARK    3  A    between atoms: C_20  and  C_22
REMARK                            x       y       z     vdW  Elec       q    Type
REMARK                         _______ _______ _______ _____ _____    ______ ____
ROOT
ATOM      5  N   UNL     1     -15.822   4.371  25.048  0.00  0.00    -0.342 N 
ATOM      6  N   UNL     1     -16.431   2.593  23.862  0.00  0.00    -0.232 NA
ATOM     15  C   UNL     1     -16.063   3.854  23.806  0.00  0.00    +0.113 A 
ATOM     16  C   UNL     1     -16.048   3.379  25.966  0.00  0.00    +0.067 A 
ATOM     17  C   UNL     1     -16.427   2.279  25.201  0.00  0.00    +0.089 A 
ATOM     18  C   UNL     1     -15.957   3.349  27.359  0.00  0.00    +0.040 A 
ATOM     19  C   UNL     1     -16.738   1.070  25.847  0.00  0.00    +0.030 A 
ATOM     20  C   UNL     1     -16.270   2.139  27.984  0.00  0.00    +0.057 A 
ATOM     21  C   UNL     1     -16.652   1.017  27.244  0.00  0.00    +0.014 A 
ATOM     23  H   UNL     1     -15.528   5.316  25.256  0.00  0.00    +0.167 HD
ENDROOT
BRANCH  15  10
ATOM      4  N   UNL     1     -14.597   6.381  21.592  0.00  0.00    -0.299 NA
ATOM     10  C   UNL     1     -15.906   4.694  22.559  0.00  0.00    +0.070 C 
ATOM     11  C   UNL     1     -14.451   5.101  22.290  0.00  0.00    +0.096 C 
ATOM     13  C   UNL     1     -15.635   7.097  22.334  0.00  0.00    +0.085 C 
ATOM     14  C   UNL     1     -16.686   6.020  22.571  0.00  0.00    +0.028 C 
BRANCH   4   7
ATOM      7  C   UNL     1     -13.334   7.130  21.610  0.00  0.00    +0.057 C 
ATOM      8  C   UNL     1     -13.102   7.785  20.233  0.00  0.00    +0.019 C 
ATOM      9  C   UNL     1     -12.165   6.182  21.272  0.00  0.00    +0.019 C 
ATOM     12  C   UNL     1     -11.645   7.286  20.327  0.00  0.00    +0.003 C 
ENDBRANCH   4   7
ENDBRANCH  15  10
BRANCH  20  22
ATOM      1  F   UNL     1     -16.306   0.762  29.922  0.00  0.00    -0.166 F 
ATOM      2  F   UNL     1     -15.016   2.511  29.988  0.00  0.00    -0.166 F 
ATOM      3  F   UNL     1     -17.169   2.748  30.116  0.00  0.00    -0.166 F 
ATOM     22  C   UNL     1     -16.192   2.044  29.473  0.00  0.00    +0.417 C 
ENDBRANCH  20  22
TORSDOF 3
ENDMDL
MODEL 9
REMARK VINA RESULT:      -6.4      4.436      8.004
REMARK  Name = 45784261
REMARK  3 active torsions:
REMARK  status: ('A' for Active; 'I' for Inactive)
REMARK    1  A    between atoms: N_4  and  C_7
REMARK    2  A    between atoms: C_10  and  C_15
REMARK    3  A    between atoms: C_20  and  C_22
REMARK                            x       y       z     vdW  Elec       q    Type
REMARK                         _______ _______ _______ _____ _____    ______ ____
ROOT
ATOM      5  N   UNL     1      15.894   7.205  21.797  0.00  0.00    -0.342 N 
ATOM      6  N   UNL     1      16.624   7.002  19.707  0.00  0.00    -0.232 NA
ATOM     15  C   UNL     1      16.957   6.943  20.978  0.00  0.00    +0.113 A 
ATOM     16  C   UNL     1      14.804   7.449  21.002  0.00  0.00    +0.067 A 
ATOM     17  C   UNL     1      15.285   7.316  19.703  0.00  0.00    +0.089 A 
ATOM     18  C   UNL     1      13.477   7.765  21.300  0.00  0.00    +0.040 A 
ATOM     19  C   UNL     1      14.406   7.507  18.624  0.00  0.00    +0.030 A 
ATOM     20  C   UNL     1      12.616   7.951  20.214  0.00  0.00    +0.057 A 
ATOM     21  C   UNL     1      13.069   7.824  18.899  0.00  0.00    +0.014 A 
ATOM     23  H   UNL     1      15.906   7.217  22.808  0.00  0.00    +0.167 HD
ENDROOT
BRANCH  15  10
ATOM      4  N   UNL     1      20.489   7.497  21.786  0.00  0.00    -0.299 NA
ATOM     10  C   UNL     1      18.325   6.631  21.540  0.00  0.00    +0.070 C 
ATOM     11  C   UNL     1      19.090   7.884  21.986  0.00  0.00    +0.096 C 
ATOM     13  C   UNL     1      20.509   6.813  20.493  0.00  0.00    +0.085 C 
ATOM     14  C   UNL     1      19.278   5.919  20.564  0.00  0.00    +0.028 C 
BRANCH   4   7
ATOM      7  C   UNL     1      21.358   8.681  21.763  0.00  0.00    +0.057 C 
ATOM      8  C   UNL     1      20.541   9.914  21.327  0.00  0.00    +0.019 C 
ATOM      9  C   UNL     1      22.076   8.770  20.400  0.00  0.00    +0.019 C 
ATOM     12  C   UNL     1      21.718  10.271  20.397  0.00  0.00    +0.003 C 
ENDBRANCH   4   7
ENDBRANCH  15  10
BRANCH  20  22
ATOM      1  F   UNL     1      11.041   9.376  21.282  0.00  0.00    -0.166 F 
ATOM      2  F   UNL     1      10.486   8.591  19.332  0.00  0.00    -0.166 F 
ATOM      3  F   UNL     1      10.482   7.286  21.066  0.00  0.00    -0.166 F 
ATOM     22  C   UNL     1      11.184   8.292  20.467  0.00  0.00    +0.417 C 
ENDBRANCH  20  22
TORSDOF 3
ENDMDL
MODEL 10
REMARK VINA RESULT:      -6.4     30.425     32.681
REMARK  Name = 45784261
REMARK  3 active torsions:
REMARK  status: ('A' for Active; 'I' for Inactive)
REMARK    1  A    between atoms: N_4  and  C_7
REMARK    2  A    between atoms: C_10  and  C_15
REMARK    3  A    between atoms: C_20  and  C_22
REMARK                            x       y       z     vdW  Elec       q    Type
REMARK                         _______ _______ _______ _____ _____    ______ ____
ROOT
ATOM      5  N   UNL     1     -14.281   5.250  32.200  0.00  0.00    -0.342 N 
ATOM      6  N   UNL     1     -14.496   4.602  34.315  0.00  0.00    -0.232 NA
ATOM     15  C   UNL     1     -14.353   5.632  33.511  0.00  0.00    +0.113 A 
ATOM     16  C   UNL     1     -14.385   3.884  32.156  0.00  0.00    +0.067 A 
ATOM     17  C   UNL     1     -14.518   3.503  33.489  0.00  0.00    +0.089 A 
ATOM     18  C   UNL     1     -14.373   2.975  31.097  0.00  0.00    +0.040 A 
ATOM     19  C   UNL     1     -14.649   2.140  33.801  0.00  0.00    +0.030 A 
ATOM     20  C   UNL     1     -14.505   1.623  31.426  0.00  0.00    +0.057 A 
ATOM     21  C   UNL     1     -14.641   1.210  32.754  0.00  0.00    +0.014 A 
ATOM     23  H   UNL     1     -14.172   5.863  31.404  0.00  0.00    +0.167 HD
ENDROOT
BRANCH  15  10
ATOM      4  N   UNL     1     -13.157   9.097  33.445  0.00  0.00    -0.299 NA
ATOM     10  C   UNL     1     -14.270   7.087  33.912  0.00  0.00    +0.070 C 
ATOM     11  C   UNL     1     -13.851   8.005  32.756  0.00  0.00    +0.096 C 
ATOM     13  C   UNL     1     -12.324   8.437  34.450  0.00  0.00    +0.085 C 
ATOM     14  C   UNL     1     -13.264   7.391  35.036  0.00  0.00    +0.028 C 
BRANCH   4   7
ATOM      7  C   UNL     1     -12.330   9.863  32.504  0.00  0.00    +0.057 C 
ATOM      8  C   UNL     1     -13.010   9.889  31.120  0.00  0.00    +0.019 C 
ATOM      9  C   UNL     1     -11.264   8.938  31.879  0.00  0.00    +0.019 C 
ATOM     12  C   UNL     1     -11.626   9.571  30.519  0.00  0.00    +0.003 C 
ENDBRANCH   4   7
ENDBRANCH  15  10
BRANCH  20  22
ATOM      1  F   UNL     1     -13.260   0.077  30.118  0.00  0.00    -0.166 F 
ATOM      2  F   UNL     1     -15.311  -0.467  30.587  0.00  0.00    -0.166 F 
ATOM      3  F   UNL     1     -14.911   1.090  29.130  0.00  0.00    -0.166 F 
ATOM     22  C   UNL     1     -14.499   0.601  30.336  0.00  0.00    +0.417 C 
ENDBRANCH  20  22
TORSDOF 3
ENDMDL
