MODEL 1
REMARK VINA RESULT:      -8.1      0.000      0.000
REMARK  Name = 11884018
REMARK  9 active torsions:
REMARK  status: ('A' for Active; 'I' for Inactive)
REMARK    1  A    between atoms: O_3  and  C_13
REMARK    2  A    between atoms: O_3  and  C_17
REMARK    3  A    between atoms: O_6  and  C_24
REMARK    4  A    between atoms: O_6  and  C_30
REMARK    5  A    between atoms: O_7  and  C_29
REMARK    6  A    between atoms: O_7  and  C_31
REMARK    7  A    between atoms: N_8  and  C_12
REMARK    8  A    between atoms: N_9  and  C_21
REMARK    9  A    between atoms: C_16  and  C_18
REMARK                            x       y       z     vdW  Elec       q    Type
REMARK                         _______ _______ _______ _____ _____    ______ ____
ROOT
ATOM      1  O   UNL     1     -17.421   4.658  25.199  0.00  0.00    -0.368 OA
ATOM      2  O   UNL     1     -16.875   1.847  24.101  0.00  0.00    -0.368 OA
ATOM     10  C   UNL     1     -16.327   2.554  25.232  0.00  0.00    +0.173 C 
ATOM     11  C   UNL     1     -16.197   4.007  24.822  0.00  0.00    +0.192 C 
ATOM     12  C   UNL     1     -17.331   2.585  26.361  0.00  0.00    +0.130 C 
ATOM     13  C   UNL     1     -16.054   3.911  23.322  0.00  0.00    +0.235 C 
ATOM     14  C   UNL     1     -18.226   3.747  25.964  0.00  0.00    +0.185 C 
ATOM     15  C   UNL     1     -16.964   2.750  22.988  0.00  0.00    +0.207 C 
ENDROOT
BRANCH  12   8
ATOM      4  O   UNL     1     -16.407   0.605  28.224  0.00  0.00    -0.270 OA
ATOM      8  N   UNL     1     -16.687   2.829  27.628  0.00  0.00    -0.304 N 
ATOM     16  C   UNL     1     -16.273   1.802  28.465  0.00  0.00    +0.244 C 
ATOM     37  H   UNL     1     -16.639   3.792  27.943  0.00  0.00    +0.149 HD
BRANCH  16  18
ATOM     18  C   UNL     1     -15.649   2.219  29.747  0.00  0.00    +0.037 A 
ATOM     19  C   UNL     1     -15.461   3.574  30.024  0.00  0.00    +0.016 A 
ATOM     20  C   UNL     1     -15.250   1.257  30.674  0.00  0.00    +0.016 A 
ATOM     22  C   UNL     1     -14.874   3.965  31.227  0.00  0.00    +0.046 A 
ATOM     23  C   UNL     1     -14.664   1.647  31.878  0.00  0.00    +0.046 A 
ATOM     24  C   UNL     1     -14.476   3.002  32.155  0.00  0.00    +0.120 A 
BRANCH  24   6
ATOM      6  O   UNL     1     -13.901   3.384  33.328  0.00  0.00    -0.495 OA
ATOM     30  C   UNL     1     -14.221   4.686  33.814  0.00  0.00    +0.277 C 
ENDBRANCH  24   6
ENDBRANCH  16  18
ENDBRANCH  12   8
BRANCH  13   3
ATOM      3  O   UNL     1     -16.427   5.090  22.644  0.00  0.00    -0.442 OA
BRANCH   3  17
ATOM      5  O   UNL     1     -15.697   5.219  20.481  0.00  0.00    -0.226 OA
ATOM      9  N   UNL     1     -14.617   6.363  22.214  0.00  0.00    -0.251 N 
ATOM     17  C   UNL     1     -15.574   5.538  21.657  0.00  0.00    +0.405 C 
ATOM     38  H   UNL     1     -14.679   6.511  23.219  0.00  0.00    +0.158 HD
BRANCH   9  21
ATOM     21  C   UNL     1     -13.556   7.031  21.561  0.00  0.00    +0.037 A 
ATOM     25  C   UNL     1     -12.378   6.345  21.263  0.00  0.00    +0.027 A 
ATOM     26  C   UNL     1     -13.686   8.375  21.213  0.00  0.00    +0.027 A 
ATOM     27  C   UNL     1     -11.331   7.004  20.618  0.00  0.00    +0.048 A 
ATOM     28  C   UNL     1     -12.638   9.034  20.569  0.00  0.00    +0.048 A 
ATOM     29  C   UNL     1     -11.461   8.349  20.272  0.00  0.00    +0.129 A 
BRANCH  29   7
ATOM      7  O   UNL     1     -10.439   8.992  19.645  0.00  0.00    -0.456 OA
BRANCH   7  31
ATOM     31  C   UNL     1     -10.543   9.188  18.278  0.00  0.00    +0.128 A 
ATOM     32  C   UNL     1     -10.615   8.090  17.419  0.00  0.00    +0.046 A 
ATOM     33  C   UNL     1     -10.574  10.482  17.759  0.00  0.00    +0.046 A 
ATOM     34  C   UNL     1     -10.719   8.287  16.042  0.00  0.00    +0.004 A 
ATOM     35  C   UNL     1     -10.678  10.679  16.381  0.00  0.00    +0.004 A 
ATOM     36  C   UNL     1     -10.750   9.581  15.524  0.00  0.00    +0.000 A 
ENDBRANCH   7  31
ENDBRANCH  29   7
ENDBRANCH   9  21
ENDBRANCH   3  17
ENDBRANCH  13   3
TORSDOF 8
ENDMDL
MODEL 2
REMARK VINA RESULT:      -7.4     18.393     20.348
REMARK  Name = 11884018
REMARK  9 active torsions:
REMARK  status: ('A' for Active; 'I' for Inactive)
REMARK    1  A    between atoms: O_3  and  C_13
REMARK    2  A    between atoms: O_3  and  C_17
REMARK    3  A    between atoms: O_6  and  C_24
REMARK    4  A    between atoms: O_6  and  C_30
REMARK    5  A    between atoms: O_7  and  C_29
REMARK    6  A    between atoms: O_7  and  C_31
REMARK    7  A    between atoms: N_8  and  C_12
REMARK    8  A    between atoms: N_9  and  C_21
REMARK    9  A    between atoms: C_16  and  C_18
REMARK                            x       y       z     vdW  Elec       q    Type
REMARK                         _______ _______ _______ _____ _____    ______ ____
ROOT
ATOM      1  O   UNL     1      -6.836 -11.746  17.271  0.00  0.00    -0.368 OA
ATOM      2  O   UNL     1      -6.315 -10.946  20.185  0.00  0.00    -0.368 OA
ATOM     10  C   UNL     1      -6.921 -10.228  19.091  0.00  0.00    +0.173 C 
ATOM     11  C   UNL     1      -6.159 -10.611  17.838  0.00  0.00    +0.192 C 
ATOM     12  C   UNL     1      -8.317 -10.746  18.840  0.00  0.00    +0.130 C 
ATOM     13  C   UNL     1      -4.802 -10.985  18.383  0.00  0.00    +0.235 C 
ATOM     14  C   UNL     1      -8.055 -11.980  17.993  0.00  0.00    +0.185 C 
ATOM     15  C   UNL     1      -5.155 -11.639  19.700  0.00  0.00    +0.207 C 
ENDROOT
BRANCH  12   8
ATOM      4  O   UNL     1     -11.168 -10.429  18.984  0.00  0.00    -0.270 OA
ATOM      8  N   UNL     1      -9.114  -9.779  18.125  0.00  0.00    -0.304 N 
ATOM     16  C   UNL     1     -10.493  -9.702  18.260  0.00  0.00    +0.244 C 
ATOM     37  H   UNL     1      -8.639  -9.216  17.427  0.00  0.00    +0.149 HD
BRANCH  16  18
ATOM     18  C   UNL     1     -11.170  -8.669  17.435  0.00  0.00    +0.037 A 
ATOM     19  C   UNL     1     -10.482  -7.515  17.056  0.00  0.00    +0.016 A 
ATOM     20  C   UNL     1     -12.495  -8.851  17.039  0.00  0.00    +0.016 A 
ATOM     22  C   UNL     1     -11.119  -6.545  16.283  0.00  0.00    +0.046 A 
ATOM     23  C   UNL     1     -13.133  -7.881  16.265  0.00  0.00    +0.046 A 
ATOM     24  C   UNL     1     -12.444  -6.728  15.887  0.00  0.00    +0.120 A 
BRANCH  24   6
ATOM      6  O   UNL     1     -13.066  -5.780  15.134  0.00  0.00    -0.495 OA
ATOM     30  C   UNL     1     -12.347  -5.264  14.015  0.00  0.00    +0.277 C 
ENDBRANCH  24   6
ENDBRANCH  16  18
ENDBRANCH  12   8
BRANCH  13   3
ATOM      3  O   UNL     1      -4.075 -11.850  17.539  0.00  0.00    -0.442 OA
BRANCH   3  17
ATOM      5  O   UNL     1      -2.427 -10.663  16.489  0.00  0.00    -0.226 OA
ATOM      9  N   UNL     1      -4.251 -11.541  15.312  0.00  0.00    -0.251 N 
ATOM     17  C   UNL     1      -3.480 -11.285  16.430  0.00  0.00    +0.405 C 
ATOM     38  H   UNL     1      -5.100 -12.080  15.465  0.00  0.00    +0.158 HD
BRANCH   9  21
ATOM     21  C   UNL     1      -4.007 -11.144  13.978  0.00  0.00    +0.037 A 
ATOM     25  C   UNL     1      -2.837 -11.547  13.333  0.00  0.00    +0.027 A 
ATOM     26  C   UNL     1      -4.934 -10.349  13.305  0.00  0.00    +0.027 A 
ATOM     27  C   UNL     1      -2.596 -11.156  12.016  0.00  0.00    +0.048 A 
ATOM     28  C   UNL     1      -4.692  -9.956  11.988  0.00  0.00    +0.048 A 
ATOM     29  C   UNL     1      -3.524 -10.360  11.344  0.00  0.00    +0.129 A 
BRANCH  29   7
ATOM      7  O   UNL     1      -3.287  -9.976  10.060  0.00  0.00    -0.456 OA
BRANCH   7  31
ATOM     31  C   UNL     1      -4.175 -10.403   9.086  0.00  0.00    +0.128 A 
ATOM     32  C   UNL     1      -4.877  -9.468   8.325  0.00  0.00    +0.046 A 
ATOM     33  C   UNL     1      -4.367 -11.767   8.866  0.00  0.00    +0.046 A 
ATOM     34  C   UNL     1      -5.772  -9.897   7.345  0.00  0.00    +0.004 A 
ATOM     35  C   UNL     1      -5.262 -12.196   7.886  0.00  0.00    +0.004 A 
ATOM     36  C   UNL     1      -5.964 -11.261   7.125  0.00  0.00    +0.000 A 
ENDBRANCH   7  31
ENDBRANCH  29   7
ENDBRANCH   9  21
ENDBRANCH   3  17
ENDBRANCH  13   3
TORSDOF 8
ENDMDL
MODEL 3
REMARK VINA RESULT:      -7.4      2.571      5.179
REMARK  Name = 11884018
REMARK  9 active torsions:
REMARK  status: ('A' for Active; 'I' for Inactive)
REMARK    1  A    between atoms: O_3  and  C_13
REMARK    2  A    between atoms: O_3  and  C_17
REMARK    3  A    between atoms: O_6  and  C_24
REMARK    4  A    between atoms: O_6  and  C_30
REMARK    5  A    between atoms: O_7  and  C_29
REMARK    6  A    between atoms: O_7  and  C_31
REMARK    7  A    between atoms: N_8  and  C_12
REMARK    8  A    between atoms: N_9  and  C_21
REMARK    9  A    between atoms: C_16  and  C_18
REMARK                            x       y       z     vdW  Elec       q    Type
REMARK                         _______ _______ _______ _____ _____    ______ ____
ROOT
ATOM      1  O   UNL     1     -16.816   4.246  29.470  0.00  0.00    -0.368 OA
ATOM      2  O   UNL     1     -15.286   1.629  29.933  0.00  0.00    -0.368 OA
ATOM     10  C   UNL     1     -14.912   3.006  30.148  0.00  0.00    +0.173 C 
ATOM     11  C   UNL     1     -15.524   3.809  29.018  0.00  0.00    +0.192 C 
ATOM     12  C   UNL     1     -15.594   3.542  31.385  0.00  0.00    +0.130 C 
ATOM     13  C   UNL     1     -15.634   2.786  27.913  0.00  0.00    +0.235 C 
ATOM     14  C   UNL     1     -16.970   3.911  30.858  0.00  0.00    +0.185 C 
ATOM     15  C   UNL     1     -15.974   1.526  28.677  0.00  0.00    +0.207 C 
ENDROOT
BRANCH  12   8
ATOM      4  O   UNL     1     -15.118   4.156  34.149  0.00  0.00    -0.270 OA
ATOM      8  N   UNL     1     -14.903   4.697  31.904  0.00  0.00    -0.304 N 
ATOM     16  C   UNL     1     -14.722   4.909  33.263  0.00  0.00    +0.244 C 
ATOM     37  H   UNL     1     -14.642   5.416  31.238  0.00  0.00    +0.149 HD
BRANCH  16  18
ATOM     18  C   UNL     1     -14.013   6.160  33.638  0.00  0.00    +0.037 A 
ATOM     19  C   UNL     1     -13.692   6.408  34.972  0.00  0.00    +0.016 A 
ATOM     20  C   UNL     1     -13.669   7.087  32.654  0.00  0.00    +0.016 A 
ATOM     22  C   UNL     1     -13.028   7.583  35.323  0.00  0.00    +0.046 A 
ATOM     23  C   UNL     1     -13.004   8.262  33.004  0.00  0.00    +0.046 A 
ATOM     24  C   UNL     1     -12.683   8.509  34.340  0.00  0.00    +0.120 A 
BRANCH  24   6
ATOM      6  O   UNL     1     -12.036   9.658  34.683  0.00  0.00    -0.495 OA
ATOM     30  C   UNL     1     -10.657   9.547  35.030  0.00  0.00    +0.277 C 
ENDBRANCH  24   6
ENDBRANCH  16  18
ENDBRANCH  12   8
BRANCH  13   3
ATOM      3  O   UNL     1     -16.614   3.102  26.949  0.00  0.00    -0.442 OA
BRANCH   3  17
ATOM      5  O   UNL     1     -16.045   2.183  24.934  0.00  0.00    -0.226 OA
ATOM      9  N   UNL     1     -15.996   4.496  25.288  0.00  0.00    -0.251 N 
ATOM     17  C   UNL     1     -16.197   3.175  25.637  0.00  0.00    +0.405 C 
ATOM     38  H   UNL     1     -16.177   5.186  26.015  0.00  0.00    +0.158 HD
BRANCH   9  21
ATOM     21  C   UNL     1     -15.569   5.014  24.044  0.00  0.00    +0.037 A 
ATOM     25  C   UNL     1     -14.260   4.797  23.611  0.00  0.00    +0.027 A 
ATOM     26  C   UNL     1     -16.454   5.742  23.250  0.00  0.00    +0.027 A 
ATOM     27  C   UNL     1     -13.839   5.307  22.383  0.00  0.00    +0.048 A 
ATOM     28  C   UNL     1     -16.032   6.253  22.022  0.00  0.00    +0.048 A 
ATOM     29  C   UNL     1     -14.724   6.036  21.589  0.00  0.00    +0.129 A 
BRANCH  29   7
ATOM      7  O   UNL     1     -14.312   6.536  20.393  0.00  0.00    -0.456 OA
BRANCH   7  31
ATOM     31  C   UNL     1     -13.351   7.534  20.408  0.00  0.00    +0.128 A 
ATOM     32  C   UNL     1     -13.613   8.744  21.052  0.00  0.00    +0.046 A 
ATOM     33  C   UNL     1     -12.123   7.330  19.780  0.00  0.00    +0.046 A 
ATOM     34  C   UNL     1     -12.647   9.749  21.067  0.00  0.00    +0.004 A 
ATOM     35  C   UNL     1     -11.157   8.336  19.794  0.00  0.00    +0.004 A 
ATOM     36  C   UNL     1     -11.419   9.546  20.439  0.00  0.00    +0.000 A 
ENDBRANCH   7  31
ENDBRANCH  29   7
ENDBRANCH   9  21
ENDBRANCH   3  17
ENDBRANCH  13   3
TORSDOF 8
ENDMDL
MODEL 4
REMARK VINA RESULT:      -7.4     18.890     20.826
REMARK  Name = 11884018
REMARK  9 active torsions:
REMARK  status: ('A' for Active; 'I' for Inactive)
REMARK    1  A    between atoms: O_3  and  C_13
REMARK    2  A    between atoms: O_3  and  C_17
REMARK    3  A    between atoms: O_6  and  C_24
REMARK    4  A    between atoms: O_6  and  C_30
REMARK    5  A    between atoms: O_7  and  C_29
REMARK    6  A    between atoms: O_7  and  C_31
REMARK    7  A    between atoms: N_8  and  C_12
REMARK    8  A    between atoms: N_9  and  C_21
REMARK    9  A    between atoms: C_16  and  C_18
REMARK                            x       y       z     vdW  Elec       q    Type
REMARK                         _______ _______ _______ _____ _____    ______ ____
ROOT
ATOM      1  O   UNL     1      -3.936 -12.004  14.440  0.00  0.00    -0.368 OA
ATOM      2  O   UNL     1      -1.999 -10.915  16.553  0.00  0.00    -0.368 OA
ATOM     10  C   UNL     1      -3.356 -10.553  16.223  0.00  0.00    +0.173 C 
ATOM     11  C   UNL     1      -3.488 -10.667  14.718  0.00  0.00    +0.192 C 
ATOM     12  C   UNL     1      -4.314 -11.595  16.751  0.00  0.00    +0.130 C 
ATOM     13  C   UNL     1      -2.071 -10.443  14.247  0.00  0.00    +0.235 C 
ATOM     14  C   UNL     1      -4.251 -12.665  15.675  0.00  0.00    +0.185 C 
ATOM     15  C   UNL     1      -1.264 -11.115  15.336  0.00  0.00    +0.207 C 
ENDROOT
BRANCH  12   8
ATOM      4  O   UNL     1      -5.636 -10.862  19.193  0.00  0.00    -0.270 OA
ATOM      8  N   UNL     1      -5.648 -11.061  16.882  0.00  0.00    -0.304 N 
ATOM     16  C   UNL     1      -6.204 -10.735  18.111  0.00  0.00    +0.244 C 
ATOM     37  H   UNL     1      -6.216 -11.030  16.042  0.00  0.00    +0.149 HD
BRANCH  16  18
ATOM     18  C   UNL     1      -7.598 -10.221  18.078  0.00  0.00    +0.037 A 
ATOM     19  C   UNL     1      -8.580 -10.816  18.871  0.00  0.00    +0.016 A 
ATOM     20  C   UNL     1      -7.924  -9.144  17.255  0.00  0.00    +0.016 A 
ATOM     22  C   UNL     1      -9.888 -10.334  18.839  0.00  0.00    +0.046 A 
ATOM     23  C   UNL     1      -9.232  -8.661  17.223  0.00  0.00    +0.046 A 
ATOM     24  C   UNL     1     -10.214  -9.256  18.016  0.00  0.00    +0.120 A 
BRANCH  24   6
ATOM      6  O   UNL     1     -11.492  -8.787  17.983  0.00  0.00    -0.495 OA
ATOM     30  C   UNL     1     -12.072  -8.571  16.698  0.00  0.00    +0.277 C 
ENDBRANCH  24   6
ENDBRANCH  16  18
ENDBRANCH  12   8
BRANCH  13   3
ATOM      3  O   UNL     1      -1.807 -10.991  12.975  0.00  0.00    -0.442 OA
BRANCH   3  17
ATOM      5  O   UNL     1      -1.561  -9.536  11.229  0.00  0.00    -0.226 OA
ATOM      9  N   UNL     1      -3.607 -10.576  11.684  0.00  0.00    -0.251 N 
ATOM     17  C   UNL     1      -2.271 -10.288  11.885  0.00  0.00    +0.405 C 
ATOM     38  H   UNL     1      -4.029 -11.232  12.338  0.00  0.00    +0.158 HD
BRANCH   9  21
ATOM     21  C   UNL     1      -4.466 -10.072  10.680  0.00  0.00    +0.037 A 
ATOM     25  C   UNL     1      -4.822 -10.877   9.598  0.00  0.00    +0.027 A 
ATOM     26  C   UNL     1      -4.957  -8.771  10.771  0.00  0.00    +0.027 A 
ATOM     27  C   UNL     1      -5.669 -10.380   8.607  0.00  0.00    +0.048 A 
ATOM     28  C   UNL     1      -5.804  -8.273   9.780  0.00  0.00    +0.048 A 
ATOM     29  C   UNL     1      -6.159  -9.078   8.698  0.00  0.00    +0.129 A 
BRANCH  29   7
ATOM      7  O   UNL     1      -6.983  -8.592   7.731  0.00  0.00    -0.456 OA
BRANCH   7  31
ATOM     31  C   UNL     1      -8.071  -7.834   8.132  0.00  0.00    +0.128 A 
ATOM     32  C   UNL     1      -9.157  -8.449   8.759  0.00  0.00    +0.046 A 
ATOM     33  C   UNL     1      -8.083  -6.458   7.909  0.00  0.00    +0.046 A 
ATOM     34  C   UNL     1     -10.252  -7.686   9.162  0.00  0.00    +0.004 A 
ATOM     35  C   UNL     1      -9.180  -5.695   8.312  0.00  0.00    +0.004 A 
ATOM     36  C   UNL     1     -10.264  -6.310   8.939  0.00  0.00    +0.000 A 
ENDBRANCH   7  31
ENDBRANCH  29   7
ENDBRANCH   9  21
ENDBRANCH   3  17
ENDBRANCH  13   3
TORSDOF 8
ENDMDL
MODEL 5
REMARK VINA RESULT:      -7.3     18.315     20.592
REMARK  Name = 11884018
REMARK  9 active torsions:
REMARK  status: ('A' for Active; 'I' for Inactive)
REMARK    1  A    between atoms: O_3  and  C_13
REMARK    2  A    between atoms: O_3  and  C_17
REMARK    3  A    between atoms: O_6  and  C_24
REMARK    4  A    between atoms: O_6  and  C_30
REMARK    5  A    between atoms: O_7  and  C_29
REMARK    6  A    between atoms: O_7  and  C_31
REMARK    7  A    between atoms: N_8  and  C_12
REMARK    8  A    between atoms: N_9  and  C_21
REMARK    9  A    between atoms: C_16  and  C_18
REMARK                            x       y       z     vdW  Elec       q    Type
REMARK                         _______ _______ _______ _____ _____    ______ ____
ROOT
ATOM      1  O   UNL     1      -5.771 -11.200  10.452  0.00  0.00    -0.368 OA
ATOM      2  O   UNL     1      -3.429  -9.262  10.048  0.00  0.00    -0.368 OA
ATOM     10  C   UNL     1      -4.319  -9.467  11.165  0.00  0.00    +0.173 C 
ATOM     11  C   UNL     1      -5.686  -9.772  10.588  0.00  0.00    +0.192 C 
ATOM     12  C   UNL     1      -3.945 -10.732  11.901  0.00  0.00    +0.130 C 
ATOM     13  C   UNL     1      -5.634  -9.084   9.245  0.00  0.00    +0.235 C 
ATOM     14  C   UNL     1      -4.619 -11.804  11.061  0.00  0.00    +0.185 C 
ATOM     15  C   UNL     1      -4.194  -9.295   8.833  0.00  0.00    +0.207 C 
ENDROOT
BRANCH  12   8
ATOM      4  O   UNL     1      -2.413 -10.455  14.314  0.00  0.00    -0.270 OA
ATOM      8  N   UNL     1      -4.456 -10.723  13.250  0.00  0.00    -0.304 N 
ATOM     16  C   UNL     1      -3.634 -10.583  14.359  0.00  0.00    +0.244 C 
ATOM     37  H   UNL     1      -5.442 -10.932  13.371  0.00  0.00    +0.149 HD
BRANCH  16  18
ATOM     18  C   UNL     1      -4.312 -10.621  15.680  0.00  0.00    +0.037 A 
ATOM     19  C   UNL     1      -5.533  -9.968  15.857  0.00  0.00    +0.016 A 
ATOM     20  C   UNL     1      -3.728 -11.307  16.745  0.00  0.00    +0.016 A 
ATOM     22  C   UNL     1      -6.168 -10.002  17.098  0.00  0.00    +0.046 A 
ATOM     23  C   UNL     1      -4.363 -11.342  17.986  0.00  0.00    +0.046 A 
ATOM     24  C   UNL     1      -5.584 -10.690  18.162  0.00  0.00    +0.120 A 
BRANCH  24   6
ATOM      6  O   UNL     1      -6.204 -10.721  19.374  0.00  0.00    -0.495 OA
ATOM     30  C   UNL     1      -6.843 -11.941  19.745  0.00  0.00    +0.277 C 
ENDBRANCH  24   6
ENDBRANCH  16  18
ENDBRANCH  12   8
BRANCH  13   3
ATOM      3  O   UNL     1      -6.538  -9.619   8.303  0.00  0.00    -0.442 OA
BRANCH   3  17
ATOM      5  O   UNL     1      -7.817  -8.688   6.653  0.00  0.00    -0.226 OA
ATOM      9  N   UNL     1      -8.088  -8.095   8.901  0.00  0.00    -0.251 N 
ATOM     17  C   UNL     1      -7.525  -8.776   7.839  0.00  0.00    +0.405 C 
ATOM     38  H   UNL     1      -7.709  -8.305   9.822  0.00  0.00    +0.158 HD
BRANCH   9  21
ATOM     21  C   UNL     1      -9.127  -7.137   8.869  0.00  0.00    +0.037 A 
ATOM     25  C   UNL     1      -8.861  -5.832   8.451  0.00  0.00    +0.027 A 
ATOM     26  C   UNL     1     -10.419  -7.495   9.255  0.00  0.00    +0.027 A 
ATOM     27  C   UNL     1      -9.887  -4.888   8.419  0.00  0.00    +0.048 A 
ATOM     28  C   UNL     1     -11.444  -6.550   9.224  0.00  0.00    +0.048 A 
ATOM     29  C   UNL     1     -11.178  -5.246   8.806  0.00  0.00    +0.129 A 
BRANCH  29   7
ATOM      7  O   UNL     1     -12.178  -4.324   8.778  0.00  0.00    -0.456 OA
BRANCH   7  31
ATOM     31  C   UNL     1     -12.828  -4.041   9.968  0.00  0.00    +0.128 A 
ATOM     32  C   UNL     1     -12.093  -3.648  11.087  0.00  0.00    +0.046 A 
ATOM     33  C   UNL     1     -14.216  -4.151  10.048  0.00  0.00    +0.046 A 
ATOM     34  C   UNL     1     -12.747  -3.364  12.286  0.00  0.00    +0.004 A 
ATOM     35  C   UNL     1     -14.869  -3.867  11.248  0.00  0.00    +0.004 A 
ATOM     36  C   UNL     1     -14.135  -3.473  12.366  0.00  0.00    +0.000 A 
ENDBRANCH   7  31
ENDBRANCH  29   7
ENDBRANCH   9  21
ENDBRANCH   3  17
ENDBRANCH  13   3
TORSDOF 8
ENDMDL
MODEL 6
REMARK VINA RESULT:      -7.2     18.188     20.237
REMARK  Name = 11884018
REMARK  9 active torsions:
REMARK  status: ('A' for Active; 'I' for Inactive)
REMARK    1  A    between atoms: O_3  and  C_13
REMARK    2  A    between atoms: O_3  and  C_17
REMARK    3  A    between atoms: O_6  and  C_24
REMARK    4  A    between atoms: O_6  and  C_30
REMARK    5  A    between atoms: O_7  and  C_29
REMARK    6  A    between atoms: O_7  and  C_31
REMARK    7  A    between atoms: N_8  and  C_12
REMARK    8  A    between atoms: N_9  and  C_21
REMARK    9  A    between atoms: C_16  and  C_18
REMARK                            x       y       z     vdW  Elec       q    Type
REMARK                         _______ _______ _______ _____ _____    ______ ____
ROOT
ATOM      1  O   UNL     1      -8.270 -12.259  17.169  0.00  0.00    -0.368 OA
ATOM      2  O   UNL     1      -8.999 -11.949  20.132  0.00  0.00    -0.368 OA
ATOM     10  C   UNL     1      -9.031 -11.011  19.036  0.00  0.00    +0.173 C 
ATOM     11  C   UNL     1      -7.832 -11.316  18.161  0.00  0.00    +0.192 C 
ATOM     12  C   UNL     1     -10.214 -11.297  18.142  0.00  0.00    +0.130 C 
ATOM     13  C   UNL     1      -6.865 -11.940  19.138  0.00  0.00    +0.235 C 
ATOM     14  C   UNL     1      -9.692 -12.426  17.269  0.00  0.00    +0.185 C 
ATOM     15  C   UNL     1      -7.789 -12.717  20.049  0.00  0.00    +0.207 C 
ENDROOT
BRANCH  12   8
ATOM      4  O   UNL     1     -12.139  -9.277  18.819  0.00  0.00    -0.270 OA
ATOM      8  N   UNL     1     -10.565 -10.143  17.352  0.00  0.00    -0.304 N 
ATOM     16  C   UNL     1     -11.513  -9.216  17.764  0.00  0.00    +0.244 C 
ATOM     37  H   UNL     1     -10.168 -10.083  16.420  0.00  0.00    +0.149 HD
BRANCH  16  18
ATOM     18  C   UNL     1     -11.779  -8.097  16.825  0.00  0.00    +0.037 A 
ATOM     19  C   UNL     1     -10.882  -7.032  16.734  0.00  0.00    +0.016 A 
ATOM     20  C   UNL     1     -12.928  -8.109  16.034  0.00  0.00    +0.016 A 
ATOM     22  C   UNL     1     -11.133  -5.981  15.853  0.00  0.00    +0.046 A 
ATOM     23  C   UNL     1     -13.180  -7.058  15.152  0.00  0.00    +0.046 A 
ATOM     24  C   UNL     1     -12.282  -5.994  15.061  0.00  0.00    +0.120 A 
BRANCH  24   6
ATOM      6  O   UNL     1     -12.528  -4.966  14.203  0.00  0.00    -0.495 OA
ATOM     30  C   UNL     1     -12.439  -5.249  12.808  0.00  0.00    +0.277 C 
ENDBRANCH  24   6
ENDBRANCH  16  18
ENDBRANCH  12   8
BRANCH  13   3
ATOM      3  O   UNL     1      -5.902 -12.770  18.526  0.00  0.00    -0.442 OA
BRANCH   3  17
ATOM      5  O   UNL     1      -4.141 -11.373  18.106  0.00  0.00    -0.226 OA
ATOM      9  N   UNL     1      -5.199 -12.569  16.394  0.00  0.00    -0.251 N 
ATOM     17  C   UNL     1      -4.989 -12.156  17.695  0.00  0.00    +0.405 C 
ATOM     38  H   UNL     1      -5.958 -13.230  16.248  0.00  0.00    +0.158 HD
BRANCH   9  21
ATOM     21  C   UNL     1      -4.489 -12.185  15.233  0.00  0.00    +0.037 A 
ATOM     25  C   UNL     1      -4.762 -10.961  14.621  0.00  0.00    +0.027 A 
ATOM     26  C   UNL     1      -3.516 -13.029  14.699  0.00  0.00    +0.027 A 
ATOM     27  C   UNL     1      -4.061 -10.581  13.477  0.00  0.00    +0.048 A 
ATOM     28  C   UNL     1      -2.816 -12.650  13.553  0.00  0.00    +0.048 A 
ATOM     29  C   UNL     1      -3.089 -11.427  12.942  0.00  0.00    +0.129 A 
BRANCH  29   7
ATOM      7  O   UNL     1      -2.407 -11.058  11.823  0.00  0.00    -0.456 OA
BRANCH   7  31
ATOM     31  C   UNL     1      -3.146 -10.664  10.719  0.00  0.00    +0.128 A 
ATOM     32  C   UNL     1      -3.861 -11.611   9.985  0.00  0.00    +0.046 A 
ATOM     33  C   UNL     1      -3.174  -9.322  10.341  0.00  0.00    +0.046 A 
ATOM     34  C   UNL     1      -4.604 -11.215   8.873  0.00  0.00    +0.004 A 
ATOM     35  C   UNL     1      -3.917  -8.927   9.228  0.00  0.00    +0.004 A 
ATOM     36  C   UNL     1      -4.632  -9.873   8.495  0.00  0.00    +0.000 A 
ENDBRANCH   7  31
ENDBRANCH  29   7
ENDBRANCH   9  21
ENDBRANCH   3  17
ENDBRANCH  13   3
TORSDOF 8
ENDMDL
MODEL 7
REMARK VINA RESULT:      -7.0     20.347     22.261
REMARK  Name = 11884018
REMARK  9 active torsions:
REMARK  status: ('A' for Active; 'I' for Inactive)
REMARK    1  A    between atoms: O_3  and  C_13
REMARK    2  A    between atoms: O_3  and  C_17
REMARK    3  A    between atoms: O_6  and  C_24
REMARK    4  A    between atoms: O_6  and  C_30
REMARK    5  A    between atoms: O_7  and  C_29
REMARK    6  A    between atoms: O_7  and  C_31
REMARK    7  A    between atoms: N_8  and  C_12
REMARK    8  A    between atoms: N_9  and  C_21
REMARK    9  A    between atoms: C_16  and  C_18
REMARK                            x       y       z     vdW  Elec       q    Type
REMARK                         _______ _______ _______ _____ _____    ______ ____
ROOT
ATOM      1  O   UNL     1      -3.808 -12.127  14.692  0.00  0.00    -0.368 OA
ATOM      2  O   UNL     1      -1.927 -10.750  16.685  0.00  0.00    -0.368 OA
ATOM     10  C   UNL     1      -3.279 -10.449  16.281  0.00  0.00    +0.173 C 
ATOM     11  C   UNL     1      -3.376 -10.761  14.801  0.00  0.00    +0.192 C 
ATOM     12  C   UNL     1      -4.242 -11.421  16.921  0.00  0.00    +0.130 C 
ATOM     13  C   UNL     1      -1.950 -10.586  14.337  0.00  0.00    +0.235 C 
ATOM     14  C   UNL     1      -4.145 -12.624  15.996  0.00  0.00    +0.185 C 
ATOM     15  C   UNL     1      -1.163 -11.101  15.522  0.00  0.00    +0.207 C 
ENDROOT
BRANCH  12   8
ATOM      4  O   UNL     1      -5.804 -10.842  19.259  0.00  0.00    -0.270 OA
ATOM      8  N   UNL     1      -5.582 -10.889  16.951  0.00  0.00    -0.304 N 
ATOM     16  C   UNL     1      -6.259 -10.640  18.136  0.00  0.00    +0.244 C 
ATOM     37  H   UNL     1      -6.062 -10.798  16.062  0.00  0.00    +0.149 HD
BRANCH  16  18
ATOM     18  C   UNL     1      -7.643 -10.116  17.997  0.00  0.00    +0.037 A 
ATOM     19  C   UNL     1      -8.674 -10.652  18.769  0.00  0.00    +0.016 A 
ATOM     20  C   UNL     1      -7.911  -9.088  17.093  0.00  0.00    +0.016 A 
ATOM     22  C   UNL     1      -9.972 -10.161  18.637  0.00  0.00    +0.046 A 
ATOM     23  C   UNL     1      -9.209  -8.595  16.961  0.00  0.00    +0.046 A 
ATOM     24  C   UNL     1     -10.240  -9.132  17.734  0.00  0.00    +0.120 A 
BRANCH  24   6
ATOM      6  O   UNL     1     -11.508  -8.653  17.603  0.00  0.00    -0.495 OA
ATOM     30  C   UNL     1     -11.914  -8.237  16.301  0.00  0.00    +0.277 C 
ENDBRANCH  24   6
ENDBRANCH  16  18
ENDBRANCH  12   8
BRANCH  13   3
ATOM      3  O   UNL     1      -1.652 -11.294  13.154  0.00  0.00    -0.442 OA
BRANCH   3  17
ATOM      5  O   UNL     1      -1.338  -9.780  11.470  0.00  0.00    -0.226 OA
ATOM      9  N   UNL     1      -3.143 -11.271  11.464  0.00  0.00    -0.251 N 
ATOM     17  C   UNL     1      -1.994 -10.690  11.963  0.00  0.00    +0.405 C 
ATOM     38  H   UNL     1      -3.547 -12.020  12.020  0.00  0.00    +0.158 HD
BRANCH   9  21
ATOM     21  C   UNL     1      -3.832 -10.952  10.271  0.00  0.00    +0.037 A 
ATOM     25  C   UNL     1      -4.513 -11.949   9.571  0.00  0.00    +0.027 A 
ATOM     26  C   UNL     1      -3.832  -9.642   9.793  0.00  0.00    +0.027 A 
ATOM     27  C   UNL     1      -5.193 -11.635   8.395  0.00  0.00    +0.048 A 
ATOM     28  C   UNL     1      -4.511  -9.328   8.616  0.00  0.00    +0.048 A 
ATOM     29  C   UNL     1      -5.192 -10.325   7.916  0.00  0.00    +0.129 A 
BRANCH  29   7
ATOM      7  O   UNL     1      -5.853 -10.019   6.767  0.00  0.00    -0.456 OA
BRANCH   7  31
ATOM     31  C   UNL     1      -5.659 -10.846   5.673  0.00  0.00    +0.128 A 
ATOM     32  C   UNL     1      -4.465 -11.555   5.537  0.00  0.00    +0.046 A 
ATOM     33  C   UNL     1      -6.657 -10.971   4.707  0.00  0.00    +0.046 A 
ATOM     34  C   UNL     1      -4.269 -12.387   4.435  0.00  0.00    +0.004 A 
ATOM     35  C   UNL     1      -6.462 -11.803   3.605  0.00  0.00    +0.004 A 
ATOM     36  C   UNL     1      -5.267 -12.512   3.470  0.00  0.00    +0.000 A 
ENDBRANCH   7  31
ENDBRANCH  29   7
ENDBRANCH   9  21
ENDBRANCH   3  17
ENDBRANCH  13   3
TORSDOF 8
ENDMDL
MODEL 8
REMARK VINA RESULT:      -6.9     28.702     31.395
REMARK  Name = 11884018
REMARK  9 active torsions:
REMARK  status: ('A' for Active; 'I' for Inactive)
REMARK    1  A    between atoms: O_3  and  C_13
REMARK    2  A    between atoms: O_3  and  C_17
REMARK    3  A    between atoms: O_6  and  C_24
REMARK    4  A    between atoms: O_6  and  C_30
REMARK    5  A    between atoms: O_7  and  C_29
REMARK    6  A    between atoms: O_7  and  C_31
REMARK    7  A    between atoms: N_8  and  C_12
REMARK    8  A    between atoms: N_9  and  C_21
REMARK    9  A    between atoms: C_16  and  C_18
REMARK                            x       y       z     vdW  Elec       q    Type
REMARK                         _______ _______ _______ _____ _____    ______ ____
ROOT
ATOM      1  O   UNL     1       7.300  10.116   2.068  0.00  0.00    -0.368 OA
ATOM      2  O   UNL     1       5.219  11.729   3.640  0.00  0.00    -0.368 OA
ATOM     10  C   UNL     1       5.769  10.413   3.853  0.00  0.00    +0.173 C 
ATOM     11  C   UNL     1       5.964   9.791   2.486  0.00  0.00    +0.192 C 
ATOM     12  C   UNL     1       7.170  10.518   4.408  0.00  0.00    +0.130 C 
ATOM     13  C   UNL     1       4.928  10.504   1.651  0.00  0.00    +0.235 C 
ATOM     14  C   UNL     1       7.995  10.749   3.153  0.00  0.00    +0.185 C 
ATOM     15  C   UNL     1       4.948  11.897   2.240  0.00  0.00    +0.207 C 
ENDROOT
BRANCH  12   8
ATOM      4  O   UNL     1       9.372  10.191   6.221  0.00  0.00    -0.270 OA
ATOM      8  N   UNL     1       7.561   9.302   5.076  0.00  0.00    -0.304 N 
ATOM     16  C   UNL     1       8.646   9.241   5.940  0.00  0.00    +0.244 C 
ATOM     37  H   UNL     1       7.075   8.452   4.810  0.00  0.00    +0.149 HD
BRANCH  16  18
ATOM     18  C   UNL     1       8.935   7.908   6.529  0.00  0.00    +0.037 A 
ATOM     19  C   UNL     1       9.250   6.831   5.699  0.00  0.00    +0.016 A 
ATOM     20  C   UNL     1       8.890   7.732   7.912  0.00  0.00    +0.016 A 
ATOM     22  C   UNL     1       9.519   5.580   6.252  0.00  0.00    +0.046 A 
ATOM     23  C   UNL     1       9.160   6.481   8.465  0.00  0.00    +0.046 A 
ATOM     24  C   UNL     1       9.475   5.405   7.635  0.00  0.00    +0.120 A 
BRANCH  24   6
ATOM      6  O   UNL     1       9.736   4.182   8.175  0.00  0.00    -0.495 OA
ATOM     30  C   UNL     1       9.479   4.019   9.568  0.00  0.00    +0.277 C 
ENDBRANCH  24   6
ENDBRANCH  16  18
ENDBRANCH  12   8
BRANCH  13   3
ATOM      3  O   UNL     1       5.220  10.507   0.272  0.00  0.00    -0.442 OA
BRANCH   3  17
ATOM      5  O   UNL     1       3.182   9.655  -0.319  0.00  0.00    -0.226 OA
ATOM      9  N   UNL     1       5.099   9.259  -1.602  0.00  0.00    -0.251 N 
ATOM     17  C   UNL     1       4.379   9.781  -0.545  0.00  0.00    +0.405 C 
ATOM     38  H   UNL     1       6.093   9.476  -1.620  0.00  0.00    +0.158 HD
BRANCH   9  21
ATOM     21  C   UNL     1       4.627   8.457  -2.666  0.00  0.00    +0.037 A 
ATOM     25  C   UNL     1       3.841   9.022  -3.670  0.00  0.00    +0.027 A 
ATOM     26  C   UNL     1       4.945   7.100  -2.711  0.00  0.00    +0.027 A 
ATOM     27  C   UNL     1       3.374   8.231  -4.720  0.00  0.00    +0.048 A 
ATOM     28  C   UNL     1       4.478   6.308  -3.761  0.00  0.00    +0.048 A 
ATOM     29  C   UNL     1       3.692   6.873  -4.765  0.00  0.00    +0.129 A 
BRANCH  29   7
ATOM      7  O   UNL     1       3.235   6.101  -5.787  0.00  0.00    -0.456 OA
BRANCH   7  31
ATOM     31  C   UNL     1       2.563   4.934  -5.462  0.00  0.00    +0.128 A 
ATOM     32  C   UNL     1       1.402   4.990  -4.690  0.00  0.00    +0.046 A 
ATOM     33  C   UNL     1       3.046   3.703  -5.905  0.00  0.00    +0.046 A 
ATOM     34  C   UNL     1       0.725   3.816  -4.362  0.00  0.00    +0.004 A 
ATOM     35  C   UNL     1       2.368   2.529  -5.577  0.00  0.00    +0.004 A 
ATOM     36  C   UNL     1       1.208   2.586  -4.805  0.00  0.00    +0.000 A 
ENDBRANCH   7  31
ENDBRANCH  29   7
ENDBRANCH   9  21
ENDBRANCH   3  17
ENDBRANCH  13   3
TORSDOF 8
ENDMDL
MODEL 9
REMARK VINA RESULT:      -6.9      4.155      8.482
REMARK  Name = 11884018
REMARK  9 active torsions:
REMARK  status: ('A' for Active; 'I' for Inactive)
REMARK    1  A    between atoms: O_3  and  C_13
REMARK    2  A    between atoms: O_3  and  C_17
REMARK    3  A    between atoms: O_6  and  C_24
REMARK    4  A    between atoms: O_6  and  C_30
REMARK    5  A    between atoms: O_7  and  C_29
REMARK    6  A    between atoms: O_7  and  C_31
REMARK    7  A    between atoms: N_8  and  C_12
REMARK    8  A    between atoms: N_9  and  C_21
REMARK    9  A    between atoms: C_16  and  C_18
REMARK                            x       y       z     vdW  Elec       q    Type
REMARK                         _______ _______ _______ _____ _____    ______ ____
ROOT
ATOM      1  O   UNL     1     -16.012   3.463  31.599  0.00  0.00    -0.368 OA
ATOM      2  O   UNL     1     -14.173   2.468  33.842  0.00  0.00    -0.368 OA
ATOM     10  C   UNL     1     -13.983   3.474  32.826  0.00  0.00    +0.173 C 
ATOM     11  C   UNL     1     -14.664   2.966  31.571  0.00  0.00    +0.192 C 
ATOM     12  C   UNL     1     -14.758   4.722  33.179  0.00  0.00    +0.130 C 
ATOM     13  C   UNL     1     -14.617   1.469  31.758  0.00  0.00    +0.235 C 
ATOM     14  C   UNL     1     -16.157   4.379  32.696  0.00  0.00    +0.185 C 
ATOM     15  C   UNL     1     -14.811   1.326  33.251  0.00  0.00    +0.207 C 
ENDROOT
BRANCH  12   8
ATOM      4  O   UNL     1     -13.522   7.019  34.380  0.00  0.00    -0.270 OA
ATOM      8  N   UNL     1     -14.233   5.876  32.491  0.00  0.00    -0.304 N 
ATOM     16  C   UNL     1     -13.651   6.943  33.161  0.00  0.00    +0.244 C 
ATOM     37  H   UNL     1     -14.401   5.934  31.492  0.00  0.00    +0.149 HD
BRANCH  16  18
ATOM     18  C   UNL     1     -13.183   8.068  32.311  0.00  0.00    +0.037 A 
ATOM     19  C   UNL     1     -11.818   8.321  32.176  0.00  0.00    +0.016 A 
ATOM     20  C   UNL     1     -14.110   8.872  31.647  0.00  0.00    +0.016 A 
ATOM     22  C   UNL     1     -11.379   9.378  31.379  0.00  0.00    +0.046 A 
ATOM     23  C   UNL     1     -13.672   9.929  30.848  0.00  0.00    +0.046 A 
ATOM     24  C   UNL     1     -12.306  10.181  30.714  0.00  0.00    +0.120 A 
BRANCH  24   6
ATOM      6  O   UNL     1     -11.877  11.214  29.938  0.00  0.00    -0.495 OA
ATOM     30  C   UNL     1     -11.261  12.314  30.603  0.00  0.00    +0.277 C 
ENDBRANCH  24   6
ENDBRANCH  16  18
ENDBRANCH  12   8
BRANCH  13   3
ATOM      3  O   UNL     1     -15.605   0.778  31.026  0.00  0.00    -0.442 OA
BRANCH   3  17
ATOM      5  O   UNL     1     -14.727  -0.034  29.076  0.00  0.00    -0.226 OA
ATOM      9  N   UNL     1     -16.261   1.735  29.093  0.00  0.00    -0.251 N 
ATOM     17  C   UNL     1     -15.463   0.757  29.654  0.00  0.00    +0.405 C 
ATOM     38  H   UNL     1     -16.806   2.298  29.741  0.00  0.00    +0.158 HD
BRANCH   9  21
ATOM     21  C   UNL     1     -16.413   2.054  27.724  0.00  0.00    +0.037 A 
ATOM     25  C   UNL     1     -16.277   3.375  27.296  0.00  0.00    +0.027 A 
ATOM     26  C   UNL     1     -16.701   1.049  26.801  0.00  0.00    +0.027 A 
ATOM     27  C   UNL     1     -16.428   3.690  25.946  0.00  0.00    +0.048 A 
ATOM     28  C   UNL     1     -16.853   1.364  25.450  0.00  0.00    +0.048 A 
ATOM     29  C   UNL     1     -16.717   2.685  25.023  0.00  0.00    +0.129 A 
BRANCH  29   7
ATOM      7  O   UNL     1     -16.867   2.992  23.706  0.00  0.00    -0.456 OA
BRANCH   7  31
ATOM     31  C   UNL     1     -16.123   4.047  23.202  0.00  0.00    +0.128 A 
ATOM     32  C   UNL     1     -14.758   4.132  23.478  0.00  0.00    +0.046 A 
ATOM     33  C   UNL     1     -16.738   5.024  22.420  0.00  0.00    +0.046 A 
ATOM     34  C   UNL     1     -14.009   5.194  22.972  0.00  0.00    +0.004 A 
ATOM     35  C   UNL     1     -15.989   6.086  21.914  0.00  0.00    +0.004 A 
ATOM     36  C   UNL     1     -14.624   6.171  22.190  0.00  0.00    +0.000 A 
ENDBRANCH   7  31
ENDBRANCH  29   7
ENDBRANCH   9  21
ENDBRANCH   3  17
ENDBRANCH  13   3
TORSDOF 8
ENDMDL
MODEL 10
REMARK VINA RESULT:      -6.8     17.572     20.541
REMARK  Name = 11884018
REMARK  9 active torsions:
REMARK  status: ('A' for Active; 'I' for Inactive)
REMARK    1  A    between atoms: O_3  and  C_13
REMARK    2  A    between atoms: O_3  and  C_17
REMARK    3  A    between atoms: O_6  and  C_24
REMARK    4  A    between atoms: O_6  and  C_30
REMARK    5  A    between atoms: O_7  and  C_29
REMARK    6  A    between atoms: O_7  and  C_31
REMARK    7  A    between atoms: N_8  and  C_12
REMARK    8  A    between atoms: N_9  and  C_21
REMARK    9  A    between atoms: C_16  and  C_18
REMARK                            x       y       z     vdW  Elec       q    Type
REMARK                         _______ _______ _______ _____ _____    ______ ____
ROOT
ATOM      1  O   UNL     1      -6.480  -9.587  16.610  0.00  0.00    -0.368 OA
ATOM      2  O   UNL     1      -5.719 -12.324  17.766  0.00  0.00    -0.368 OA
ATOM     10  C   UNL     1      -6.015 -11.904  16.418  0.00  0.00    +0.173 C 
ATOM     11  C   UNL     1      -7.119 -10.871  16.511  0.00  0.00    +0.192 C 
ATOM     12  C   UNL     1      -4.846 -11.137  15.846  0.00  0.00    +0.130 C 
ATOM     13  C   UNL     1      -7.814 -11.250  17.796  0.00  0.00    +0.235 C 
ATOM     14  C   UNL     1      -5.066  -9.745  16.415  0.00  0.00    +0.185 C 
ATOM     15  C   UNL     1      -6.660 -11.709  18.660  0.00  0.00    +0.207 C 
ENDROOT
BRANCH  12   8
ATOM      4  O   UNL     1      -2.643 -10.621  14.078  0.00  0.00    -0.270 OA
ATOM      8  N   UNL     1      -4.884 -11.125  14.404  0.00  0.00    -0.304 N 
ATOM     16  C   UNL     1      -3.761 -10.864  13.630  0.00  0.00    +0.244 C 
ATOM     37  H   UNL     1      -5.794 -11.211  13.965  0.00  0.00    +0.149 HD
BRANCH  16  18
ATOM     18  C   UNL     1      -3.971 -10.864  12.160  0.00  0.00    +0.037 A 
ATOM     19  C   UNL     1      -4.557  -9.760  11.538  0.00  0.00    +0.016 A 
ATOM     20  C   UNL     1      -3.582 -11.967  11.400  0.00  0.00    +0.016 A 
ATOM     22  C   UNL     1      -4.754  -9.761  10.157  0.00  0.00    +0.046 A 
ATOM     23  C   UNL     1      -3.779 -11.968  10.019  0.00  0.00    +0.046 A 
ATOM     24  C   UNL     1      -4.364 -10.864   9.398  0.00  0.00    +0.120 A 
BRANCH  24   6
ATOM      6  O   UNL     1      -4.559 -10.865   8.050  0.00  0.00    -0.495 OA
ATOM     30  C   UNL     1      -5.378  -9.829   7.512  0.00  0.00    +0.277 C 
ENDBRANCH  24   6
ENDBRANCH  16  18
ENDBRANCH  12   8
BRANCH  13   3
ATOM      3  O   UNL     1      -8.528 -10.187  18.386  0.00  0.00    -0.442 OA
BRANCH   3  17
ATOM      5  O   UNL     1     -10.766 -10.442  17.995  0.00  0.00    -0.226 OA
ATOM      9  N   UNL     1      -9.528  -8.731  16.985  0.00  0.00    -0.251 N 
ATOM     17  C   UNL     1      -9.722  -9.834  17.794  0.00  0.00    +0.405 C 
ATOM     38  H   UNL     1      -8.581  -8.362  16.947  0.00  0.00    +0.158 HD
BRANCH   9  21
ATOM     21  C   UNL     1     -10.484  -8.049  16.198  0.00  0.00    +0.037 A 
ATOM     25  C   UNL     1     -10.772  -6.708  16.456  0.00  0.00    +0.027 A 
ATOM     26  C   UNL     1     -11.142  -8.716  15.165  0.00  0.00    +0.027 A 
ATOM     27  C   UNL     1     -11.715  -6.036  15.680  0.00  0.00    +0.048 A 
ATOM     28  C   UNL     1     -12.087  -8.044  14.390  0.00  0.00    +0.048 A 
ATOM     29  C   UNL     1     -12.373  -6.703  14.647  0.00  0.00    +0.129 A 
BRANCH  29   7
ATOM      7  O   UNL     1     -13.296  -6.048  13.892  0.00  0.00    -0.456 OA
BRANCH   7  31
ATOM     31  C   UNL     1     -12.840  -5.322  12.804  0.00  0.00    +0.128 A 
ATOM     32  C   UNL     1     -12.559  -5.972  11.601  0.00  0.00    +0.046 A 
ATOM     33  C   UNL     1     -12.660  -3.944  12.909  0.00  0.00    +0.046 A 
ATOM     34  C   UNL     1     -12.099  -5.243  10.505  0.00  0.00    +0.004 A 
ATOM     35  C   UNL     1     -12.200  -3.214  11.813  0.00  0.00    +0.004 A 
ATOM     36  C   UNL     1     -11.920  -3.864  10.611  0.00  0.00    +0.000 A 
ENDBRANCH   7  31
ENDBRANCH  29   7
ENDBRANCH   9  21
ENDBRANCH   3  17
ENDBRANCH  13   3
TORSDOF 8
ENDMDL
