REMARK  Name = 40780411
REMARK  9 active torsions:
REMARK  status: ('A' for Active; 'I' for Inactive)
REMARK    1  A    between atoms: O_2  and  C_25
REMARK    2  A    between atoms: O_2  and  C_29
REMARK    3  A    between atoms: N_3  and  C_8
REMARK    4  A    between atoms: N_3  and  C_14
REMARK    5  A    between atoms: N_4  and  C_17
REMARK    6  A    between atoms: C_6  and  C_9
REMARK    7  A    between atoms: C_12  and  C_15
REMARK    8  A    between atoms: C_13  and  C_16
REMARK    9  A    between atoms: C_14  and  C_18
REMARK                            x       y       z     vdW  Elec       q    Type
REMARK                         _______ _______ _______ _____ _____    ______ ____
ROOT
ATOM      6  C   UNL     1      -0.425  -0.763  -0.278  0.00  0.00    +0.047 C 
ATOM      7  C   UNL     1      -1.036   0.281   0.677  0.00  0.00    +0.035 C 
ATOM      8  C   UNL     1      -2.124   1.013  -0.127  0.00  0.00    +0.078 C 
ATOM     10  C   UNL     1      -0.771  -0.200  -1.626  0.00  0.00    -0.021 C 
ATOM     11  C   UNL     1      -1.700   0.758  -1.539  0.00  0.00    -0.012 C 
ENDROOT
BRANCH   6   9
ATOM      4  N   UNL     1       3.212  -0.748   0.162  0.00  0.00    -0.236 N 
ATOM      5  N   UNL     1       3.018  -2.051   0.427  0.00  0.00    -0.171 NA
ATOM      9  C   UNL     1       1.051  -0.991  -0.048  0.00  0.00    +0.003 A 
ATOM     12  C   UNL     1       2.065  -0.068  -0.129  0.00  0.00    +0.046 A 
ATOM     13  C   UNL     1       1.696  -2.193   0.298  0.00  0.00    +0.064 A 
ATOM     15  C   UNL     1       2.036   1.373  -0.451  0.00  0.00    +0.066 C 
ATOM     16  C   UNL     1       1.085  -3.516   0.518  0.00  0.00    +0.068 C 
BRANCH   4  17
ATOM     17  C   UNL     1       4.502  -0.217   0.201  0.00  0.00    +0.066 A 
ATOM     19  C   UNL     1       4.804   0.816   1.087  0.00  0.00    +0.031 A 
ATOM     20  C   UNL     1       5.489  -0.720  -0.647  0.00  0.00    +0.031 A 
ATOM     23  C   UNL     1       6.094   1.347   1.126  0.00  0.00    +0.048 A 
ATOM     24  C   UNL     1       6.778  -0.189  -0.609  0.00  0.00    +0.048 A 
ATOM     25  C   UNL     1       7.080   0.844   0.277  0.00  0.00    +0.120 A 
BRANCH  25   2
ATOM      2  O   UNL     1       8.338   1.363   0.315  0.00  0.00    -0.495 OA
ATOM     29  C   UNL     1       9.298   0.802  -0.580  0.00  0.00    +0.277 C 
ENDBRANCH  25   2
ENDBRANCH   4  17
ENDBRANCH   6   9
BRANCH   8   3
ATOM      3  N   UNL     1      -3.453   0.475   0.136  0.00  0.00    -0.306 NA
ATOM     30  H   UNL     1      -3.579   0.364   1.143  0.00  0.00    +0.123 HD
BRANCH   3  14
ATOM     14  C   UNL     1      -4.488   1.365  -0.376  0.00  0.00    +0.116 C 
BRANCH  14  18
ATOM      1  F   UNL     1      -9.658  -0.673   0.558  0.00  0.00    -0.205 F 
ATOM     18  C   UNL     1      -5.869   0.820  -0.126  0.00  0.00    -0.033 A 
ATOM     21  C   UNL     1      -6.475  -0.005  -1.074  0.00  0.00    +0.008 A 
ATOM     22  C   UNL     1      -6.543   1.140   1.053  0.00  0.00    +0.008 A 
ATOM     26  C   UNL     1      -7.755  -0.509  -0.843  0.00  0.00    +0.038 A 
ATOM     27  C   UNL     1      -7.823   0.636   1.283  0.00  0.00    +0.038 A 
ATOM     28  C   UNL     1      -8.429  -0.189   0.336  0.00  0.00    +0.123 A 
ENDBRANCH  14  18
ENDBRANCH   3  14
ENDBRANCH   8   3
TORSDOF 6
