MODEL 1
REMARK VINA RESULT:      -6.3      0.000      0.000
REMARK  Name = 51137063
REMARK  3 active torsions:
REMARK  status: ('A' for Active; 'I' for Inactive)
REMARK    1  A    between atoms: N_3  and  C_9
REMARK    2  A    between atoms: C_5  and  C_10
REMARK    3  A    between atoms: C_9  and  C_11
REMARK                            x       y       z     vdW  Elec       q    Type
REMARK                         _______ _______ _______ _____ _____    ______ ____
ROOT
ATOM      3  N   UNL     1      -2.474 -11.335  12.652  0.00  0.00    -0.297 NA
ATOM      5  C   UNL     1      -2.845 -10.559  14.834  0.00  0.00    +0.090 C 
ATOM      6  C   UNL     1      -1.753 -11.643  14.852  0.00  0.00    +0.029 C 
ATOM      7  C   UNL     1      -3.521 -10.711  13.464  0.00  0.00    +0.097 C 
ATOM      8  C   UNL     1      -1.889 -12.360  13.514  0.00  0.00    +0.085 C 
ENDROOT
BRANCH   5  10
ATOM      2  O   UNL     1      -3.412 -11.327  17.076  0.00  0.00    -0.439 OA
ATOM      4  N   UNL     1      -5.023 -10.092  16.068  0.00  0.00    -0.213 NA
ATOM     10  C   UNL     1      -3.823 -10.625  15.984  0.00  0.00    +0.201 A 
ATOM     12  C   UNL     1      -4.465 -11.224  17.939  0.00  0.00    +0.155 A 
ATOM     13  C   UNL     1      -5.448 -10.468  17.318  0.00  0.00    +0.110 A 
ATOM     15  C   UNL     1      -4.570 -11.764  19.215  0.00  0.00    +0.048 A 
ATOM     16  C   UNL     1      -6.644 -10.215  18.006  0.00  0.00    +0.031 A 
ATOM     19  C   UNL     1      -5.768 -11.503  19.887  0.00  0.00    +0.004 A 
ATOM     20  C   UNL     1      -6.787 -10.745  19.297  0.00  0.00    +0.002 A 
ENDBRANCH   5  10
BRANCH   3   9
ATOM      9  C   UNL     1      -2.991 -11.885  11.408  0.00  0.00    +0.126 C 
BRANCH   9  11
ATOM      1  S   UNL     1      -5.152 -11.109   9.839  0.00  0.00    -0.100 S 
ATOM     11  C   UNL     1      -3.617 -10.824  10.542  0.00  0.00    +0.004 A 
ATOM     14  C   UNL     1      -3.117  -9.585  10.208  0.00  0.00    +0.012 A 
ATOM     17  C   UNL     1      -4.007  -8.860   9.363  0.00  0.00    +0.008 A 
ATOM     18  C   UNL     1      -5.151  -9.573   9.083  0.00  0.00    +0.045 A 
ENDBRANCH   9  11
ENDBRANCH   3   9
TORSDOF 3
ENDMDL
MODEL 2
REMARK VINA RESULT:      -6.2     27.071     28.335
REMARK  Name = 51137063
REMARK  3 active torsions:
REMARK  status: ('A' for Active; 'I' for Inactive)
REMARK    1  A    between atoms: N_3  and  C_9
REMARK    2  A    between atoms: C_5  and  C_10
REMARK    3  A    between atoms: C_9  and  C_11
REMARK                            x       y       z     vdW  Elec       q    Type
REMARK                         _______ _______ _______ _____ _____    ______ ____
ROOT
ATOM      3  N   UNL     1      11.448   9.905  21.624  0.00  0.00    -0.297 NA
ATOM      5  C   UNL     1      12.918   8.992  20.041  0.00  0.00    +0.090 C 
ATOM      6  C   UNL     1      11.638   8.141  20.106  0.00  0.00    +0.029 C 
ATOM      7  C   UNL     1      12.878   9.851  21.313  0.00  0.00    +0.097 C 
ATOM      8  C   UNL     1      10.965   8.542  21.413  0.00  0.00    +0.085 C 
ENDROOT
BRANCH   5  10
ATOM      2  O   UNL     1      15.185   8.509  20.793  0.00  0.00    -0.439 OA
ATOM      4  N   UNL     1      14.488   7.257  19.036  0.00  0.00    -0.213 NA
ATOM     10  C   UNL     1      14.199   8.203  19.904  0.00  0.00    +0.201 A 
ATOM     12  C   UNL     1      16.201   7.664  20.448  0.00  0.00    +0.155 A 
ATOM     13  C   UNL     1      15.770   6.901  19.372  0.00  0.00    +0.110 A 
ATOM     15  C   UNL     1      17.453   7.560  21.041  0.00  0.00    +0.048 A 
ATOM     16  C   UNL     1      16.642   5.947  18.826  0.00  0.00    +0.031 A 
ATOM     19  C   UNL     1      18.310   6.605  20.484  0.00  0.00    +0.004 A 
ATOM     20  C   UNL     1      17.915   5.814  19.399  0.00  0.00    +0.002 A 
ENDBRANCH   5  10
BRANCH   3   9
ATOM      9  C   UNL     1      11.193  10.380  22.976  0.00  0.00    +0.126 C 
BRANCH   9  11
ATOM      1  S   UNL     1      10.657  12.635  24.514  0.00  0.00    -0.100 S 
ATOM     11  C   UNL     1      10.957  11.867  23.013  0.00  0.00    +0.004 A 
ATOM     14  C   UNL     1      10.945  12.760  21.964  0.00  0.00    +0.012 A 
ATOM     17  C   UNL     1      10.686  14.092  22.399  0.00  0.00    +0.008 A 
ATOM     18  C   UNL     1      10.509  14.166  23.763  0.00  0.00    +0.045 A 
ENDBRANCH   9  11
ENDBRANCH   3   9
TORSDOF 3
ENDMDL
MODEL 3
REMARK VINA RESULT:      -6.0     26.409     27.446
REMARK  Name = 51137063
REMARK  3 active torsions:
REMARK  status: ('A' for Active; 'I' for Inactive)
REMARK    1  A    between atoms: N_3  and  C_9
REMARK    2  A    between atoms: C_5  and  C_10
REMARK    3  A    between atoms: C_9  and  C_11
REMARK                            x       y       z     vdW  Elec       q    Type
REMARK                         _______ _______ _______ _____ _____    ______ ____
ROOT
ATOM      3  N   UNL     1      11.811   7.796  18.654  0.00  0.00    -0.297 NA
ATOM      5  C   UNL     1      13.519   6.751  19.874  0.00  0.00    +0.090 C 
ATOM      6  C   UNL     1      12.566   7.477  20.840  0.00  0.00    +0.029 C 
ATOM      7  C   UNL     1      13.192   7.336  18.493  0.00  0.00    +0.097 C 
ATOM      8  C   UNL     1      11.778   8.443  19.964  0.00  0.00    +0.085 C 
ENDROOT
BRANCH   5  10
ATOM      2  O   UNL     1      15.824   6.029  19.549  0.00  0.00    -0.439 OA
ATOM      4  N   UNL     1      15.556   7.653  21.107  0.00  0.00    -0.213 NA
ATOM     10  C   UNL     1      14.984   6.860  20.228  0.00  0.00    +0.201 A 
ATOM     12  C   UNL     1      17.055   6.333  20.055  0.00  0.00    +0.155 A 
ATOM     13  C   UNL     1      16.886   7.327  21.008  0.00  0.00    +0.110 A 
ATOM     15  C   UNL     1      18.276   5.771  19.705  0.00  0.00    +0.048 A 
ATOM     16  C   UNL     1      18.014   7.818  21.682  0.00  0.00    +0.031 A 
ATOM     19  C   UNL     1      19.391   6.271  20.386  0.00  0.00    +0.004 A 
ATOM     20  C   UNL     1      19.265   7.274  21.355  0.00  0.00    +0.002 A 
ENDBRANCH   5  10
BRANCH   3   9
ATOM      9  C   UNL     1      11.397   8.691  17.583  0.00  0.00    +0.126 C 
BRANCH   9  11
ATOM      1  S   UNL     1      13.352  10.638  17.928  0.00  0.00    -0.100 S 
ATOM     11  C   UNL     1      12.563   9.439  16.994  0.00  0.00    +0.004 A 
ATOM     14  C   UNL     1      13.129   9.300  15.746  0.00  0.00    +0.012 A 
ATOM     17  C   UNL     1      14.225  10.191  15.554  0.00  0.00    +0.008 A 
ATOM     18  C   UNL     1      14.454  10.976  16.662  0.00  0.00    +0.045 A 
ENDBRANCH   9  11
ENDBRANCH   3   9
TORSDOF 3
ENDMDL
MODEL 4
REMARK VINA RESULT:      -6.0     22.628     24.961
REMARK  Name = 51137063
REMARK  3 active torsions:
REMARK  status: ('A' for Active; 'I' for Inactive)
REMARK    1  A    between atoms: N_3  and  C_9
REMARK    2  A    between atoms: C_5  and  C_10
REMARK    3  A    between atoms: C_9  and  C_11
REMARK                            x       y       z     vdW  Elec       q    Type
REMARK                         _______ _______ _______ _____ _____    ______ ____
ROOT
ATOM      3  N   UNL     1      11.963   4.152   1.600  0.00  0.00    -0.297 NA
ATOM      5  C   UNL     1      10.402   5.045   3.105  0.00  0.00    +0.090 C 
ATOM      6  C   UNL     1      11.228   6.184   2.483  0.00  0.00    +0.029 C 
ATOM      7  C   UNL     1      11.199   3.771   2.790  0.00  0.00    +0.097 C 
ATOM      8  C   UNL     1      12.449   5.502   1.880  0.00  0.00    +0.085 C 
ENDROOT
BRANCH   5  10
ATOM      2  O   UNL     1       9.599   6.412   4.956  0.00  0.00    -0.439 OA
ATOM      4  N   UNL     1      10.280   4.332   5.547  0.00  0.00    -0.213 NA
ATOM     10  C   UNL     1      10.108   5.206   4.579  0.00  0.00    +0.201 A 
ATOM     12  C   UNL     1       9.432   6.281   6.305  0.00  0.00    +0.155 A 
ATOM     13  C   UNL     1       9.851   5.008   6.662  0.00  0.00    +0.110 A 
ATOM     15  C   UNL     1       8.938   7.230   7.192  0.00  0.00    +0.048 A 
ATOM     16  C   UNL     1       9.779   4.624   8.009  0.00  0.00    +0.031 A 
ATOM     19  C   UNL     1       8.873   6.832   8.531  0.00  0.00    +0.004 A 
ATOM     20  C   UNL     1       9.285   5.556   8.935  0.00  0.00    +0.002 A 
ENDBRANCH   5  10
BRANCH   3   9
ATOM      9  C   UNL     1      13.046   3.221   1.315  0.00  0.00    +0.126 C 
BRANCH   9  11
ATOM      1  S   UNL     1      15.501   4.102   0.352  0.00  0.00    -0.100 S 
ATOM     11  C   UNL     1      13.863   3.657   0.128  0.00  0.00    +0.004 A 
ATOM     14  C   UNL     1      13.474   3.759  -1.189  0.00  0.00    +0.012 A 
ATOM     17  C   UNL     1      14.536   4.209  -2.026  0.00  0.00    +0.008 A 
ATOM     18  C   UNL     1      15.695   4.434  -1.317  0.00  0.00    +0.045 A 
ENDBRANCH   9  11
ENDBRANCH   3   9
TORSDOF 3
ENDMDL
MODEL 5
REMARK VINA RESULT:      -5.9      3.306      5.560
REMARK  Name = 51137063
REMARK  3 active torsions:
REMARK  status: ('A' for Active; 'I' for Inactive)
REMARK    1  A    between atoms: N_3  and  C_9
REMARK    2  A    between atoms: C_5  and  C_10
REMARK    3  A    between atoms: C_9  and  C_11
REMARK                            x       y       z     vdW  Elec       q    Type
REMARK                         _______ _______ _______ _____ _____    ______ ____
ROOT
ATOM      3  N   UNL     1      -4.539 -11.489  17.459  0.00  0.00    -0.297 NA
ATOM      5  C   UNL     1      -6.239 -10.603  18.809  0.00  0.00    +0.090 C 
ATOM      6  C   UNL     1      -5.589 -11.802  19.521  0.00  0.00    +0.029 C 
ATOM      7  C   UNL     1      -5.783 -10.724  17.348  0.00  0.00    +0.097 C 
ATOM      8  C   UNL     1      -4.829 -12.544  18.428  0.00  0.00    +0.085 C 
ENDROOT
BRANCH   5  10
ATOM      2  O   UNL     1      -8.388  -9.776  18.009  0.00  0.00    -0.439 OA
ATOM      4  N   UNL     1      -8.508 -11.070  19.866  0.00  0.00    -0.213 NA
ATOM     10  C   UNL     1      -7.742 -10.519  18.951  0.00  0.00    +0.201 A 
ATOM     12  C   UNL     1      -9.701  -9.872  18.372  0.00  0.00    +0.155 A 
ATOM     13  C   UNL     1      -9.770 -10.664  19.508  0.00  0.00    +0.110 A 
ATOM     15  C   UNL     1     -10.797  -9.294  17.742  0.00  0.00    +0.048 A 
ATOM     16  C   UNL     1     -11.024 -10.916  20.083  0.00  0.00    +0.031 A 
ATOM     19  C   UNL     1     -12.040  -9.555  18.328  0.00  0.00    +0.004 A 
ATOM     20  C   UNL     1     -12.154 -10.349  19.476  0.00  0.00    +0.002 A 
ENDBRANCH   5  10
BRANCH   3   9
ATOM      9  C   UNL     1      -4.098 -12.020  16.177  0.00  0.00    +0.126 C 
BRANCH   9  11
ATOM      1  S   UNL     1      -2.923 -10.905  13.917  0.00  0.00    -0.100 S 
ATOM     11  C   UNL     1      -2.961 -11.221  15.600  0.00  0.00    +0.004 A 
ATOM     14  C   UNL     1      -1.881 -10.670  16.253  0.00  0.00    +0.012 A 
ATOM     17  C   UNL     1      -1.010  -9.980  15.360  0.00  0.00    +0.008 A 
ATOM     18  C   UNL     1      -1.458 -10.030  14.059  0.00  0.00    +0.045 A 
ENDBRANCH   9  11
ENDBRANCH   3   9
TORSDOF 3
ENDMDL
MODEL 6
REMARK VINA RESULT:      -5.8      3.364      5.602
REMARK  Name = 51137063
REMARK  3 active torsions:
REMARK  status: ('A' for Active; 'I' for Inactive)
REMARK    1  A    between atoms: N_3  and  C_9
REMARK    2  A    between atoms: C_5  and  C_10
REMARK    3  A    between atoms: C_9  and  C_11
REMARK                            x       y       z     vdW  Elec       q    Type
REMARK                         _______ _______ _______ _____ _____    ______ ____
ROOT
ATOM      3  N   UNL     1      -4.740 -11.495  17.529  0.00  0.00    -0.297 NA
ATOM      5  C   UNL     1      -6.495 -10.462  18.691  0.00  0.00    +0.090 C 
ATOM      6  C   UNL     1      -5.973 -11.658  19.505  0.00  0.00    +0.029 C 
ATOM      7  C   UNL     1      -5.927 -10.673  17.281  0.00  0.00    +0.097 C 
ATOM      8  C   UNL     1      -5.168 -12.488  18.513  0.00  0.00    +0.085 C 
ENDROOT
BRANCH   5  10
ATOM      2  O   UNL     1      -8.654 -10.882  19.740  0.00  0.00    -0.439 OA
ATOM      4  N   UNL     1      -8.754  -9.655  17.837  0.00  0.00    -0.213 NA
ATOM     10  C   UNL     1      -7.997 -10.294  18.702  0.00  0.00    +0.201 A 
ATOM     12  C   UNL     1      -9.964 -10.578  19.504  0.00  0.00    +0.155 A 
ATOM     13  C   UNL     1     -10.021  -9.827  18.338  0.00  0.00    +0.110 A 
ATOM     15  C   UNL     1     -11.068 -10.937  20.267  0.00  0.00    +0.048 A 
ATOM     16  C   UNL     1     -11.269  -9.387  17.876  0.00  0.00    +0.031 A 
ATOM     19  C   UNL     1     -12.305 -10.491  19.793  0.00  0.00    +0.004 A 
ATOM     20  C   UNL     1     -12.407  -9.731  18.621  0.00  0.00    +0.002 A 
ENDBRANCH   5  10
BRANCH   3   9
ATOM      9  C   UNL     1      -4.225 -12.107  16.312  0.00  0.00    +0.126 C 
BRANCH   9  11
ATOM      1  S   UNL     1      -3.103 -10.978  14.032  0.00  0.00    -0.100 S 
ATOM     11  C   UNL     1      -3.101 -11.304  15.713  0.00  0.00    +0.004 A 
ATOM     14  C   UNL     1      -2.006 -10.757  16.345  0.00  0.00    +0.012 A 
ATOM     17  C   UNL     1      -1.157 -10.062  15.436  0.00  0.00    +0.008 A 
ATOM     18  C   UNL     1      -1.635 -10.104  14.145  0.00  0.00    +0.045 A 
ENDBRANCH   9  11
ENDBRANCH   3   9
TORSDOF 3
ENDMDL
MODEL 7
REMARK VINA RESULT:      -5.8      2.483      3.560
REMARK  Name = 51137063
REMARK  3 active torsions:
REMARK  status: ('A' for Active; 'I' for Inactive)
REMARK    1  A    between atoms: N_3  and  C_9
REMARK    2  A    between atoms: C_5  and  C_10
REMARK    3  A    between atoms: C_9  and  C_11
REMARK                            x       y       z     vdW  Elec       q    Type
REMARK                         _______ _______ _______ _____ _____    ______ ____
ROOT
ATOM      3  N   UNL     1      -4.308 -10.547  14.597  0.00  0.00    -0.297 NA
ATOM      5  C   UNL     1      -5.573  -9.661  16.362  0.00  0.00    +0.090 C 
ATOM      6  C   UNL     1      -4.384 -10.456  16.929  0.00  0.00    +0.029 C 
ATOM      7  C   UNL     1      -5.672 -10.103  14.896  0.00  0.00    +0.097 C 
ATOM      8  C   UNL     1      -3.897 -11.317  15.770  0.00  0.00    +0.085 C 
ENDROOT
BRANCH   5  10
ATOM      2  O   UNL     1      -7.905  -9.044  16.714  0.00  0.00    -0.439 OA
ATOM      4  N   UNL     1      -7.132 -10.650  18.116  0.00  0.00    -0.213 NA
ATOM     10  C   UNL     1      -6.871  -9.835  17.118  0.00  0.00    +0.201 A 
ATOM     12  C   UNL     1      -8.925  -9.402  17.548  0.00  0.00    +0.155 A 
ATOM     13  C   UNL     1      -8.448 -10.384  18.404  0.00  0.00    +0.110 A 
ATOM     15  C   UNL     1     -10.219  -8.897  17.566  0.00  0.00    +0.048 A 
ATOM     16  C   UNL     1      -9.315 -10.923  19.366  0.00  0.00    +0.031 A 
ATOM     19  C   UNL     1     -11.070  -9.444  18.532  0.00  0.00    +0.004 A 
ATOM     20  C   UNL     1     -10.630 -10.437  19.415  0.00  0.00    +0.002 A 
ENDBRANCH   5  10
BRANCH   3   9
ATOM      9  C   UNL     1      -4.235 -11.325  13.370  0.00  0.00    +0.126 C 
BRANCH   9  11
ATOM      1  S   UNL     1      -4.862  -9.752  11.164  0.00  0.00    -0.100 S 
ATOM     11  C   UNL     1      -3.735 -10.502  12.212  0.00  0.00    +0.004 A 
ATOM     14  C   UNL     1      -2.433 -10.243  11.843  0.00  0.00    +0.012 A 
ATOM     17  C   UNL     1      -2.361  -9.417  10.684  0.00  0.00    +0.008 A 
ATOM     18  C   UNL     1      -3.608  -9.077  10.212  0.00  0.00    +0.045 A 
ENDBRANCH   9  11
ENDBRANCH   3   9
TORSDOF 3
ENDMDL
MODEL 8
REMARK VINA RESULT:      -5.5     22.470     25.919
REMARK  Name = 51137063
REMARK  3 active torsions:
REMARK  status: ('A' for Active; 'I' for Inactive)
REMARK    1  A    between atoms: N_3  and  C_9
REMARK    2  A    between atoms: C_5  and  C_10
REMARK    3  A    between atoms: C_9  and  C_11
REMARK                            x       y       z     vdW  Elec       q    Type
REMARK                         _______ _______ _______ _____ _____    ______ ____
ROOT
ATOM      3  N   UNL     1      10.814   5.506   4.266  0.00  0.00    -0.297 NA
ATOM      5  C   UNL     1      12.047   4.640   2.469  0.00  0.00    +0.090 C 
ATOM      6  C   UNL     1      12.399   6.124   2.667  0.00  0.00    +0.029 C 
ATOM      7  C   UNL     1      10.750   4.439   3.264  0.00  0.00    +0.097 C 
ATOM      8  C   UNL     1      11.278   6.683   3.533  0.00  0.00    +0.085 C 
ENDROOT
BRANCH   5  10
ATOM      2  O   UNL     1      10.959   4.823   0.296  0.00  0.00    -0.439 OA
ATOM      4  N   UNL     1      12.635   3.301   0.385  0.00  0.00    -0.213 NA
ATOM     10  C   UNL     1      11.927   4.203   1.027  0.00  0.00    +0.201 A 
ATOM     12  C   UNL     1      11.072   4.249  -0.938  0.00  0.00    +0.155 A 
ATOM     13  C   UNL     1      12.099   3.318  -0.879  0.00  0.00    +0.110 A 
ATOM     15  C   UNL     1      10.315   4.522  -2.071  0.00  0.00    +0.048 A 
ATOM     16  C   UNL     1      12.416   2.586  -2.032  0.00  0.00    +0.031 A 
ATOM     19  C   UNL     1      10.644   3.783  -3.212  0.00  0.00    +0.004 A 
ATOM     20  C   UNL     1      11.672   2.833  -3.196  0.00  0.00    +0.002 A 
ENDBRANCH   5  10
BRANCH   3   9
ATOM      9  C   UNL     1       9.534   5.729   4.921  0.00  0.00    +0.126 C 
BRANCH   9  11
ATOM      1  S   UNL     1       9.414   6.708   7.521  0.00  0.00    -0.100 S 
ATOM     11  C   UNL     1       9.599   5.431   6.395  0.00  0.00    +0.004 A 
ATOM     14  C   UNL     1       9.794   4.217   7.017  0.00  0.00    +0.012 A 
ATOM     17  C   UNL     1       9.793   4.338   8.437  0.00  0.00    +0.008 A 
ATOM     18  C   UNL     1       9.597   5.638   8.846  0.00  0.00    +0.045 A 
ENDBRANCH   9  11
ENDBRANCH   3   9
TORSDOF 3
ENDMDL
MODEL 9
REMARK VINA RESULT:      -5.5      4.039      8.505
REMARK  Name = 51137063
REMARK  3 active torsions:
REMARK  status: ('A' for Active; 'I' for Inactive)
REMARK    1  A    between atoms: N_3  and  C_9
REMARK    2  A    between atoms: C_5  and  C_10
REMARK    3  A    between atoms: C_9  and  C_11
REMARK                            x       y       z     vdW  Elec       q    Type
REMARK                         _______ _______ _______ _____ _____    ______ ____
ROOT
ATOM      3  N   UNL     1      -7.732 -12.386  19.388  0.00  0.00    -0.297 NA
ATOM      5  C   UNL     1      -5.577 -11.794  18.681  0.00  0.00    +0.090 C 
ATOM      6  C   UNL     1      -6.234 -10.595  19.385  0.00  0.00    +0.029 C 
ATOM      7  C   UNL     1      -6.737 -12.752  18.378  0.00  0.00    +0.097 C 
ATOM      8  C   UNL     1      -7.722 -10.925  19.417  0.00  0.00    +0.085 C 
ENDROOT
BRANCH   5  10
ATOM      2  O   UNL     1      -3.449 -11.174  17.667  0.00  0.00    -0.439 OA
ATOM      4  N   UNL     1      -5.170 -11.363  16.204  0.00  0.00    -0.213 NA
ATOM     10  C   UNL     1      -4.767 -11.443  17.453  0.00  0.00    +0.201 A 
ATOM     12  C   UNL     1      -2.973 -10.896  16.417  0.00  0.00    +0.155 A 
ATOM     13  C   UNL     1      -4.029 -11.012  15.526  0.00  0.00    +0.110 A 
ATOM     15  C   UNL     1      -1.673 -10.554  16.064  0.00  0.00    +0.048 A 
ATOM     16  C   UNL     1      -3.795 -10.774  14.164  0.00  0.00    +0.031 A 
ATOM     19  C   UNL     1      -1.457 -10.319  14.703  0.00  0.00    +0.004 A 
ATOM     20  C   UNL     1      -2.495 -10.425  13.769  0.00  0.00    +0.002 A 
ENDBRANCH   5  10
BRANCH   3   9
ATOM      9  C   UNL     1      -9.051 -12.925  19.089  0.00  0.00    +0.126 C 
BRANCH   9  11
ATOM      1  S   UNL     1     -11.237 -13.019  20.805  0.00  0.00    -0.100 S 
ATOM     11  C   UNL     1      -9.690 -13.552  20.300  0.00  0.00    +0.004 A 
ATOM     14  C   UNL     1      -9.194 -14.547  21.113  0.00  0.00    +0.012 A 
ATOM     17  C   UNL     1     -10.096 -14.876  22.165  0.00  0.00    +0.008 A 
ATOM     18  C   UNL     1     -11.246 -14.120  22.116  0.00  0.00    +0.045 A 
ENDBRANCH   9  11
ENDBRANCH   3   9
TORSDOF 3
ENDMDL
MODEL 10
REMARK VINA RESULT:      -5.3      6.690      9.463
REMARK  Name = 51137063
REMARK  3 active torsions:
REMARK  status: ('A' for Active; 'I' for Inactive)
REMARK    1  A    between atoms: N_3  and  C_9
REMARK    2  A    between atoms: C_5  and  C_10
REMARK    3  A    between atoms: C_9  and  C_11
REMARK                            x       y       z     vdW  Elec       q    Type
REMARK                         _______ _______ _______ _____ _____    ______ ____
ROOT
ATOM      3  N   UNL     1      -9.062  -9.476  17.354  0.00  0.00    -0.297 NA
ATOM      5  C   UNL     1     -10.529  -7.661  17.124  0.00  0.00    +0.090 C 
ATOM      6  C   UNL     1     -11.253  -8.822  17.826  0.00  0.00    +0.029 C 
ATOM      7  C   UNL     1      -9.277  -8.300  16.508  0.00  0.00    +0.097 C 
ATOM      8  C   UNL     1     -10.393 -10.049  17.548  0.00  0.00    +0.085 C 
ENDROOT
BRANCH   5  10
ATOM      2  O   UNL     1     -12.688  -7.232  16.078  0.00  0.00    -0.439 OA
ATOM      4  N   UNL     1     -10.981  -5.986  15.260  0.00  0.00    -0.213 NA
ATOM     10  C   UNL     1     -11.365  -6.910  16.113  0.00  0.00    +0.201 A 
ATOM     12  C   UNL     1     -13.189  -6.422  15.099  0.00  0.00    +0.155 A 
ATOM     13  C   UNL     1     -12.141  -5.662  14.601  0.00  0.00    +0.110 A 
ATOM     15  C   UNL     1     -14.503  -6.346  14.655  0.00  0.00    +0.048 A 
ATOM     16  C   UNL     1     -12.399  -4.742  13.575  0.00  0.00    +0.031 A 
ATOM     19  C   UNL     1     -14.744  -5.423  13.631  0.00  0.00    +0.004 A 
ATOM     20  C   UNL     1     -13.715  -4.637  13.100  0.00  0.00    +0.002 A 
ENDBRANCH   5  10
BRANCH   3   9
ATOM      9  C   UNL     1      -8.132 -10.424  16.760  0.00  0.00    +0.126 C 
BRANCH   9  11
ATOM      1  S   UNL     1      -7.316 -11.319  19.263  0.00  0.00    -0.100 S 
ATOM     11  C   UNL     1      -6.987 -10.742  17.685  0.00  0.00    +0.004 A 
ATOM     14  C   UNL     1      -5.635 -10.636  17.444  0.00  0.00    +0.012 A 
ATOM     17  C   UNL     1      -4.859 -11.033  18.571  0.00  0.00    +0.008 A 
ATOM     18  C   UNL     1      -5.647 -11.427  19.630  0.00  0.00    +0.045 A 
ENDBRANCH   9  11
ENDBRANCH   3   9
TORSDOF 3
ENDMDL
