MODEL 1
REMARK VINA RESULT:      -7.7      0.000      0.000
REMARK  Name = 75536110
REMARK  8 active torsions:
REMARK  status: ('A' for Active; 'I' for Inactive)
REMARK    1  A    between atoms: O_1  and  C_8
REMARK    2  A    between atoms: O_2  and  C_10
REMARK    3  A    between atoms: O_3  and  C_22
REMARK    4  A    between atoms: O_3  and  C_23
REMARK    5  A    between atoms: N_4  and  C_6
REMARK    6  A    between atoms: N_4  and  C_12
REMARK    7  A    between atoms: C_7  and  C_11
REMARK    8  A    between atoms: C_12  and  C_15
REMARK                            x       y       z     vdW  Elec       q    Type
REMARK                         _______ _______ _______ _____ _____    ______ ____
ROOT
ATOM      6  C   UNL     1      13.177   7.651  20.391  0.00  0.00    +0.093 C 
ATOM      7  C   UNL     1      12.321   8.856  19.889  0.00  0.00    +0.042 C 
ATOM      8  C   UNL     1      12.183   6.729  21.116  0.00  0.00    +0.160 C 
ATOM      9  C   UNL     1      10.882   8.577  20.362  0.00  0.00    +0.043 C 
ATOM     10  C   UNL     1      11.070   7.670  21.570  0.00  0.00    +0.145 C 
ENDROOT
BRANCH   7  11
ATOM      5  N   UNL     1      11.587   8.674  16.171  0.00  0.00    -0.263 NA
ATOM     11  C   UNL     1      12.423   9.104  18.399  0.00  0.00    -0.025 A 
ATOM     13  C   UNL     1      13.397   9.949  17.879  0.00  0.00    +0.007 A 
ATOM     14  C   UNL     1      11.551   8.496  17.511  0.00  0.00    +0.114 A 
ATOM     16  C   UNL     1      13.466  10.158  16.505  0.00  0.00    +0.020 A 
ATOM     17  C   UNL     1      12.547   9.502  15.702  0.00  0.00    +0.111 A 
ENDBRANCH   7  11
BRANCH   8   1
ATOM      1  O   UNL     1      11.687   5.777  20.177  0.00  0.00    -0.388 OA
ATOM     25  H   UNL     1      11.741   4.900  20.595  0.00  0.00    +0.210 HD
ENDBRANCH   8   1
BRANCH  10   2
ATOM      2  O   UNL     1       9.877   6.986  21.892  0.00  0.00    -0.389 OA
ATOM     26  H   UNL     1       9.768   7.027  22.858  0.00  0.00    +0.210 HD
ENDBRANCH  10   2
BRANCH   6   4
ATOM      4  N   UNL     1      14.191   8.130  21.334  0.00  0.00    -0.306 NA
ATOM     24  H   UNL     1      14.520   7.346  21.897  0.00  0.00    +0.123 HD
BRANCH   4  12
ATOM     12  C   UNL     1      15.327   8.703  20.627  0.00  0.00    +0.116 C 
BRANCH  12  15
ATOM     15  C   UNL     1      16.428   7.695  20.427  0.00  0.00    -0.033 A 
ATOM     18  C   UNL     1      17.546   7.708  21.262  0.00  0.00    +0.008 A 
ATOM     19  C   UNL     1      16.330   6.750  19.407  0.00  0.00    +0.008 A 
ATOM     20  C   UNL     1      18.566   6.775  21.075  0.00  0.00    +0.046 A 
ATOM     21  C   UNL     1      17.350   5.816  19.221  0.00  0.00    +0.046 A 
ATOM     22  C   UNL     1      18.469   5.829  20.055  0.00  0.00    +0.120 A 
BRANCH  22   3
ATOM      3  O   UNL     1      19.463   4.917  19.875  0.00  0.00    -0.495 OA
ATOM     23  C   UNL     1      20.664   5.111  20.620  0.00  0.00    +0.277 C 
ENDBRANCH  22   3
ENDBRANCH  12  15
ENDBRANCH   4  12
ENDBRANCH   6   4
TORSDOF 7
ENDMDL
MODEL 2
REMARK VINA RESULT:      -7.0      3.422      7.189
REMARK  Name = 75536110
REMARK  8 active torsions:
REMARK  status: ('A' for Active; 'I' for Inactive)
REMARK    1  A    between atoms: O_1  and  C_8
REMARK    2  A    between atoms: O_2  and  C_10
REMARK    3  A    between atoms: O_3  and  C_22
REMARK    4  A    between atoms: O_3  and  C_23
REMARK    5  A    between atoms: N_4  and  C_6
REMARK    6  A    between atoms: N_4  and  C_12
REMARK    7  A    between atoms: C_7  and  C_11
REMARK    8  A    between atoms: C_12  and  C_15
REMARK                            x       y       z     vdW  Elec       q    Type
REMARK                         _______ _______ _______ _____ _____    ______ ____
ROOT
ATOM      6  C   UNL     1      13.366   8.098  20.370  0.00  0.00    +0.093 C 
ATOM      7  C   UNL     1      14.478   8.247  19.286  0.00  0.00    +0.042 C 
ATOM      8  C   UNL     1      12.184   7.437  19.643  0.00  0.00    +0.160 C 
ATOM      9  C   UNL     1      13.877   7.680  17.986  0.00  0.00    +0.043 C 
ATOM     10  C   UNL     1      12.377   7.838  18.184  0.00  0.00    +0.145 C 
ENDROOT
BRANCH   7  11
ATOM      5  N   UNL     1      17.785   7.629  21.040  0.00  0.00    -0.263 NA
ATOM     11  C   UNL     1      15.797   7.607  19.664  0.00  0.00    -0.025 A 
ATOM     13  C   UNL     1      16.244   6.458  19.022  0.00  0.00    +0.007 A 
ATOM     14  C   UNL     1      16.597   8.149  20.656  0.00  0.00    +0.114 A 
ATOM     16  C   UNL     1      17.461   5.892  19.390  0.00  0.00    +0.020 A 
ATOM     17  C   UNL     1      18.187   6.511  20.394  0.00  0.00    +0.111 A 
ENDBRANCH   7  11
BRANCH   8   1
ATOM      1  O   UNL     1      12.297   6.023  19.797  0.00  0.00    -0.388 OA
ATOM     25  H   UNL     1      11.431   5.636  19.582  0.00  0.00    +0.210 HD
ENDBRANCH   8   1
BRANCH  10   2
ATOM      2  O   UNL     1      11.649   7.018  17.293  0.00  0.00    -0.389 OA
ATOM     26  H   UNL     1      11.432   6.195  17.764  0.00  0.00    +0.210 HD
ENDBRANCH  10   2
BRANCH   6   4
ATOM      4  N   UNL     1      12.974   9.424  20.855  0.00  0.00    -0.306 NA
ATOM     24  H   UNL     1      12.948  10.074  20.069  0.00  0.00    +0.123 HD
BRANCH   4  12
ATOM     12  C   UNL     1      11.653   9.384  21.466  0.00  0.00    +0.116 C 
BRANCH  12  15
ATOM     15  C   UNL     1      11.355  10.640  22.241  0.00  0.00    -0.033 A 
ATOM     18  C   UNL     1      11.424  11.882  21.609  0.00  0.00    +0.008 A 
ATOM     19  C   UNL     1      11.011  10.562  23.590  0.00  0.00    +0.008 A 
ATOM     20  C   UNL     1      11.149  13.045  22.327  0.00  0.00    +0.046 A 
ATOM     21  C   UNL     1      10.735  11.726  24.308  0.00  0.00    +0.046 A 
ATOM     22  C   UNL     1      10.805  12.968  23.676  0.00  0.00    +0.120 A 
BRANCH  22   3
ATOM      3  O   UNL     1      10.535  14.103  24.376  0.00  0.00    -0.495 OA
ATOM     23  C   UNL     1      10.596  14.018  25.799  0.00  0.00    +0.277 C 
ENDBRANCH  22   3
ENDBRANCH  12  15
ENDBRANCH   4  12
ENDBRANCH   6   4
TORSDOF 7
ENDMDL
MODEL 3
REMARK VINA RESULT:      -6.9      1.952      2.533
REMARK  Name = 75536110
REMARK  8 active torsions:
REMARK  status: ('A' for Active; 'I' for Inactive)
REMARK    1  A    between atoms: O_1  and  C_8
REMARK    2  A    between atoms: O_2  and  C_10
REMARK    3  A    between atoms: O_3  and  C_22
REMARK    4  A    between atoms: O_3  and  C_23
REMARK    5  A    between atoms: N_4  and  C_6
REMARK    6  A    between atoms: N_4  and  C_12
REMARK    7  A    between atoms: C_7  and  C_11
REMARK    8  A    between atoms: C_12  and  C_15
REMARK                            x       y       z     vdW  Elec       q    Type
REMARK                         _______ _______ _______ _____ _____    ______ ____
ROOT
ATOM      6  C   UNL     1      13.237   6.996  20.762  0.00  0.00    +0.093 C 
ATOM      7  C   UNL     1      12.756   8.384  20.235  0.00  0.00    +0.042 C 
ATOM      8  C   UNL     1      11.989   6.349  21.385  0.00  0.00    +0.160 C 
ATOM      9  C   UNL     1      11.260   8.475  20.594  0.00  0.00    +0.043 C 
ATOM     10  C   UNL     1      11.119   7.537  21.784  0.00  0.00    +0.145 C 
ENDROOT
BRANCH   7  11
ATOM      5  N   UNL     1      13.554   7.694  16.591  0.00  0.00    -0.263 NA
ATOM     11  C   UNL     1      13.032   8.615  18.765  0.00  0.00    -0.025 A 
ATOM     13  C   UNL     1      13.030   9.898  18.229  0.00  0.00    +0.007 A 
ATOM     14  C   UNL     1      13.299   7.557  17.912  0.00  0.00    +0.114 A 
ATOM     16  C   UNL     1      13.288  10.080  16.875  0.00  0.00    +0.020 A 
ATOM     17  C   UNL     1      13.543   8.956  16.106  0.00  0.00    +0.111 A 
ENDBRANCH   7  11
BRANCH   8   1
ATOM      1  O   UNL     1      11.344   5.564  20.383  0.00  0.00    -0.388 OA
ATOM     25  H   UNL     1      11.579   5.945  19.519  0.00  0.00    +0.210 HD
ENDBRANCH   8   1
BRANCH  10   2
ATOM      2  O   UNL     1       9.769   7.174  21.998  0.00  0.00    -0.389 OA
ATOM     26  H   UNL     1       9.760   6.254  22.312  0.00  0.00    +0.210 HD
ENDBRANCH  10   2
BRANCH   6   4
ATOM      4  N   UNL     1      14.263   7.191  21.790  0.00  0.00    -0.306 NA
ATOM     24  H   UNL     1      13.987   6.692  22.636  0.00  0.00    +0.123 HD
BRANCH   4  12
ATOM     12  C   UNL     1      15.550   6.676  21.344  0.00  0.00    +0.116 C 
BRANCH  12  15
ATOM     15  C   UNL     1      16.611   7.743  21.345  0.00  0.00    -0.033 A 
ATOM     18  C   UNL     1      17.960   7.387  21.369  0.00  0.00    +0.008 A 
ATOM     19  C   UNL     1      16.246   9.089  21.324  0.00  0.00    +0.008 A 
ATOM     20  C   UNL     1      18.942   8.376  21.371  0.00  0.00    +0.046 A 
ATOM     21  C   UNL     1      17.229  10.079  21.325  0.00  0.00    +0.046 A 
ATOM     22  C   UNL     1      18.578   9.722  21.350  0.00  0.00    +0.120 A 
BRANCH  22   3
ATOM      3  O   UNL     1      19.537  10.688  21.350  0.00  0.00    -0.495 OA
ATOM     23  C   UNL     1      20.048  11.095  22.618  0.00  0.00    +0.277 C 
ENDBRANCH  22   3
ENDBRANCH  12  15
ENDBRANCH   4  12
ENDBRANCH   6   4
TORSDOF 7
ENDMDL
MODEL 4
REMARK VINA RESULT:      -6.8      2.382      3.920
REMARK  Name = 75536110
REMARK  8 active torsions:
REMARK  status: ('A' for Active; 'I' for Inactive)
REMARK    1  A    between atoms: O_1  and  C_8
REMARK    2  A    between atoms: O_2  and  C_10
REMARK    3  A    between atoms: O_3  and  C_22
REMARK    4  A    between atoms: O_3  and  C_23
REMARK    5  A    between atoms: N_4  and  C_6
REMARK    6  A    between atoms: N_4  and  C_12
REMARK    7  A    between atoms: C_7  and  C_11
REMARK    8  A    between atoms: C_12  and  C_15
REMARK                            x       y       z     vdW  Elec       q    Type
REMARK                         _______ _______ _______ _____ _____    ______ ____
ROOT
ATOM      6  C   UNL     1      14.166   9.102  19.001  0.00  0.00    +0.093 C 
ATOM      7  C   UNL     1      13.246   7.843  19.056  0.00  0.00    +0.042 C 
ATOM      8  C   UNL     1      13.993   9.663  17.580  0.00  0.00    +0.160 C 
ATOM      9  C   UNL     1      12.602   7.731  17.661  0.00  0.00    +0.043 C 
ATOM     10  C   UNL     1      13.588   8.448  16.751  0.00  0.00    +0.145 C 
ENDROOT
BRANCH   7  11
ATOM      5  N   UNL     1      10.895   6.648  21.783  0.00  0.00    -0.263 NA
ATOM     11  C   UNL     1      12.234   7.867  20.182  0.00  0.00    -0.025 A 
ATOM     13  C   UNL     1      11.712   9.069  20.648  0.00  0.00    +0.007 A 
ATOM     14  C   UNL     1      11.796   6.695  20.776  0.00  0.00    +0.114 A 
ATOM     16  C   UNL     1      10.783   9.060  21.683  0.00  0.00    +0.020 A 
ATOM     17  C   UNL     1      10.410   7.835  22.211  0.00  0.00    +0.111 A 
ENDBRANCH   7  11
BRANCH   8   1
ATOM      1  O   UNL     1      12.943  10.629  17.604  0.00  0.00    -0.388 OA
ATOM     25  H   UNL     1      13.322  11.462  17.934  0.00  0.00    +0.210 HD
ENDBRANCH   8   1
BRANCH  10   2
ATOM      2  O   UNL     1      12.991   8.803  15.520  0.00  0.00    -0.389 OA
ATOM     26  H   UNL     1      13.107   8.054  14.912  0.00  0.00    +0.210 HD
ENDBRANCH  10   2
BRANCH   6   4
ATOM      4  N   UNL     1      15.559   8.701  19.212  0.00  0.00    -0.306 NA
ATOM     24  H   UNL     1      15.944   9.228  19.996  0.00  0.00    +0.123 HD
BRANCH   4  12
ATOM     12  C   UNL     1      15.650   7.281  19.518  0.00  0.00    +0.116 C 
BRANCH  12  15
ATOM     15  C   UNL     1      17.017   6.903  20.022  0.00  0.00    -0.033 A 
ATOM     18  C   UNL     1      17.718   5.856  19.422  0.00  0.00    +0.008 A 
ATOM     19  C   UNL     1      17.583   7.599  21.090  0.00  0.00    +0.008 A 
ATOM     20  C   UNL     1      18.984   5.506  19.890  0.00  0.00    +0.046 A 
ATOM     21  C   UNL     1      18.850   7.249  21.558  0.00  0.00    +0.046 A 
ATOM     22  C   UNL     1      19.550   6.202  20.958  0.00  0.00    +0.120 A 
BRANCH  22   3
ATOM      3  O   UNL     1      20.786   5.862  21.413  0.00  0.00    -0.495 OA
ATOM     23  C   UNL     1      21.478   4.833  20.707  0.00  0.00    +0.277 C 
ENDBRANCH  22   3
ENDBRANCH  12  15
ENDBRANCH   4  12
ENDBRANCH   6   4
TORSDOF 7
ENDMDL
MODEL 5
REMARK VINA RESULT:      -6.7      2.258      3.445
REMARK  Name = 75536110
REMARK  8 active torsions:
REMARK  status: ('A' for Active; 'I' for Inactive)
REMARK    1  A    between atoms: O_1  and  C_8
REMARK    2  A    between atoms: O_2  and  C_10
REMARK    3  A    between atoms: O_3  and  C_22
REMARK    4  A    between atoms: O_3  and  C_23
REMARK    5  A    between atoms: N_4  and  C_6
REMARK    6  A    between atoms: N_4  and  C_12
REMARK    7  A    between atoms: C_7  and  C_11
REMARK    8  A    between atoms: C_12  and  C_15
REMARK                            x       y       z     vdW  Elec       q    Type
REMARK                         _______ _______ _______ _____ _____    ______ ____
ROOT
ATOM      6  C   UNL     1      13.830   9.616  18.876  0.00  0.00    +0.093 C 
ATOM      7  C   UNL     1      12.968   9.095  20.068  0.00  0.00    +0.042 C 
ATOM      8  C   UNL     1      13.263   8.910  17.633  0.00  0.00    +0.160 C 
ATOM      9  C   UNL     1      11.959   8.104  19.457  0.00  0.00    +0.043 C 
ATOM     10  C   UNL     1      12.648   7.628  18.186  0.00  0.00    +0.145 C 
ENDROOT
BRANCH   7  11
ATOM      5  N   UNL     1      10.945  10.827  22.770  0.00  0.00    -0.263 NA
ATOM     11  C   UNL     1      12.312  10.192  20.879  0.00  0.00    -0.025 A 
ATOM     13  C   UNL     1      12.444  11.528  20.517  0.00  0.00    +0.007 A 
ATOM     14  C   UNL     1      11.558   9.897  22.003  0.00  0.00    +0.114 A 
ATOM     16  C   UNL     1      11.829  12.514  21.281  0.00  0.00    +0.020 A 
ATOM     17  C   UNL     1      11.097  12.115  22.387  0.00  0.00    +0.111 A 
ENDBRANCH   7  11
BRANCH   8   1
ATOM      1  O   UNL     1      12.258   9.746  17.062  0.00  0.00    -0.388 OA
ATOM     25  H   UNL     1      12.562  10.002  16.174  0.00  0.00    +0.210 HD
ENDBRANCH   8   1
BRANCH  10   2
ATOM      2  O   UNL     1      11.728   7.036  17.292  0.00  0.00    -0.389 OA
ATOM     26  H   UNL     1      11.103   6.511  17.820  0.00  0.00    +0.210 HD
ENDBRANCH  10   2
BRANCH   6   4
ATOM      4  N   UNL     1      15.228   9.227  19.075  0.00  0.00    -0.306 NA
ATOM     24  H   UNL     1      15.803  10.067  19.134  0.00  0.00    +0.123 HD
BRANCH   4  12
ATOM     12  C   UNL     1      15.385   8.468  20.308  0.00  0.00    +0.116 C 
BRANCH  12  15
ATOM     15  C   UNL     1      16.532   7.496  20.225  0.00  0.00    -0.033 A 
ATOM     18  C   UNL     1      17.605   7.606  21.109  0.00  0.00    +0.008 A 
ATOM     19  C   UNL     1      16.520   6.486  19.264  0.00  0.00    +0.008 A 
ATOM     20  C   UNL     1      18.667   6.706  21.031  0.00  0.00    +0.046 A 
ATOM     21  C   UNL     1      17.583   5.585  19.186  0.00  0.00    +0.046 A 
ATOM     22  C   UNL     1      18.657   5.695  20.070  0.00  0.00    +0.120 A 
BRANCH  22   3
ATOM      3  O   UNL     1      19.692   4.816  19.995  0.00  0.00    -0.495 OA
ATOM     23  C   UNL     1      20.912   5.193  20.632  0.00  0.00    +0.277 C 
ENDBRANCH  22   3
ENDBRANCH  12  15
ENDBRANCH   4  12
ENDBRANCH   6   4
TORSDOF 7
ENDMDL
MODEL 6
REMARK VINA RESULT:      -6.5      2.356      3.225
REMARK  Name = 75536110
REMARK  8 active torsions:
REMARK  status: ('A' for Active; 'I' for Inactive)
REMARK    1  A    between atoms: O_1  and  C_8
REMARK    2  A    between atoms: O_2  and  C_10
REMARK    3  A    between atoms: O_3  and  C_22
REMARK    4  A    between atoms: O_3  and  C_23
REMARK    5  A    between atoms: N_4  and  C_6
REMARK    6  A    between atoms: N_4  and  C_12
REMARK    7  A    between atoms: C_7  and  C_11
REMARK    8  A    between atoms: C_12  and  C_15
REMARK                            x       y       z     vdW  Elec       q    Type
REMARK                         _______ _______ _______ _____ _____    ______ ____
ROOT
ATOM      6  C   UNL     1      13.426   8.137  20.496  0.00  0.00    +0.093 C 
ATOM      7  C   UNL     1      12.666   8.622  21.770  0.00  0.00    +0.042 C 
ATOM      8  C   UNL     1      12.649   6.903  20.011  0.00  0.00    +0.160 C 
ATOM      9  C   UNL     1      11.499   7.635  21.965  0.00  0.00    +0.043 C 
ATOM     10  C   UNL     1      11.981   6.368  21.274  0.00  0.00    +0.145 C 
ENDROOT
BRANCH   7  11
ATOM      5  N   UNL     1      12.278  12.201  20.573  0.00  0.00    -0.263 NA
ATOM     11  C   UNL     1      12.222  10.068  21.710  0.00  0.00    -0.025 A 
ATOM     13  C   UNL     1      11.385  10.601  22.684  0.00  0.00    +0.007 A 
ATOM     14  C   UNL     1      12.637  10.902  20.685  0.00  0.00    +0.114 A 
ATOM     16  C   UNL     1      10.994  11.933  22.603  0.00  0.00    +0.020 A 
ATOM     17  C   UNL     1      11.465  12.684  21.538  0.00  0.00    +0.111 A 
ENDBRANCH   7  11
BRANCH   8   1
ATOM      1  O   UNL     1      11.670   7.332  19.066  0.00  0.00    -0.388 OA
ATOM     25  H   UNL     1      11.374   8.219  19.336  0.00  0.00    +0.210 HD
ENDBRANCH   8   1
BRANCH  10   2
ATOM      2  O   UNL     1      10.908   5.492  20.994  0.00  0.00    -0.389 OA
ATOM     26  H   UNL     1      11.027   4.698  21.541  0.00  0.00    +0.210 HD
ENDBRANCH  10   2
BRANCH   6   4
ATOM      4  N   UNL     1      14.793   7.754  20.858  0.00  0.00    -0.306 NA
ATOM     24  H   UNL     1      14.759   7.053  21.598  0.00  0.00    +0.123 HD
BRANCH   4  12
ATOM     12  C   UNL     1      15.494   7.190  19.713  0.00  0.00    +0.116 C 
BRANCH  12  15
ATOM     15  C   UNL     1      16.924   6.852  20.044  0.00  0.00    -0.033 A 
ATOM     18  C   UNL     1      17.551   5.776  19.414  0.00  0.00    +0.008 A 
ATOM     19  C   UNL     1      17.622   7.616  20.979  0.00  0.00    +0.008 A 
ATOM     20  C   UNL     1      18.874   5.464  19.721  0.00  0.00    +0.046 A 
ATOM     21  C   UNL     1      18.947   7.303  21.286  0.00  0.00    +0.046 A 
ATOM     22  C   UNL     1      19.573   6.227  20.657  0.00  0.00    +0.120 A 
BRANCH  22   3
ATOM      3  O   UNL     1      20.865   5.923  20.955  0.00  0.00    -0.495 OA
ATOM     23  C   UNL     1      21.153   5.566  22.306  0.00  0.00    +0.277 C 
ENDBRANCH  22   3
ENDBRANCH  12  15
ENDBRANCH   4  12
ENDBRANCH   6   4
TORSDOF 7
ENDMDL
MODEL 7
REMARK VINA RESULT:      -6.5     30.398     32.361
REMARK  Name = 75536110
REMARK  8 active torsions:
REMARK  status: ('A' for Active; 'I' for Inactive)
REMARK    1  A    between atoms: O_1  and  C_8
REMARK    2  A    between atoms: O_2  and  C_10
REMARK    3  A    between atoms: O_3  and  C_22
REMARK    4  A    between atoms: O_3  and  C_23
REMARK    5  A    between atoms: N_4  and  C_6
REMARK    6  A    between atoms: N_4  and  C_12
REMARK    7  A    between atoms: C_7  and  C_11
REMARK    8  A    between atoms: C_12  and  C_15
REMARK                            x       y       z     vdW  Elec       q    Type
REMARK                         _______ _______ _______ _____ _____    ______ ____
ROOT
ATOM      6  C   UNL     1     -15.950   0.717  29.994  0.00  0.00    +0.093 C 
ATOM      7  C   UNL     1     -14.971   1.927  29.889  0.00  0.00    +0.042 C 
ATOM      8  C   UNL     1     -15.055  -0.498  30.286  0.00  0.00    +0.160 C 
ATOM      9  C   UNL     1     -13.560   1.348  30.109  0.00  0.00    +0.043 C 
ATOM     10  C   UNL     1     -13.702  -0.110  29.697  0.00  0.00    +0.145 C 
ENDROOT
BRANCH   7  11
ATOM      5  N   UNL     1     -15.701   3.842  33.081  0.00  0.00    -0.263 NA
ATOM     11  C   UNL     1     -15.300   3.070  30.826  0.00  0.00    -0.025 A 
ATOM     13  C   UNL     1     -15.507   4.357  30.340  0.00  0.00    +0.007 A 
ATOM     14  C   UNL     1     -15.408   2.867  32.192  0.00  0.00    +0.114 A 
ATOM     16  C   UNL     1     -15.809   5.387  31.225  0.00  0.00    +0.020 A 
ATOM     17  C   UNL     1     -15.895   5.080  32.573  0.00  0.00    +0.111 A 
ENDBRANCH   7  11
BRANCH   8   1
ATOM      1  O   UNL     1     -14.963  -0.658  31.701  0.00  0.00    -0.388 OA
ATOM     25  H   UNL     1     -14.364   0.034  32.033  0.00  0.00    +0.210 HD
ENDBRANCH   8   1
BRANCH  10   2
ATOM      2  O   UNL     1     -12.642  -0.895  30.205  0.00  0.00    -0.389 OA
ATOM     26  H   UNL     1     -12.844  -1.824  30.000  0.00  0.00    +0.210 HD
ENDBRANCH  10   2
BRANCH   6   4
ATOM      4  N   UNL     1     -16.639   0.532  28.714  0.00  0.00    -0.306 NA
ATOM     24  H   UNL     1     -17.303  -0.238  28.800  0.00  0.00    +0.123 HD
BRANCH   4  12
ATOM     12  C   UNL     1     -17.369   1.735  28.339  0.00  0.00    +0.116 C 
BRANCH  12  15
ATOM     15  C   UNL     1     -17.028   2.185  26.944  0.00  0.00    -0.033 A 
ATOM     18  C   UNL     1     -16.421   3.424  26.739  0.00  0.00    +0.008 A 
ATOM     19  C   UNL     1     -17.319   1.362  25.856  0.00  0.00    +0.008 A 
ATOM     20  C   UNL     1     -16.106   3.841  25.446  0.00  0.00    +0.046 A 
ATOM     21  C   UNL     1     -17.003   1.779  24.562  0.00  0.00    +0.046 A 
ATOM     22  C   UNL     1     -16.397   3.018  24.357  0.00  0.00    +0.120 A 
BRANCH  22   3
ATOM      3  O   UNL     1     -16.087   3.424  23.096  0.00  0.00    -0.495 OA
ATOM     23  C   UNL     1     -15.174   4.513  22.970  0.00  0.00    +0.277 C 
ENDBRANCH  22   3
ENDBRANCH  12  15
ENDBRANCH   4  12
ENDBRANCH   6   4
TORSDOF 7
ENDMDL
MODEL 8
REMARK VINA RESULT:      -6.3     14.834     18.188
REMARK  Name = 75536110
REMARK  8 active torsions:
REMARK  status: ('A' for Active; 'I' for Inactive)
REMARK    1  A    between atoms: O_1  and  C_8
REMARK    2  A    between atoms: O_2  and  C_10
REMARK    3  A    between atoms: O_3  and  C_22
REMARK    4  A    between atoms: O_3  and  C_23
REMARK    5  A    between atoms: N_4  and  C_6
REMARK    6  A    between atoms: N_4  and  C_12
REMARK    7  A    between atoms: C_7  and  C_11
REMARK    8  A    between atoms: C_12  and  C_15
REMARK                            x       y       z     vdW  Elec       q    Type
REMARK                         _______ _______ _______ _____ _____    ______ ____
ROOT
ATOM      6  C   UNL     1      12.366   4.998   1.788  0.00  0.00    +0.093 C 
ATOM      7  C   UNL     1      12.069   3.813   0.817  0.00  0.00    +0.042 C 
ATOM      8  C   UNL     1      13.898   5.043   1.908  0.00  0.00    +0.160 C 
ATOM      9  C   UNL     1      13.441   3.224   0.439  0.00  0.00    +0.043 C 
ATOM     10  C   UNL     1      14.333   3.612   1.610  0.00  0.00    +0.145 C 
ENDROOT
BRANCH   7  11
ATOM      5  N   UNL     1      10.762   3.937  -2.743  0.00  0.00    -0.263 NA
ATOM     11  C   UNL     1      11.231   4.195  -0.385  0.00  0.00    -0.025 A 
ATOM     13  C   UNL     1      10.199   5.120  -0.273  0.00  0.00    +0.007 A 
ATOM     14  C   UNL     1      11.471   3.638  -1.630  0.00  0.00    +0.114 A 
ATOM     16  C   UNL     1       9.447   5.452  -1.395  0.00  0.00    +0.020 A 
ATOM     17  C   UNL     1       9.766   4.839  -2.595  0.00  0.00    +0.111 A 
ENDBRANCH   7  11
BRANCH   8   1
ATOM      1  O   UNL     1      14.399   5.940   0.918  0.00  0.00    -0.388 OA
ATOM     25  H   UNL     1      13.640   6.252   0.396  0.00  0.00    +0.210 HD
ENDBRANCH   8   1
BRANCH  10   2
ATOM      2  O   UNL     1      15.702   3.519   1.269  0.00  0.00    -0.389 OA
ATOM     26  H   UNL     1      15.793   3.811   0.346  0.00  0.00    +0.210 HD
ENDBRANCH  10   2
BRANCH   6   4
ATOM      4  N   UNL     1      11.771   4.720   3.097  0.00  0.00    -0.306 NA
ATOM     24  H   UNL     1      12.502   4.406   3.736  0.00  0.00    +0.123 HD
BRANCH   4  12
ATOM     12  C   UNL     1      11.152   5.916   3.651  0.00  0.00    +0.116 C 
BRANCH  12  15
ATOM     15  C   UNL     1      10.943   5.801   5.138  0.00  0.00    -0.033 A 
ATOM     18  C   UNL     1       9.949   4.960   5.640  0.00  0.00    +0.008 A 
ATOM     19  C   UNL     1      11.744   6.535   6.013  0.00  0.00    +0.008 A 
ATOM     20  C   UNL     1       9.756   4.855   7.017  0.00  0.00    +0.046 A 
ATOM     21  C   UNL     1      11.551   6.429   7.391  0.00  0.00    +0.046 A 
ATOM     22  C   UNL     1      10.556   5.589   7.893  0.00  0.00    +0.120 A 
BRANCH  22   3
ATOM      3  O   UNL     1      10.369   5.484   9.236  0.00  0.00    -0.495 OA
ATOM     23  C   UNL     1       9.346   4.595   9.682  0.00  0.00    +0.277 C 
ENDBRANCH  22   3
ENDBRANCH  12  15
ENDBRANCH   4  12
ENDBRANCH   6   4
TORSDOF 7
ENDMDL
MODEL 9
REMARK VINA RESULT:      -6.2     25.122     28.303
REMARK  Name = 75536110
REMARK  8 active torsions:
REMARK  status: ('A' for Active; 'I' for Inactive)
REMARK    1  A    between atoms: O_1  and  C_8
REMARK    2  A    between atoms: O_2  and  C_10
REMARK    3  A    between atoms: O_3  and  C_22
REMARK    4  A    between atoms: O_3  and  C_23
REMARK    5  A    between atoms: N_4  and  C_6
REMARK    6  A    between atoms: N_4  and  C_12
REMARK    7  A    between atoms: C_7  and  C_11
REMARK    8  A    between atoms: C_12  and  C_15
REMARK                            x       y       z     vdW  Elec       q    Type
REMARK                         _______ _______ _______ _____ _____    ______ ____
ROOT
ATOM      6  C   UNL     1     -13.991   6.322  21.065  0.00  0.00    +0.093 C 
ATOM      7  C   UNL     1     -15.497   6.727  21.077  0.00  0.00    +0.042 C 
ATOM      8  C   UNL     1     -13.796   5.466  22.327  0.00  0.00    +0.160 C 
ATOM      9  C   UNL     1     -16.092   6.100  22.352  0.00  0.00    +0.043 C 
ATOM     10  C   UNL     1     -14.890   5.951  23.273  0.00  0.00    +0.145 C 
ENDROOT
BRANCH   7  11
ATOM      5  N   UNL     1     -17.576   4.724  18.615  0.00  0.00    -0.263 NA
ATOM     11  C   UNL     1     -16.248   6.347  19.818  0.00  0.00    -0.025 A 
ATOM     13  C   UNL     1     -16.311   7.215  18.733  0.00  0.00    +0.007 A 
ATOM     14  C   UNL     1     -16.890   5.125  19.709  0.00  0.00    +0.114 A 
ATOM     16  C   UNL     1     -17.007   6.838  17.589  0.00  0.00    +0.020 A 
ATOM     17  C   UNL     1     -17.616   5.594  17.580  0.00  0.00    +0.111 A 
ENDBRANCH   7  11
BRANCH   8   1
ATOM      1  O   UNL     1     -14.000   4.098  21.978  0.00  0.00    -0.388 OA
ATOM     25  H   UNL     1     -14.886   4.028  21.582  0.00  0.00    +0.210 HD
ENDBRANCH   8   1
BRANCH  10   2
ATOM      2  O   UNL     1     -15.151   5.036  24.318  0.00  0.00    -0.389 OA
ATOM     26  H   UNL     1     -14.828   5.436  25.144  0.00  0.00    +0.210 HD
ENDBRANCH  10   2
BRANCH   6   4
ATOM      4  N   UNL     1     -13.159   7.525  21.145  0.00  0.00    -0.306 NA
ATOM     24  H   UNL     1     -13.212   7.906  22.090  0.00  0.00    +0.123 HD
BRANCH   4  12
ATOM     12  C   UNL     1     -11.768   7.216  20.846  0.00  0.00    +0.116 C 
BRANCH  12  15
ATOM     15  C   UNL     1     -11.257   8.011  19.674  0.00  0.00    -0.033 A 
ATOM     18  C   UNL     1     -11.214   7.433  18.405  0.00  0.00    +0.008 A 
ATOM     19  C   UNL     1     -10.826   9.324  19.858  0.00  0.00    +0.008 A 
ATOM     20  C   UNL     1     -10.739   8.170  17.320  0.00  0.00    +0.046 A 
ATOM     21  C   UNL     1     -10.352  10.062  18.772  0.00  0.00    +0.046 A 
ATOM     22  C   UNL     1     -10.308   9.484  17.503  0.00  0.00    +0.120 A 
BRANCH  22   3
ATOM      3  O   UNL     1      -9.847  10.203  16.444  0.00  0.00    -0.495 OA
ATOM     23  C   UNL     1      -9.683  11.608  16.636  0.00  0.00    +0.277 C 
ENDBRANCH  22   3
ENDBRANCH  12  15
ENDBRANCH   4  12
ENDBRANCH   6   4
TORSDOF 7
ENDMDL
MODEL 10
REMARK VINA RESULT:      -6.1     13.807     17.185
REMARK  Name = 75536110
REMARK  8 active torsions:
REMARK  status: ('A' for Active; 'I' for Inactive)
REMARK    1  A    between atoms: O_1  and  C_8
REMARK    2  A    between atoms: O_2  and  C_10
REMARK    3  A    between atoms: O_3  and  C_22
REMARK    4  A    between atoms: O_3  and  C_23
REMARK    5  A    between atoms: N_4  and  C_6
REMARK    6  A    between atoms: N_4  and  C_12
REMARK    7  A    between atoms: C_7  and  C_11
REMARK    8  A    between atoms: C_12  and  C_15
REMARK                            x       y       z     vdW  Elec       q    Type
REMARK                         _______ _______ _______ _____ _____    ______ ____
ROOT
ATOM      6  C   UNL     1      10.770   6.667   5.126  0.00  0.00    +0.093 C 
ATOM      7  C   UNL     1       9.545   5.794   5.542  0.00  0.00    +0.042 C 
ATOM      8  C   UNL     1      10.167   7.892   4.420  0.00  0.00    +0.160 C 
ATOM      9  C   UNL     1       8.300   6.550   5.041  0.00  0.00    +0.043 C 
ATOM     10  C   UNL     1       8.829   7.389   3.887  0.00  0.00    +0.145 C 
ENDROOT
BRANCH   7  11
ATOM      5  N   UNL     1       9.835   3.867   8.797  0.00  0.00    -0.263 NA
ATOM     11  C   UNL     1       9.493   5.470   7.020  0.00  0.00    -0.025 A 
ATOM     13  C   UNL     1       9.071   6.418   7.946  0.00  0.00    +0.007 A 
ATOM     14  C   UNL     1       9.860   4.221   7.492  0.00  0.00    +0.114 A 
ATOM     16  C   UNL     1       9.032   6.091   9.298  0.00  0.00    +0.020 A 
ATOM     17  C   UNL     1       9.420   4.814   9.668  0.00  0.00    +0.111 A 
ENDBRANCH   7  11
BRANCH   8   1
ATOM      1  O   UNL     1       9.970   8.919   5.391  0.00  0.00    -0.388 OA
ATOM     25  H   UNL     1      10.532   9.671   5.137  0.00  0.00    +0.210 HD
ENDBRANCH   8   1
BRANCH  10   2
ATOM      2  O   UNL     1       7.941   8.441   3.564  0.00  0.00    -0.389 OA
ATOM     26  H   UNL     1       8.293   8.887   2.775  0.00  0.00    +0.210 HD
ENDBRANCH  10   2
BRANCH   6   4
ATOM      4  N   UNL     1      11.611   5.917   4.191  0.00  0.00    -0.306 NA
ATOM     24  H   UNL     1      12.476   5.649   4.661  0.00  0.00    +0.123 HD
BRANCH   4  12
ATOM     12  C   UNL     1      10.935   4.708   3.740  0.00  0.00    +0.116 C 
BRANCH  12  15
ATOM     15  C   UNL     1      11.164   4.454   2.273  0.00  0.00    -0.033 A 
ATOM     18  C   UNL     1      12.288   3.740   1.856  0.00  0.00    +0.008 A 
ATOM     19  C   UNL     1      10.251   4.931   1.333  0.00  0.00    +0.008 A 
ATOM     20  C   UNL     1      12.499   3.506   0.497  0.00  0.00    +0.046 A 
ATOM     21  C   UNL     1      10.463   4.696  -0.026  0.00  0.00    +0.046 A 
ATOM     22  C   UNL     1      11.587   3.983  -0.444  0.00  0.00    +0.120 A 
BRANCH  22   3
ATOM      3  O   UNL     1      11.792   3.753  -1.769  0.00  0.00    -0.495 OA
ATOM     23  C   UNL     1      12.106   2.415  -2.154  0.00  0.00    +0.277 C 
ENDBRANCH  22   3
ENDBRANCH  12  15
ENDBRANCH   4  12
ENDBRANCH   6   4
TORSDOF 7
ENDMDL
