MODEL 1
REMARK VINA RESULT:      -6.7      0.000      0.000
REMARK  Name = 40533566
REMARK  3 active torsions:
REMARK  status: ('A' for Active; 'I' for Inactive)
REMARK    1  A    between atoms: S_1  and  N_6
REMARK    2  A    between atoms: S_1  and  C_20
REMARK    3  A    between atoms: C_18  and  C_21
REMARK                            x       y       z     vdW  Elec       q    Type
REMARK                         _______ _______ _______ _____ _____    ______ ____
ROOT
ATOM      5  O   UNL     1     -14.866   9.198  19.988  0.00  0.00    -0.267 OA
ATOM      6  N   UNL     1     -11.428   9.582  16.400  0.00  0.00    -0.175 NA
ATOM      7  N   UNL     1     -12.651   9.473  19.311  0.00  0.00    -0.311 N 
ATOM      9  C   UNL     1     -11.867  11.493  17.946  0.00  0.00    +0.025 C 
ATOM     10  C   UNL     1     -10.256   9.754  18.587  0.00  0.00    +0.052 C 
ATOM     11  C   UNL     1     -10.527  11.255  18.627  0.00  0.00    +0.017 C 
ATOM     12  C   UNL     1     -11.821  11.017  16.485  0.00  0.00    +0.114 C 
ATOM     13  C   UNL     1     -10.153   9.290  17.122  0.00  0.00    +0.119 C 
ATOM     14  C   UNL     1     -12.967  10.795  18.755  0.00  0.00    +0.130 C 
ATOM     15  C   UNL     1     -11.344   8.982  19.310  0.00  0.00    +0.026 A 
ATOM     16  C   UNL     1     -11.057   7.825  19.927  0.00  0.00    +0.022 A 
ATOM     17  C   UNL     1     -13.708   8.781  19.936  0.00  0.00    +0.259 A 
ATOM     18  C   UNL     1     -13.364   7.469  20.588  0.00  0.00    +0.048 A 
ATOM     19  C   UNL     1     -12.086   7.057  20.570  0.00  0.00    +0.015 A 
ENDROOT
BRANCH  18  21
ATOM      8  N   UNL     1     -16.237   5.088  20.999  0.00  0.00    -0.263 NA
ATOM     21  C   UNL     1     -14.399   6.641  21.230  0.00  0.00    +0.005 A 
ATOM     24  C   UNL     1     -14.538   6.611  22.613  0.00  0.00    +0.011 A 
ATOM     26  C   UNL     1     -15.266   5.868  20.474  0.00  0.00    +0.119 A 
ATOM     27  C   UNL     1     -15.525   5.820  23.190  0.00  0.00    +0.020 A 
ATOM     28  C   UNL     1     -16.342   5.084  22.347  0.00  0.00    +0.111 A 
ENDBRANCH  18  21
BRANCH   6   1
ATOM      1  S   UNL     1     -11.586   8.859  14.858  0.00  0.00    +0.067 S 
ATOM      3  O   UNL     1     -10.665   7.747  14.758  0.00  0.00    -0.152 OA
ATOM      4  O   UNL     1     -11.610   9.899  13.851  0.00  0.00    -0.152 OA
BRANCH   1  20
ATOM      2  S   UNL     1     -13.793   7.420  13.576  0.00  0.00    -0.077 S 
ATOM     20  C   UNL     1     -13.218   8.197  14.990  0.00  0.00    +0.143 A 
ATOM     22  C   UNL     1     -14.146   8.173  16.008  0.00  0.00    +0.036 A 
ATOM     23  C   UNL     1     -15.346   7.507  15.622  0.00  0.00    +0.010 A 
ATOM     25  C   UNL     1     -15.288   7.048  14.325  0.00  0.00    +0.047 A 
ENDBRANCH   1  20
ENDBRANCH   6   1
TORSDOF 3
ENDMDL
MODEL 2
REMARK VINA RESULT:      -6.7     24.370     26.513
REMARK  Name = 40533566
REMARK  3 active torsions:
REMARK  status: ('A' for Active; 'I' for Inactive)
REMARK    1  A    between atoms: S_1  and  N_6
REMARK    2  A    between atoms: S_1  and  C_20
REMARK    3  A    between atoms: C_18  and  C_21
REMARK                            x       y       z     vdW  Elec       q    Type
REMARK                         _______ _______ _______ _____ _____    ______ ____
ROOT
ATOM      5  O   UNL     1      11.589  13.045  20.969  0.00  0.00    -0.267 OA
ATOM      6  N   UNL     1      13.930   9.123  18.974  0.00  0.00    -0.175 NA
ATOM      7  N   UNL     1      13.548  11.945  20.342  0.00  0.00    -0.311 N 
ATOM      9  C   UNL     1      14.089  11.374  17.905  0.00  0.00    +0.025 C 
ATOM     10  C   UNL     1      15.667  10.755  19.682  0.00  0.00    +0.052 C 
ATOM     11  C   UNL     1      15.541  11.486  18.348  0.00  0.00    +0.017 C 
ATOM     12  C   UNL     1      13.692   9.899  17.724  0.00  0.00    +0.114 C 
ATOM     13  C   UNL     1      15.325   9.267  19.486  0.00  0.00    +0.119 C 
ATOM     14  C   UNL     1      13.200  12.098  18.923  0.00  0.00    +0.130 C 
ATOM     15  C   UNL     1      14.760  11.371  20.731  0.00  0.00    +0.026 A 
ATOM     16  C   UNL     1      15.110  11.348  22.027  0.00  0.00    +0.022 A 
ATOM     17  C   UNL     1      12.651  12.499  21.277  0.00  0.00    +0.259 A 
ATOM     18  C   UNL     1      13.052  12.426  22.725  0.00  0.00    +0.048 A 
ATOM     19  C   UNL     1      14.238  11.879  23.036  0.00  0.00    +0.015 A 
ENDROOT
BRANCH  18  21
ATOM      8  N   UNL     1      10.513  12.477  25.489  0.00  0.00    -0.263 NA
ATOM     21  C   UNL     1      12.169  12.933  23.788  0.00  0.00    +0.005 A 
ATOM     24  C   UNL     1      12.134  14.287  24.107  0.00  0.00    +0.011 A 
ATOM     26  C   UNL     1      11.346  12.078  24.503  0.00  0.00    +0.119 A 
ATOM     27  C   UNL     1      11.289  14.736  25.117  0.00  0.00    +0.020 A 
ATOM     28  C   UNL     1      10.506  13.799  25.772  0.00  0.00    +0.111 A 
ENDBRANCH  18  21
BRANCH   6   1
ATOM      1  S   UNL     1      13.295   7.534  18.991  0.00  0.00    +0.067 S 
ATOM      3  O   UNL     1      14.302   6.627  19.502  0.00  0.00    -0.152 OA
ATOM      4  O   UNL     1      12.633   7.277  17.730  0.00  0.00    -0.152 OA
BRANCH   1  20
ATOM      2  S   UNL     1      11.677   6.271  21.082  0.00  0.00    -0.077 S 
ATOM     20  C   UNL     1      12.050   7.710  20.230  0.00  0.00    +0.143 A 
ATOM     22  C   UNL     1      11.297   8.778  20.667  0.00  0.00    +0.036 A 
ATOM     23  C   UNL     1      10.403   8.410  21.714  0.00  0.00    +0.010 A 
ATOM     25  C   UNL     1      10.507   7.076  22.038  0.00  0.00    +0.047 A 
ENDBRANCH   1  20
ENDBRANCH   6   1
TORSDOF 3
ENDMDL
MODEL 3
REMARK VINA RESULT:      -6.5     27.472     30.414
REMARK  Name = 40533566
REMARK  3 active torsions:
REMARK  status: ('A' for Active; 'I' for Inactive)
REMARK    1  A    between atoms: S_1  and  N_6
REMARK    2  A    between atoms: S_1  and  C_20
REMARK    3  A    between atoms: C_18  and  C_21
REMARK                            x       y       z     vdW  Elec       q    Type
REMARK                         _______ _______ _______ _____ _____    ______ ____
ROOT
ATOM      5  O   UNL     1      12.352   7.696   2.844  0.00  0.00    -0.267 OA
ATOM      6  N   UNL     1      13.520   4.465  -0.766  0.00  0.00    -0.175 NA
ATOM      7  N   UNL     1      12.871   5.537   2.134  0.00  0.00    -0.311 N 
ATOM      9  C   UNL     1      15.128   4.934   1.086  0.00  0.00    +0.025 C 
ATOM     10  C   UNL     1      13.414   3.199   1.372  0.00  0.00    +0.052 C 
ATOM     11  C   UNL     1      14.869   3.551   1.666  0.00  0.00    +0.017 C 
ATOM     12  C   UNL     1      14.895   4.933  -0.434  0.00  0.00    +0.114 C 
ATOM     13  C   UNL     1      13.196   3.142  -0.152  0.00  0.00    +0.119 C 
ATOM     14  C   UNL     1      14.242   5.953   1.813  0.00  0.00    +0.130 C 
ATOM     15  C   UNL     1      12.469   4.205   2.002  0.00  0.00    +0.026 A 
ATOM     16  C   UNL     1      11.249   3.825   2.412  0.00  0.00    +0.022 A 
ATOM     17  C   UNL     1      12.022   6.521   2.679  0.00  0.00    +0.259 A 
ATOM     18  C   UNL     1      10.647   6.073   3.096  0.00  0.00    +0.048 A 
ATOM     19  C   UNL     1      10.325   4.777   2.961  0.00  0.00    +0.015 A 
ENDROOT
BRANCH  18  21
ATOM      8  N   UNL     1       8.651   8.081   5.560  0.00  0.00    -0.263 NA
ATOM     21  C   UNL     1       9.664   7.027   3.635  0.00  0.00    +0.005 A 
ATOM     24  C   UNL     1       8.838   7.761   2.790  0.00  0.00    +0.011 A 
ATOM     26  C   UNL     1       9.532   7.223   5.001  0.00  0.00    +0.119 A 
ATOM     27  C   UNL     1       7.918   8.654   3.329  0.00  0.00    +0.020 A 
ATOM     28  C   UNL     1       7.865   8.777   4.708  0.00  0.00    +0.111 A 
ENDBRANCH  18  21
BRANCH   6   1
ATOM      1  S   UNL     1      13.044   4.658  -2.398  0.00  0.00    +0.067 S 
ATOM      3  O   UNL     1      13.120   3.377  -3.069  0.00  0.00    -0.152 OA
ATOM      4  O   UNL     1      13.703   5.826  -2.945  0.00  0.00    -0.152 OA
BRANCH   1  20
ATOM      2  S   UNL     1      10.393   4.963  -3.607  0.00  0.00    -0.077 S 
ATOM     20  C   UNL     1      11.337   5.052  -2.180  0.00  0.00    +0.143 A 
ATOM     22  C   UNL     1      10.586   5.425  -1.086  0.00  0.00    +0.036 A 
ATOM     23  C   UNL     1       9.219   5.639  -1.424  0.00  0.00    +0.010 A 
ATOM     25  C   UNL     1       8.976   5.423  -2.762  0.00  0.00    +0.047 A 
ENDBRANCH   1  20
ENDBRANCH   6   1
TORSDOF 3
ENDMDL
MODEL 4
REMARK VINA RESULT:      -6.4     26.540     29.915
REMARK  Name = 40533566
REMARK  3 active torsions:
REMARK  status: ('A' for Active; 'I' for Inactive)
REMARK    1  A    between atoms: S_1  and  N_6
REMARK    2  A    between atoms: S_1  and  C_20
REMARK    3  A    between atoms: C_18  and  C_21
REMARK                            x       y       z     vdW  Elec       q    Type
REMARK                         _______ _______ _______ _____ _____    ______ ____
ROOT
ATOM      5  O   UNL     1      10.868   6.792   0.932  0.00  0.00    -0.267 OA
ATOM      6  N   UNL     1      11.293   7.082   5.889  0.00  0.00    -0.175 NA
ATOM      7  N   UNL     1      10.254   6.099   3.072  0.00  0.00    -0.311 N 
ATOM      9  C   UNL     1       9.142   7.667   4.765  0.00  0.00    +0.025 C 
ATOM     10  C   UNL     1       9.600   5.334   5.381  0.00  0.00    +0.052 C 
ATOM     11  C   UNL     1       8.506   6.396   5.311  0.00  0.00    +0.017 C 
ATOM     12  C   UNL     1      10.271   8.148   5.692  0.00  0.00    +0.114 C 
ATOM     13  C   UNL     1      10.701   5.792   6.355  0.00  0.00    +0.119 C 
ATOM     14  C   UNL     1       9.632   7.403   3.335  0.00  0.00    +0.130 C 
ATOM     15  C   UNL     1      10.188   5.064   4.008  0.00  0.00    +0.026 A 
ATOM     16  C   UNL     1      10.660   3.846   3.701  0.00  0.00    +0.022 A 
ATOM     17  C   UNL     1      10.822   5.915   1.796  0.00  0.00    +0.259 A 
ATOM     18  C   UNL     1      11.376   4.549   1.493  0.00  0.00    +0.048 A 
ATOM     19  C   UNL     1      11.267   3.590   2.426  0.00  0.00    +0.015 A 
ENDROOT
BRANCH  18  21
ATOM      8  N   UNL     1      11.828   3.696  -2.135  0.00  0.00    -0.263 NA
ATOM     21  C   UNL     1      12.033   4.259   0.207  0.00  0.00    +0.005 A 
ATOM     24  C   UNL     1      13.419   4.266   0.092  0.00  0.00    +0.011 A 
ATOM     26  C   UNL     1      11.290   3.971  -0.926  0.00  0.00    +0.119 A 
ATOM     27  C   UNL     1      14.010   3.988  -1.136  0.00  0.00    +0.020 A 
ATOM     28  C   UNL     1      13.178   3.712  -2.209  0.00  0.00    +0.111 A 
ENDBRANCH  18  21
BRANCH   6   1
ATOM      1  S   UNL     1      12.726   7.568   6.688  0.00  0.00    +0.067 S 
ATOM      3  O   UNL     1      13.140   6.521   7.598  0.00  0.00    -0.152 OA
ATOM      4  O   UNL     1      12.570   8.933   7.145  0.00  0.00    -0.152 OA
BRANCH   1  20
ATOM      2  S   UNL     1      15.457   8.026   5.730  0.00  0.00    -0.077 S 
ATOM     20  C   UNL     1      13.853   7.578   5.329  0.00  0.00    +0.143 A 
ATOM     22  C   UNL     1      13.715   7.297   3.987  0.00  0.00    +0.036 A 
ATOM     23  C   UNL     1      14.942   7.452   3.279  0.00  0.00    +0.010 A 
ATOM     25  C   UNL     1      15.971   7.844   4.107  0.00  0.00    +0.047 A 
ENDBRANCH   1  20
ENDBRANCH   6   1
TORSDOF 3
ENDMDL
MODEL 5
REMARK VINA RESULT:      -6.3     21.520     22.652
REMARK  Name = 40533566
REMARK  3 active torsions:
REMARK  status: ('A' for Active; 'I' for Inactive)
REMARK    1  A    between atoms: S_1  and  N_6
REMARK    2  A    between atoms: S_1  and  C_20
REMARK    3  A    between atoms: C_18  and  C_21
REMARK                            x       y       z     vdW  Elec       q    Type
REMARK                         _______ _______ _______ _____ _____    ______ ____
ROOT
ATOM      5  O   UNL     1      -6.764 -10.485  14.074  0.00  0.00    -0.267 OA
ATOM      6  N   UNL     1      -2.591 -13.126  13.404  0.00  0.00    -0.175 NA
ATOM      7  N   UNL     1      -4.444 -10.692  14.192  0.00  0.00    -0.311 N 
ATOM      9  C   UNL     1      -2.981 -11.022  12.117  0.00  0.00    +0.025 C 
ATOM     10  C   UNL     1      -1.940 -10.916  14.339  0.00  0.00    +0.052 C 
ATOM     11  C   UNL     1      -1.908 -10.318  12.935  0.00  0.00    +0.017 C 
ATOM     12  C   UNL     1      -2.699 -12.532  12.041  0.00  0.00    +0.114 C 
ATOM     13  C   UNL     1      -1.600 -12.416  14.267  0.00  0.00    +0.119 C 
ATOM     14  C   UNL     1      -4.354 -10.714  12.727  0.00  0.00    +0.130 C 
ATOM     15  C   UNL     1      -3.297 -10.713  14.988  0.00  0.00    +0.026 A 
ATOM     16  C   UNL     1      -3.396 -10.574  16.319  0.00  0.00    +0.022 A 
ATOM     17  C   UNL     1      -5.732 -10.543  14.745  0.00  0.00    +0.259 A 
ATOM     18  C   UNL     1      -5.816 -10.427  16.243  0.00  0.00    +0.048 A 
ATOM     19  C   UNL     1      -4.677 -10.435  16.953  0.00  0.00    +0.015 A 
ENDROOT
BRANCH  18  21
ATOM      8  N   UNL     1      -8.865 -11.363  18.223  0.00  0.00    -0.263 NA
ATOM     21  C   UNL     1      -7.115 -10.313  16.928  0.00  0.00    +0.005 A 
ATOM     24  C   UNL     1      -7.815  -9.111  16.943  0.00  0.00    +0.011 A 
ATOM     26  C   UNL     1      -7.678 -11.399  17.577  0.00  0.00    +0.119 A 
ATOM     27  C   UNL     1      -9.040  -9.035  17.598  0.00  0.00    +0.020 A 
ATOM     28  C   UNL     1      -9.516 -10.179  18.217  0.00  0.00    +0.111 A 
ENDBRANCH  18  21
BRANCH   6   1
ATOM      1  S   UNL     1      -2.534 -14.835  13.464  0.00  0.00    +0.067 S 
ATOM      3  O   UNL     1      -1.179 -15.254  13.758  0.00  0.00    -0.152 OA
ATOM      4  O   UNL     1      -3.248 -15.371  12.325  0.00  0.00    -0.152 OA
BRANCH   1  20
ATOM      2  S   UNL     1      -3.223 -16.632  15.674  0.00  0.00    -0.077 S 
ATOM     20  C   UNL     1      -3.512 -15.128  14.905  0.00  0.00    +0.143 A 
ATOM     22  C   UNL     1      -4.479 -14.393  15.554  0.00  0.00    +0.036 A 
ATOM     23  C   UNL     1      -4.989 -15.072  16.698  0.00  0.00    +0.010 A 
ATOM     25  C   UNL     1      -4.393 -16.300  16.880  0.00  0.00    +0.047 A 
ENDBRANCH   1  20
ENDBRANCH   6   1
TORSDOF 3
ENDMDL
MODEL 6
REMARK VINA RESULT:      -6.2     15.166     17.042
REMARK  Name = 40533566
REMARK  3 active torsions:
REMARK  status: ('A' for Active; 'I' for Inactive)
REMARK    1  A    between atoms: S_1  and  N_6
REMARK    2  A    between atoms: S_1  and  C_20
REMARK    3  A    between atoms: C_18  and  C_21
REMARK                            x       y       z     vdW  Elec       q    Type
REMARK                         _______ _______ _______ _____ _____    ______ ____
ROOT
ATOM      5  O   UNL     1      -6.555   9.656   5.344  0.00  0.00    -0.267 OA
ATOM      6  N   UNL     1      -1.847  10.453   3.917  0.00  0.00    -0.175 NA
ATOM      7  N   UNL     1      -4.265   9.284   5.580  0.00  0.00    -0.311 N 
ATOM      9  C   UNL     1      -2.619  11.150   6.186  0.00  0.00    +0.025 C 
ATOM     10  C   UNL     1      -1.794   8.865   5.829  0.00  0.00    +0.052 C 
ATOM     11  C   UNL     1      -1.800  10.031   6.814  0.00  0.00    +0.017 C 
ATOM     12  C   UNL     1      -1.991  11.600   4.857  0.00  0.00    +0.114 C 
ATOM     13  C   UNL     1      -1.112   9.301   4.519  0.00  0.00    +0.119 C 
ATOM     14  C   UNL     1      -4.066  10.672   6.017  0.00  0.00    +0.130 C 
ATOM     15  C   UNL     1      -3.203   8.376   5.552  0.00  0.00    +0.026 A 
ATOM     16  C   UNL     1      -3.428   7.085   5.263  0.00  0.00    +0.022 A 
ATOM     17  C   UNL     1      -5.588   8.893   5.296  0.00  0.00    +0.259 A 
ATOM     18  C   UNL     1      -5.805   7.447   4.940  0.00  0.00    +0.048 A 
ATOM     19  C   UNL     1      -4.749   6.618   4.947  0.00  0.00    +0.015 A 
ENDROOT
BRANCH  18  21
ATOM      8  N   UNL     1      -9.048   7.019   3.098  0.00  0.00    -0.263 NA
ATOM     21  C   UNL     1      -7.140   6.940   4.581  0.00  0.00    +0.005 A 
ATOM     24  C   UNL     1      -7.758   5.948   5.335  0.00  0.00    +0.011 A 
ATOM     26  C   UNL     1      -7.822   7.438   3.482  0.00  0.00    +0.119 A 
ATOM     27  C   UNL     1      -9.020   5.491   4.971  0.00  0.00    +0.020 A 
ATOM     28  C   UNL     1      -9.617   6.054   3.855  0.00  0.00    +0.111 A 
ENDBRANCH  18  21
BRANCH   6   1
ATOM      1  S   UNL     1      -1.400  10.859   2.316  0.00  0.00    +0.067 S 
ATOM      3  O   UNL     1      -0.453   9.881   1.825  0.00  0.00    -0.152 OA
ATOM      4  O   UNL     1      -1.108  12.276   2.253  0.00  0.00    -0.152 OA
BRANCH   1  20
ATOM      2  S   UNL     1      -2.853  10.682  -0.223  0.00  0.00    -0.077 S 
ATOM     20  C   UNL     1      -2.935  10.587   1.486  0.00  0.00    +0.143 A 
ATOM     22  C   UNL     1      -4.210  10.309   1.927  0.00  0.00    +0.036 A 
ATOM     23  C   UNL     1      -5.132  10.173   0.849  0.00  0.00    +0.010 A 
ATOM     25  C   UNL     1      -4.526  10.351  -0.375  0.00  0.00    +0.047 A 
ENDBRANCH   1  20
ENDBRANCH   6   1
TORSDOF 3
ENDMDL
MODEL 7
REMARK VINA RESULT:      -6.2     26.443     29.386
REMARK  Name = 40533566
REMARK  3 active torsions:
REMARK  status: ('A' for Active; 'I' for Inactive)
REMARK    1  A    between atoms: S_1  and  N_6
REMARK    2  A    between atoms: S_1  and  C_20
REMARK    3  A    between atoms: C_18  and  C_21
REMARK                            x       y       z     vdW  Elec       q    Type
REMARK                         _______ _______ _______ _____ _____    ______ ____
ROOT
ATOM      5  O   UNL     1      12.036   7.433   3.642  0.00  0.00    -0.267 OA
ATOM      6  N   UNL     1      11.767   5.164  -0.787  0.00  0.00    -0.175 NA
ATOM      7  N   UNL     1      12.380   5.568   2.286  0.00  0.00    -0.311 N 
ATOM      9  C   UNL     1      13.980   5.592   0.286  0.00  0.00    +0.025 C 
ATOM     10  C   UNL     1      12.738   3.544   0.830  0.00  0.00    +0.052 C 
ATOM     11  C   UNL     1      14.134   4.104   0.572  0.00  0.00    +0.017 C 
ATOM     12  C   UNL     1      13.097   5.815  -0.952  0.00  0.00    +0.114 C 
ATOM     13  C   UNL     1      11.872   3.717  -0.432  0.00  0.00    +0.119 C 
ATOM     14  C   UNL     1      13.421   6.282   1.536  0.00  0.00    +0.130 C 
ATOM     15  C   UNL     1      12.085   4.229   2.016  0.00  0.00    +0.026 A 
ATOM     16  C   UNL     1      11.214   3.562   2.789  0.00  0.00    +0.022 A 
ATOM     17  C   UNL     1      11.776   6.264   3.351  0.00  0.00    +0.259 A 
ATOM     18  C   UNL     1      10.777   5.501   4.179  0.00  0.00    +0.048 A 
ATOM     19  C   UNL     1      10.548   4.212   3.882  0.00  0.00    +0.015 A 
ENDROOT
BRANCH  18  21
ATOM      8  N   UNL     1       9.951   6.705   7.637  0.00  0.00    -0.263 NA
ATOM     21  C   UNL     1      10.053   6.145   5.287  0.00  0.00    +0.005 A 
ATOM     24  C   UNL     1       8.835   6.783   5.075  0.00  0.00    +0.011 A 
ATOM     26  C   UNL     1      10.563   6.135   6.576  0.00  0.00    +0.119 A 
ATOM     27  C   UNL     1       8.175   7.382   6.143  0.00  0.00    +0.020 A 
ATOM     28  C   UNL     1       8.770   7.315   7.393  0.00  0.00    +0.111 A 
ENDBRANCH  18  21
BRANCH   6   1
ATOM      1  S   UNL     1      10.600   5.550  -1.978  0.00  0.00    +0.067 S 
ATOM      3  O   UNL     1       9.652   4.460  -2.083  0.00  0.00    -0.152 OA
ATOM      4  O   UNL     1      11.275   6.065  -3.150  0.00  0.00    -0.152 OA
BRANCH   1  20
ATOM      2  S   UNL     1       8.682   7.755  -2.183  0.00  0.00    -0.077 S 
ATOM     20  C   UNL     1       9.783   6.900  -1.186  0.00  0.00    +0.143 A 
ATOM     22  C   UNL     1       9.843   7.425   0.086  0.00  0.00    +0.036 A 
ATOM     23  C   UNL     1       8.974   8.543   0.245  0.00  0.00    +0.010 A 
ATOM     25  C   UNL     1       8.283   8.830  -0.911  0.00  0.00    +0.047 A 
ENDBRANCH   1  20
ENDBRANCH   6   1
TORSDOF 3
ENDMDL
MODEL 8
REMARK VINA RESULT:      -6.2     26.502     29.304
REMARK  Name = 40533566
REMARK  3 active torsions:
REMARK  status: ('A' for Active; 'I' for Inactive)
REMARK    1  A    between atoms: S_1  and  N_6
REMARK    2  A    between atoms: S_1  and  C_20
REMARK    3  A    between atoms: C_18  and  C_21
REMARK                            x       y       z     vdW  Elec       q    Type
REMARK                         _______ _______ _______ _____ _____    ______ ____
ROOT
ATOM      5  O   UNL     1       9.007   5.613   4.679  0.00  0.00    -0.267 OA
ATOM      6  N   UNL     1      12.782   5.133   1.462  0.00  0.00    -0.175 NA
ATOM      7  N   UNL     1      10.858   6.492   3.567  0.00  0.00    -0.311 N 
ATOM      9  C   UNL     1      10.940   6.760   1.022  0.00  0.00    +0.025 C 
ATOM     10  C   UNL     1      12.867   7.441   2.382  0.00  0.00    +0.052 C 
ATOM     11  C   UNL     1      11.885   7.916   1.315  0.00  0.00    +0.017 C 
ATOM     12  C   UNL     1      11.721   5.543   0.499  0.00  0.00    +0.114 C 
ATOM     13  C   UNL     1      13.689   6.260   1.836  0.00  0.00    +0.119 C 
ATOM     14  C   UNL     1      10.137   6.439   2.289  0.00  0.00    +0.130 C 
ATOM     15  C   UNL     1      12.141   7.037   3.652  0.00  0.00    +0.026 A 
ATOM     16  C   UNL     1      12.735   7.183   4.847  0.00  0.00    +0.022 A 
ATOM     17  C   UNL     1      10.152   6.066   4.710  0.00  0.00    +0.259 A 
ATOM     18  C   UNL     1      10.857   6.207   6.033  0.00  0.00    +0.048 A 
ATOM     19  C   UNL     1      12.082   6.755   6.052  0.00  0.00    +0.015 A 
ENDROOT
BRANCH  18  21
ATOM      8  N   UNL     1       9.793   3.953   8.840  0.00  0.00    -0.263 NA
ATOM     21  C   UNL     1      10.229   5.752   7.284  0.00  0.00    +0.005 A 
ATOM     24  C   UNL     1       9.502   6.628   8.083  0.00  0.00    +0.011 A 
ATOM     26  C   UNL     1      10.344   4.436   7.704  0.00  0.00    +0.119 A 
ATOM     27  C   UNL     1       8.920   6.168   9.259  0.00  0.00    +0.020 A 
ATOM     28  C   UNL     1       9.094   4.834   9.590  0.00  0.00    +0.111 A 
ENDBRANCH  18  21
BRANCH   6   1
ATOM      1  S   UNL     1      13.553   3.644   1.125  0.00  0.00    +0.067 S 
ATOM      3  O   UNL     1      12.787   2.568   1.717  0.00  0.00    -0.152 OA
ATOM      4  O   UNL     1      14.971   3.778   1.384  0.00  0.00    -0.152 OA
BRANCH   1  20
ATOM      2  S   UNL     1      14.460   4.474  -1.535  0.00  0.00    -0.077 S 
ATOM     20  C   UNL     1      13.328   3.565  -0.625  0.00  0.00    +0.143 A 
ATOM     22  C   UNL     1      12.418   2.918  -1.431  0.00  0.00    +0.036 A 
ATOM     23  C   UNL     1      12.652   3.170  -2.813  0.00  0.00    +0.010 A 
ATOM     25  C   UNL     1      13.732   4.001  -3.012  0.00  0.00    +0.047 A 
ENDBRANCH   1  20
ENDBRANCH   6   1
TORSDOF 3
ENDMDL
MODEL 9
REMARK VINA RESULT:      -6.1     21.254     22.955
REMARK  Name = 40533566
REMARK  3 active torsions:
REMARK  status: ('A' for Active; 'I' for Inactive)
REMARK    1  A    between atoms: S_1  and  N_6
REMARK    2  A    between atoms: S_1  and  C_20
REMARK    3  A    between atoms: C_18  and  C_21
REMARK                            x       y       z     vdW  Elec       q    Type
REMARK                         _______ _______ _______ _____ _____    ______ ____
ROOT
ATOM      5  O   UNL     1      -5.046 -12.888   9.936  0.00  0.00    -0.267 OA
ATOM      6  N   UNL     1      -3.944 -11.675  14.642  0.00  0.00    -0.175 NA
ATOM      7  N   UNL     1      -3.522 -12.179  11.552  0.00  0.00    -0.311 N 
ATOM      9  C   UNL     1      -2.851 -13.636  13.549  0.00  0.00    +0.025 C 
ATOM     10  C   UNL     1      -1.876 -11.396  13.290  0.00  0.00    +0.052 C 
ATOM     11  C   UNL     1      -1.536 -12.872  13.484  0.00  0.00    +0.017 C 
ATOM     12  C   UNL     1      -3.704 -13.143  14.730  0.00  0.00    +0.114 C 
ATOM     13  C   UNL     1      -2.680 -10.891  14.502  0.00  0.00    +0.119 C 
ATOM     14  C   UNL     1      -3.576 -13.493  12.205  0.00  0.00    +0.130 C 
ATOM     15  C   UNL     1      -2.659 -11.180  12.009  0.00  0.00    +0.026 A 
ATOM     16  C   UNL     1      -2.540 -10.029  11.329  0.00  0.00    +0.022 A 
ATOM     17  C   UNL     1      -4.300 -12.017  10.389  0.00  0.00    +0.259 A 
ATOM     18  C   UNL     1      -4.174 -10.703   9.667  0.00  0.00    +0.048 A 
ATOM     19  C   UNL     1      -3.315  -9.788  10.144  0.00  0.00    +0.015 A 
ENDROOT
BRANCH  18  21
ATOM      8  N   UNL     1      -6.788  -9.182   7.443  0.00  0.00    -0.263 NA
ATOM     21  C   UNL     1      -4.975 -10.411   8.467  0.00  0.00    +0.005 A 
ATOM     24  C   UNL     1      -4.713 -11.046   7.257  0.00  0.00    +0.011 A 
ATOM     26  C   UNL     1      -6.014  -9.495   8.506  0.00  0.00    +0.119 A 
ATOM     27  C   UNL     1      -5.488 -10.749   6.141  0.00  0.00    +0.020 A 
ATOM     28  C   UNL     1      -6.504  -9.818   6.285  0.00  0.00    +0.111 A 
ENDBRANCH  18  21
BRANCH   6   1
ATOM      1  S   UNL     1      -5.087 -11.044  15.748  0.00  0.00    +0.067 S 
ATOM      3  O   UNL     1      -4.498  -9.922  16.450  0.00  0.00    -0.152 OA
ATOM      4  O   UNL     1      -5.695 -12.139  16.473  0.00  0.00    -0.152 OA
BRANCH   1  20
ATOM      2  S   UNL     1      -7.847 -10.171  15.296  0.00  0.00    -0.077 S 
ATOM     20  C   UNL     1      -6.289 -10.405  14.623  0.00  0.00    +0.143 A 
ATOM     22  C   UNL     1      -6.240 -10.048  13.294  0.00  0.00    +0.036 A 
ATOM     23  C   UNL     1      -7.499  -9.576  12.820  0.00  0.00    +0.010 A 
ATOM     25  C   UNL     1      -8.461  -9.591  13.806  0.00  0.00    +0.047 A 
ENDBRANCH   1  20
ENDBRANCH   6   1
TORSDOF 3
ENDMDL
MODEL 10
REMARK VINA RESULT:      -6.1     19.174     20.511
REMARK  Name = 40533566
REMARK  3 active torsions:
REMARK  status: ('A' for Active; 'I' for Inactive)
REMARK    1  A    between atoms: S_1  and  N_6
REMARK    2  A    between atoms: S_1  and  C_20
REMARK    3  A    between atoms: C_18  and  C_21
REMARK                            x       y       z     vdW  Elec       q    Type
REMARK                         _______ _______ _______ _____ _____    ______ ____
ROOT
ATOM      5  O   UNL     1      -7.858  -8.815  17.345  0.00  0.00    -0.267 OA
ATOM      6  N   UNL     1      -4.161 -11.653  15.579  0.00  0.00    -0.175 NA
ATOM      7  N   UNL     1      -6.804 -10.884  17.130  0.00  0.00    -0.311 N 
ATOM      9  C   UNL     1      -4.452 -11.334  18.038  0.00  0.00    +0.025 C 
ATOM     10  C   UNL     1      -5.679 -13.124  16.888  0.00  0.00    +0.052 C 
ATOM     11  C   UNL     1      -4.932 -12.773  18.172  0.00  0.00    +0.017 C 
ATOM     12  C   UNL     1      -3.506 -11.191  16.835  0.00  0.00    +0.114 C 
ATOM     13  C   UNL     1      -4.715 -13.036  15.692  0.00  0.00    +0.119 C 
ATOM     14  C   UNL     1      -5.672 -10.410  17.937  0.00  0.00    +0.130 C 
ATOM     15  C   UNL     1      -6.867 -12.204  16.678  0.00  0.00    +0.026 A 
ATOM     16  C   UNL     1      -7.964 -12.647  16.044  0.00  0.00    +0.022 A 
ATOM     17  C   UNL     1      -7.862  -9.975  16.930  0.00  0.00    +0.259 A 
ATOM     18  C   UNL     1      -9.064 -10.490  16.184  0.00  0.00    +0.048 A 
ATOM     19  C   UNL     1      -9.074 -11.773  15.790  0.00  0.00    +0.015 A 
ENDROOT
BRANCH  18  21
ATOM      8  N   UNL     1     -11.309  -8.120  14.331  0.00  0.00    -0.263 NA
ATOM     21  C   UNL     1     -10.207  -9.613  15.880  0.00  0.00    +0.005 A 
ATOM     24  C   UNL     1     -11.237  -9.434  16.797  0.00  0.00    +0.011 A 
ATOM     26  C   UNL     1     -10.290  -8.939  14.672  0.00  0.00    +0.119 A 
ATOM     27  C   UNL     1     -12.304  -8.599  16.481  0.00  0.00    +0.020 A 
ATOM     28  C   UNL     1     -12.292  -7.971  15.246  0.00  0.00    +0.111 A 
ENDBRANCH  18  21
BRANCH   6   1
ATOM      1  S   UNL     1      -3.315 -11.311  14.132  0.00  0.00    +0.067 S 
ATOM      3  O   UNL     1      -3.059 -12.550  13.428  0.00  0.00    -0.152 OA
ATOM      4  O   UNL     1      -2.241 -10.384  14.422  0.00  0.00    -0.152 OA
BRANCH   1  20
ATOM      2  S   UNL     1      -4.153 -10.051  11.623  0.00  0.00    -0.077 S 
ATOM     20  C   UNL     1      -4.562 -10.433  13.242  0.00  0.00    +0.143 A 
ATOM     22  C   UNL     1      -5.818  -9.979  13.579  0.00  0.00    +0.036 A 
ATOM     23  C   UNL     1      -6.454  -9.309  12.494  0.00  0.00    +0.010 A 
ATOM     25  C   UNL     1      -5.660  -9.277  11.369  0.00  0.00    +0.047 A 
ENDBRANCH   1  20
ENDBRANCH   6   1
TORSDOF 3
ENDMDL
