MODEL 1
REMARK VINA RESULT:      -6.9      0.000      0.000
REMARK  Name = 51138051
REMARK  9 active torsions:
REMARK  status: ('A' for Active; 'I' for Inactive)
REMARK    1  A    between atoms: N_3  and  C_19
REMARK    2  A    between atoms: N_4  and  C_24
REMARK    3  A    between atoms: C_6  and  C_10
REMARK    4  A    between atoms: C_9  and  C_18
REMARK    5  A    between atoms: C_10  and  C_14
REMARK    6  A    between atoms: C_14  and  C_21
REMARK    7  A    between atoms: C_14  and  C_22
REMARK    8  A    between atoms: C_19  and  C_23
REMARK    9  A    between atoms: C_24  and  C_29
REMARK                            x       y       z     vdW  Elec       q    Type
REMARK                         _______ _______ _______ _____ _____    ______ ____
ROOT
ATOM      2  N   UNL     1      -6.732 -11.090  16.206  0.00  0.00    -0.299 NA
ATOM      3  N   UNL     1      -4.019 -10.049  12.076  0.00  0.00    -0.342 N 
ATOM      6  C   UNL     1      -5.329 -11.083  16.642  0.00  0.00    +0.085 C 
ATOM      7  C   UNL     1      -4.283 -10.970  15.529  0.00  0.00    -0.021 A 
ATOM      8  C   UNL     1      -4.546 -10.541  14.196  0.00  0.00    +0.008 A 
ATOM      9  C   UNL     1      -7.175  -9.861  15.562  0.00  0.00    +0.145 C 
ATOM     11  C   UNL     1      -5.726 -10.104  13.500  0.00  0.00    -0.020 A 
ATOM     12  C   UNL     1      -7.111  -9.971  14.040  0.00  0.00    +0.065 C 
ATOM     13  C   UNL     1      -3.495 -10.469  13.275  0.00  0.00    +0.050 A 
ATOM     15  C   UNL     1      -5.358  -9.821  12.201  0.00  0.00    +0.091 A 
ATOM     16  C   UNL     1      -2.925 -11.234  15.845  0.00  0.00    +0.006 A 
ATOM     17  C   UNL     1      -2.171 -10.778  13.593  0.00  0.00    +0.026 A 
ATOM     20  C   UNL     1      -1.901 -11.150  14.904  0.00  0.00    +0.002 A 
ATOM     31  H   UNL     1      -6.928 -11.903  15.623  0.00  0.00    +0.123 HD
ENDROOT
BRANCH   9  18
ATOM      1  O   UNL     1      -9.459 -10.531  15.725  0.00  0.00    -0.274 OA
ATOM      4  N   UNL     1      -8.813  -8.495  16.650  0.00  0.00    -0.303 N 
ATOM     18  C   UNL     1      -8.603  -9.690  15.982  0.00  0.00    +0.231 C 
ATOM     32  H   UNL     1      -8.024  -7.880  16.832  0.00  0.00    +0.150 HD
BRANCH   4  24
ATOM     24  C   UNL     1     -10.107  -8.081  17.141  0.00  0.00    +0.193 C 
BRANCH  24  29
ATOM     29  C   UNL     1     -10.628  -6.954  16.369  0.00  0.00    -0.087 C 
ATOM     30  C   UNL     1     -11.053  -6.025  15.737  0.00  0.00    +0.005 C 
ENDBRANCH  24  29
ENDBRANCH   4  24
ENDBRANCH   9  18
BRANCH   6  10
ATOM     10  C   UNL     1      -5.173 -12.370  17.471  0.00  0.00    +0.026 C 
BRANCH  10  14
ATOM     14  C   UNL     1      -5.017 -12.102  18.971  0.00  0.00    -0.015 C 
ATOM     21  C   UNL     1      -3.559 -12.161  19.431  0.00  0.00    +0.007 C 
ATOM     22  C   UNL     1      -5.609 -10.731  19.304  0.00  0.00    +0.007 C 
ENDBRANCH  10  14
ENDBRANCH   6  10
BRANCH   3  19
ATOM     19  C   UNL     1      -3.272  -9.852  10.852  0.00  0.00    +0.157 C 
BRANCH  19  23
ATOM      5  N   UNL     1      -5.349 -11.238   7.346  0.00  0.00    -0.263 NA
ATOM     23  C   UNL     1      -4.000 -10.337   9.623  0.00  0.00    -0.025 A 
ATOM     25  C   UNL     1      -4.557  -9.424   8.735  0.00  0.00    +0.025 A 
ATOM     26  C   UNL     1      -4.116 -11.701   9.373  0.00  0.00    +0.025 A 
ATOM     27  C   UNL     1      -5.216  -9.921   7.621  0.00  0.00    +0.111 A 
ATOM     28  C   UNL     1      -4.793 -12.096   8.231  0.00  0.00    +0.111 A 
ENDBRANCH  19  23
ENDBRANCH   3  19
TORSDOF 7
ENDMDL
MODEL 2
REMARK VINA RESULT:      -6.8     28.723     30.930
REMARK  Name = 51138051
REMARK  9 active torsions:
REMARK  status: ('A' for Active; 'I' for Inactive)
REMARK    1  A    between atoms: N_3  and  C_19
REMARK    2  A    between atoms: N_4  and  C_24
REMARK    3  A    between atoms: C_6  and  C_10
REMARK    4  A    between atoms: C_9  and  C_18
REMARK    5  A    between atoms: C_10  and  C_14
REMARK    6  A    between atoms: C_14  and  C_21
REMARK    7  A    between atoms: C_14  and  C_22
REMARK    8  A    between atoms: C_19  and  C_23
REMARK    9  A    between atoms: C_24  and  C_29
REMARK                            x       y       z     vdW  Elec       q    Type
REMARK                         _______ _______ _______ _____ _____    ______ ____
ROOT
ATOM      2  N   UNL     1      19.281   8.614  22.446  0.00  0.00    -0.299 NA
ATOM      3  N   UNL     1      14.851   8.744  20.026  0.00  0.00    -0.342 N 
ATOM      6  C   UNL     1      19.373   7.595  21.390  0.00  0.00    +0.085 C 
ATOM      7  C   UNL     1      18.079   7.308  20.623  0.00  0.00    -0.021 A 
ATOM      8  C   UNL     1      16.929   8.149  20.609  0.00  0.00    +0.008 A 
ATOM      9  C   UNL     1      18.961   9.953  21.973  0.00  0.00    +0.145 C 
ATOM     11  C   UNL     1      16.607   9.412  21.216  0.00  0.00    -0.020 A 
ATOM     12  C   UNL     1      17.468  10.251  22.099  0.00  0.00    +0.065 C 
ATOM     13  C   UNL     1      15.812   7.777  19.853  0.00  0.00    +0.050 A 
ATOM     15  C   UNL     1      15.319   9.734  20.838  0.00  0.00    +0.091 A 
ATOM     16  C   UNL     1      18.024   6.159  19.793  0.00  0.00    +0.006 A 
ATOM     17  C   UNL     1      15.760   6.617  19.079  0.00  0.00    +0.026 A 
ATOM     20  C   UNL     1      16.895   5.817  19.051  0.00  0.00    +0.002 A 
ATOM     31  H   UNL     1      18.638   8.319  23.181  0.00  0.00    +0.123 HD
ENDROOT
BRANCH   9  18
ATOM      1  O   UNL     1      20.583  11.641  22.434  0.00  0.00    -0.274 OA
ATOM      4  N   UNL     1      19.358  10.744  24.197  0.00  0.00    -0.303 N 
ATOM     18  C   UNL     1      19.724  10.879  22.869  0.00  0.00    +0.231 C 
ATOM     32  H   UNL     1      18.615  10.096  24.446  0.00  0.00    +0.150 HD
BRANCH   4  24
ATOM     24  C   UNL     1      19.960  11.508  25.266  0.00  0.00    +0.193 C 
BRANCH  24  29
ATOM     29  C   UNL     1      19.925  10.769  26.527  0.00  0.00    -0.087 C 
ATOM     30  C   UNL     1      19.893  10.164  27.565  0.00  0.00    +0.005 C 
ENDBRANCH  24  29
ENDBRANCH   4  24
ENDBRANCH   9  18
BRANCH   6  10
ATOM     10  C   UNL     1      19.928   6.348  22.101  0.00  0.00    +0.026 C 
BRANCH  10  14
ATOM     14  C   UNL     1      21.264   5.873  21.523  0.00  0.00    -0.015 C 
ATOM     21  C   UNL     1      21.165   4.493  20.870  0.00  0.00    +0.007 C 
ATOM     22  C   UNL     1      21.763   6.895  20.498  0.00  0.00    +0.007 C 
ENDBRANCH  10  14
ENDBRANCH   6  10
BRANCH   3  19
ATOM     19  C   UNL     1      13.533   8.739  19.427  0.00  0.00    +0.157 C 
BRANCH  19  23
ATOM      5  N   UNL     1      10.452   7.350  22.091  0.00  0.00    -0.263 NA
ATOM     23  C   UNL     1      12.453   8.253  20.360  0.00  0.00    -0.025 A 
ATOM     25  C   UNL     1      11.604   9.163  20.981  0.00  0.00    +0.025 A 
ATOM     26  C   UNL     1      12.301   6.891  20.603  0.00  0.00    +0.025 A 
ATOM     27  C   UNL     1      10.628   8.665  21.831  0.00  0.00    +0.111 A 
ATOM     28  C   UNL     1      11.295   6.495  21.468  0.00  0.00    +0.111 A 
ENDBRANCH  19  23
ENDBRANCH   3  19
TORSDOF 7
ENDMDL
MODEL 3
REMARK VINA RESULT:      -6.8     28.575     31.059
REMARK  Name = 51138051
REMARK  9 active torsions:
REMARK  status: ('A' for Active; 'I' for Inactive)
REMARK    1  A    between atoms: N_3  and  C_19
REMARK    2  A    between atoms: N_4  and  C_24
REMARK    3  A    between atoms: C_6  and  C_10
REMARK    4  A    between atoms: C_9  and  C_18
REMARK    5  A    between atoms: C_10  and  C_14
REMARK    6  A    between atoms: C_14  and  C_21
REMARK    7  A    between atoms: C_14  and  C_22
REMARK    8  A    between atoms: C_19  and  C_23
REMARK    9  A    between atoms: C_24  and  C_29
REMARK                            x       y       z     vdW  Elec       q    Type
REMARK                         _______ _______ _______ _____ _____    ______ ____
ROOT
ATOM      2  N   UNL     1      19.929   8.041  21.705  0.00  0.00    -0.299 NA
ATOM      3  N   UNL     1      15.481   7.637  19.347  0.00  0.00    -0.342 N 
ATOM      6  C   UNL     1      19.107   9.151  22.209  0.00  0.00    +0.085 C 
ATOM      7  C   UNL     1      17.762   9.360  21.508  0.00  0.00    -0.021 A 
ATOM      8  C   UNL     1      17.112   8.402  20.677  0.00  0.00    +0.008 A 
ATOM      9  C   UNL     1      19.341   6.721  21.880  0.00  0.00    +0.145 C 
ATOM     11  C   UNL     1      17.428   7.064  20.257  0.00  0.00    -0.020 A 
ATOM     12  C   UNL     1      18.628   6.252  20.613  0.00  0.00    +0.065 C 
ATOM     13  C   UNL     1      15.874   8.714  20.105  0.00  0.00    +0.050 A 
ATOM     15  C   UNL     1      16.405   6.638  19.435  0.00  0.00    +0.091 A 
ATOM     16  C   UNL     1      17.051  10.564  21.750  0.00  0.00    +0.006 A 
ATOM     17  C   UNL     1      15.211   9.924  20.318  0.00  0.00    +0.026 A 
ATOM     20  C   UNL     1      15.817  10.842  21.166  0.00  0.00    +0.002 A 
ATOM     31  H   UNL     1      20.197   8.199  20.734  0.00  0.00    +0.123 HD
ENDROOT
BRANCH   9  18
ATOM      1  O   UNL     1      21.016   5.744  23.269  0.00  0.00    -0.274 OA
ATOM      4  N   UNL     1      20.892   5.105  21.035  0.00  0.00    -0.303 N 
ATOM     18  C   UNL     1      20.497   5.810  22.159  0.00  0.00    +0.231 C 
ATOM     32  H   UNL     1      20.374   5.219  20.167  0.00  0.00    +0.150 HD
BRANCH   4  24
ATOM     24  C   UNL     1      21.998   4.175  21.033  0.00  0.00    +0.193 C 
BRANCH  24  29
ATOM     29  C   UNL     1      23.256   4.853  20.727  0.00  0.00    -0.087 C 
ATOM     30  C   UNL     1      24.291   5.408  20.472  0.00  0.00    +0.005 C 
ENDBRANCH  24  29
ENDBRANCH   4  24
ENDBRANCH   9  18
BRANCH   6  10
ATOM     10  C   UNL     1      20.022  10.385  22.114  0.00  0.00    +0.026 C 
BRANCH  10  14
ATOM     14  C   UNL     1      20.660  10.553  20.732  0.00  0.00    -0.015 C 
ATOM     21  C   UNL     1      20.101  11.755  19.968  0.00  0.00    +0.007 C 
ATOM     22  C   UNL     1      22.175  10.700  20.890  0.00  0.00    +0.007 C 
ENDBRANCH  10  14
ENDBRANCH   6  10
BRANCH   3  19
ATOM     19  C   UNL     1      14.260   7.549  18.574  0.00  0.00    +0.157 C 
BRANCH  19  23
ATOM      5  N   UNL     1      10.701   7.580  20.994  0.00  0.00    -0.263 NA
ATOM     23  C   UNL     1      13.014   7.560  19.423  0.00  0.00    -0.025 A 
ATOM     25  C   UNL     1      12.857   6.631  20.446  0.00  0.00    +0.025 A 
ATOM     26  C   UNL     1      12.016   8.500  19.186  0.00  0.00    +0.025 A 
ATOM     27  C   UNL     1      11.692   6.682  21.196  0.00  0.00    +0.111 A 
ATOM     28  C   UNL     1      10.890   8.468  19.991  0.00  0.00    +0.111 A 
ENDBRANCH  19  23
ENDBRANCH   3  19
TORSDOF 7
ENDMDL
MODEL 4
REMARK VINA RESULT:      -6.7     20.006     22.973
REMARK  Name = 51138051
REMARK  9 active torsions:
REMARK  status: ('A' for Active; 'I' for Inactive)
REMARK    1  A    between atoms: N_3  and  C_19
REMARK    2  A    between atoms: N_4  and  C_24
REMARK    3  A    between atoms: C_6  and  C_10
REMARK    4  A    between atoms: C_9  and  C_18
REMARK    5  A    between atoms: C_10  and  C_14
REMARK    6  A    between atoms: C_14  and  C_21
REMARK    7  A    between atoms: C_14  and  C_22
REMARK    8  A    between atoms: C_19  and  C_23
REMARK    9  A    between atoms: C_24  and  C_29
REMARK                            x       y       z     vdW  Elec       q    Type
REMARK                         _______ _______ _______ _____ _____    ______ ____
ROOT
ATOM      2  N   UNL     1     -12.848   9.097  21.398  0.00  0.00    -0.299 NA
ATOM      3  N   UNL     1     -11.116  12.091  17.719  0.00  0.00    -0.342 N 
ATOM      6  C   UNL     1     -11.996   8.244  20.557  0.00  0.00    +0.085 C 
ATOM      7  C   UNL     1     -11.492   8.876  19.257  0.00  0.00    -0.021 A 
ATOM      8  C   UNL     1     -11.490  10.272  18.970  0.00  0.00    +0.008 A 
ATOM      9  C   UNL     1     -12.186  10.281  21.929  0.00  0.00    +0.145 C 
ATOM     11  C   UNL     1     -11.893  11.444  19.700  0.00  0.00    -0.020 A 
ATOM     12  C   UNL     1     -12.471  11.513  21.073  0.00  0.00    +0.065 C 
ATOM     13  C   UNL     1     -10.987  10.723  17.744  0.00  0.00    +0.050 A 
ATOM     15  C   UNL     1     -11.654  12.536  18.890  0.00  0.00    +0.091 A 
ATOM     16  C   UNL     1     -10.906   8.035  18.276  0.00  0.00    +0.006 A 
ATOM     17  C   UNL     1     -10.456   9.874  16.772  0.00  0.00    +0.026 A 
ATOM     20  C   UNL     1     -10.412   8.517  17.066  0.00  0.00    +0.002 A 
ATOM     31  H   UNL     1     -13.710   9.343  20.913  0.00  0.00    +0.123 HD
ENDROOT
BRANCH   9  18
ATOM      1  O   UNL     1     -13.943  10.195  23.542  0.00  0.00    -0.274 OA
ATOM      4  N   UNL     1     -11.866  11.032  24.179  0.00  0.00    -0.303 N 
ATOM     18  C   UNL     1     -12.775  10.482  23.292  0.00  0.00    +0.231 C 
ATOM     32  H   UNL     1     -10.914  11.209  23.872  0.00  0.00    +0.150 HD
BRANCH   4  24
ATOM     24  C   UNL     1     -12.191  11.345  25.552  0.00  0.00    +0.193 C 
BRANCH  24  29
ATOM     29  C   UNL     1     -11.397  10.540  26.479  0.00  0.00    -0.087 C 
ATOM     30  C   UNL     1     -10.747   9.875  27.239  0.00  0.00    +0.005 C 
ENDBRANCH  24  29
ENDBRANCH   4  24
ENDBRANCH   9  18
BRANCH   6  10
ATOM     10  C   UNL     1     -12.837   6.978  20.311  0.00  0.00    +0.026 C 
BRANCH  10  14
ATOM     14  C   UNL     1     -13.739   6.618  21.496  0.00  0.00    -0.015 C 
ATOM     21  C   UNL     1     -15.200   6.427  21.087  0.00  0.00    +0.007 C 
ATOM     22  C   UNL     1     -13.216   5.342  22.160  0.00  0.00    +0.007 C 
ENDBRANCH  10  14
ENDBRANCH   6  10
BRANCH   3  19
ATOM     19  C   UNL     1     -10.726  12.955  16.624  0.00  0.00    +0.157 C 
BRANCH  19  23
ATOM      5  N   UNL     1      -7.008  15.009  17.314  0.00  0.00    -0.263 NA
ATOM     23  C   UNL     1      -9.423  13.674  16.865  0.00  0.00    -0.025 A 
ATOM     25  C   UNL     1      -8.216  13.059  16.551  0.00  0.00    +0.025 A 
ATOM     26  C   UNL     1      -9.423  14.958  17.403  0.00  0.00    +0.025 A 
ATOM     27  C   UNL     1      -7.047  13.762  16.793  0.00  0.00    +0.111 A 
ATOM     28  C   UNL     1      -8.201  15.576  17.606  0.00  0.00    +0.111 A 
ENDBRANCH  19  23
ENDBRANCH   3  19
TORSDOF 7
ENDMDL
MODEL 5
REMARK VINA RESULT:      -6.6     23.624     26.347
REMARK  Name = 51138051
REMARK  9 active torsions:
REMARK  status: ('A' for Active; 'I' for Inactive)
REMARK    1  A    between atoms: N_3  and  C_19
REMARK    2  A    between atoms: N_4  and  C_24
REMARK    3  A    between atoms: C_6  and  C_10
REMARK    4  A    between atoms: C_9  and  C_18
REMARK    5  A    between atoms: C_10  and  C_14
REMARK    6  A    between atoms: C_14  and  C_21
REMARK    7  A    between atoms: C_14  and  C_22
REMARK    8  A    between atoms: C_19  and  C_23
REMARK    9  A    between atoms: C_24  and  C_29
REMARK                            x       y       z     vdW  Elec       q    Type
REMARK                         _______ _______ _______ _____ _____    ______ ____
ROOT
ATOM      2  N   UNL     1      11.907   6.358   5.214  0.00  0.00    -0.299 NA
ATOM      3  N   UNL     1      12.549   4.045   0.771  0.00  0.00    -0.342 N 
ATOM      6  C   UNL     1      12.827   7.212   4.449  0.00  0.00    +0.085 C 
ATOM      7  C   UNL     1      13.329   6.634   3.123  0.00  0.00    -0.021 A 
ATOM      8  C   UNL     1      12.739   5.538   2.429  0.00  0.00    +0.008 A 
ATOM      9  C   UNL     1      10.637   6.089   4.555  0.00  0.00    +0.145 C 
ATOM     11  C   UNL     1      11.603   4.693   2.677  0.00  0.00    -0.020 A 
ATOM     12  C   UNL     1      10.656   4.745   3.828  0.00  0.00    +0.065 C 
ATOM     13  C   UNL     1      13.289   5.115   1.214  0.00  0.00    +0.050 A 
ATOM     15  C   UNL     1      11.529   3.786   1.639  0.00  0.00    +0.091 A 
ATOM     16  C   UNL     1      14.419   7.271   2.475  0.00  0.00    +0.006 A 
ATOM     17  C   UNL     1      14.392   5.726   0.615  0.00  0.00    +0.026 A 
ATOM     20  C   UNL     1      14.942   6.825   1.263  0.00  0.00    +0.002 A 
ATOM     31  H   UNL     1      12.365   5.492   5.499  0.00  0.00    +0.123 HD
ENDROOT
BRANCH   9  18
ATOM      1  O   UNL     1       8.482   5.632   5.470  0.00  0.00    -0.274 OA
ATOM      4  N   UNL     1      10.132   6.509   6.857  0.00  0.00    -0.303 N 
ATOM     18  C   UNL     1       9.625   6.036   5.658  0.00  0.00    +0.231 C 
ATOM     32  H   UNL     1      11.105   6.799   6.907  0.00  0.00    +0.150 HD
BRANCH   4  24
ATOM     24  C   UNL     1       9.351   6.584   8.071  0.00  0.00    +0.193 C 
BRANCH  24  29
ATOM     29  C   UNL     1       9.419   5.330   8.820  0.00  0.00    -0.087 C 
ATOM     30  C   UNL     1       9.476   4.298   9.432  0.00  0.00    +0.005 C 
ENDBRANCH  24  29
ENDBRANCH   4  24
ENDBRANCH   9  18
BRANCH   6  10
ATOM     10  C   UNL     1      13.972   7.524   5.429  0.00  0.00    +0.026 C 
BRANCH  10  14
ATOM     14  C   UNL     1      14.050   9.006   5.806  0.00  0.00    -0.015 C 
ATOM     21  C   UNL     1      13.108   9.372   6.954  0.00  0.00    +0.007 C 
ATOM     22  C   UNL     1      15.491   9.355   6.189  0.00  0.00    +0.007 C 
ENDBRANCH  10  14
ENDBRANCH   6  10
BRANCH   3  19
ATOM     19  C   UNL     1      12.788   3.301  -0.447  0.00  0.00    +0.157 C 
BRANCH  19  23
ATOM      5  N   UNL     1       9.595   3.640  -3.312  0.00  0.00    -0.263 NA
ATOM     23  C   UNL     1      11.669   3.420  -1.451  0.00  0.00    -0.025 A 
ATOM     25  C   UNL     1      10.918   4.588  -1.525  0.00  0.00    +0.025 A 
ATOM     26  C   UNL     1      11.385   2.362  -2.309  0.00  0.00    +0.025 A 
ATOM     27  C   UNL     1       9.900   4.647  -2.464  0.00  0.00    +0.111 A 
ATOM     28  C   UNL     1      10.347   2.520  -3.213  0.00  0.00    +0.111 A 
ENDBRANCH  19  23
ENDBRANCH   3  19
TORSDOF 7
ENDMDL
MODEL 6
REMARK VINA RESULT:      -6.3     23.137     26.016
REMARK  Name = 51138051
REMARK  9 active torsions:
REMARK  status: ('A' for Active; 'I' for Inactive)
REMARK    1  A    between atoms: N_3  and  C_19
REMARK    2  A    between atoms: N_4  and  C_24
REMARK    3  A    between atoms: C_6  and  C_10
REMARK    4  A    between atoms: C_9  and  C_18
REMARK    5  A    between atoms: C_10  and  C_14
REMARK    6  A    between atoms: C_14  and  C_21
REMARK    7  A    between atoms: C_14  and  C_22
REMARK    8  A    between atoms: C_19  and  C_23
REMARK    9  A    between atoms: C_24  and  C_29
REMARK                            x       y       z     vdW  Elec       q    Type
REMARK                         _______ _______ _______ _____ _____    ______ ____
ROOT
ATOM      2  N   UNL     1       9.647   7.981   5.029  0.00  0.00    -0.299 NA
ATOM      3  N   UNL     1      11.077   4.559   1.601  0.00  0.00    -0.342 N 
ATOM      6  C   UNL     1       9.030   8.402   3.763  0.00  0.00    +0.085 C 
ATOM      7  C   UNL     1       9.462   7.624   2.516  0.00  0.00    -0.021 A 
ATOM      8  C   UNL     1      10.117   6.359   2.525  0.00  0.00    +0.008 A 
ATOM      9  C   UNL     1       9.316   6.626   5.445  0.00  0.00    +0.145 C 
ATOM     11  C   UNL     1      10.545   5.461   3.564  0.00  0.00    -0.020 A 
ATOM     12  C   UNL     1      10.403   5.633   5.038  0.00  0.00    +0.065 C 
ATOM     13  C   UNL     1      10.447   5.745   1.311  0.00  0.00    +0.050 A 
ATOM     15  C   UNL     1      11.136   4.375   2.951  0.00  0.00    +0.091 A 
ATOM     16  C   UNL     1       9.127   8.146   1.240  0.00  0.00    +0.006 A 
ATOM     17  C   UNL     1      10.150   6.298   0.065  0.00  0.00    +0.026 A 
ATOM     20  C   UNL     1       9.469   7.509   0.050  0.00  0.00    +0.002 A 
ATOM     31  H   UNL     1      10.656   8.124   5.007  0.00  0.00    +0.123 HD
ENDROOT
BRANCH   9  18
ATOM      1  O   UNL     1       8.332   7.277   7.519  0.00  0.00    -0.274 OA
ATOM      4  N   UNL     1      10.291   6.022   7.546  0.00  0.00    -0.303 N 
ATOM     18  C   UNL     1       9.237   6.683   6.940  0.00  0.00    +0.231 C 
ATOM     32  H   UNL     1      10.976   5.541   6.969  0.00  0.00    +0.150 HD
BRANCH   4  24
ATOM     24  C   UNL     1      10.459   5.948   8.980  0.00  0.00    +0.193 C 
BRANCH  24  29
ATOM     29  C   UNL     1       9.530   4.987   9.571  0.00  0.00    -0.087 C 
ATOM     30  C   UNL     1       8.764   4.196  10.053  0.00  0.00    +0.005 C 
ENDBRANCH  24  29
ENDBRANCH   4  24
ENDBRANCH   9  18
BRANCH   6  10
ATOM     10  C   UNL     1       9.343   9.905   3.659  0.00  0.00    +0.026 C 
BRANCH  10  14
ATOM     14  C   UNL     1       8.136  10.793   3.975  0.00  0.00    -0.015 C 
ATOM     21  C   UNL     1       6.811  10.030   3.909  0.00  0.00    +0.007 C 
ATOM     22  C   UNL     1       8.310  11.406   5.367  0.00  0.00    +0.007 C 
ENDBRANCH  10  14
ENDBRANCH   6  10
BRANCH   3  19
ATOM     19  C   UNL     1      11.593   3.618   0.630  0.00  0.00    +0.157 C 
BRANCH  19  23
ATOM      5  N   UNL     1      15.825   4.007  -0.045  0.00  0.00    -0.263 NA
ATOM     23  C   UNL     1      13.076   3.755   0.393  0.00  0.00    -0.025 A 
ATOM     25  C   UNL     1      13.552   4.139  -0.856  0.00  0.00    +0.025 A 
ATOM     26  C   UNL     1      13.974   3.498   1.424  0.00  0.00    +0.025 A 
ATOM     27  C   UNL     1      14.924   4.249  -1.022  0.00  0.00    +0.111 A 
ATOM     28  C   UNL     1      15.326   3.637   1.156  0.00  0.00    +0.111 A 
ENDBRANCH  19  23
ENDBRANCH   3  19
TORSDOF 7
ENDMDL
MODEL 7
REMARK VINA RESULT:      -6.1     23.154     26.198
REMARK  Name = 51138051
REMARK  9 active torsions:
REMARK  status: ('A' for Active; 'I' for Inactive)
REMARK    1  A    between atoms: N_3  and  C_19
REMARK    2  A    between atoms: N_4  and  C_24
REMARK    3  A    between atoms: C_6  and  C_10
REMARK    4  A    between atoms: C_9  and  C_18
REMARK    5  A    between atoms: C_10  and  C_14
REMARK    6  A    between atoms: C_14  and  C_21
REMARK    7  A    between atoms: C_14  and  C_22
REMARK    8  A    between atoms: C_19  and  C_23
REMARK    9  A    between atoms: C_24  and  C_29
REMARK                            x       y       z     vdW  Elec       q    Type
REMARK                         _______ _______ _______ _____ _____    ______ ____
ROOT
ATOM      2  N   UNL     1      10.233   5.619   4.461  0.00  0.00    -0.299 NA
ATOM      3  N   UNL     1       7.107   9.446   3.418  0.00  0.00    -0.342 N 
ATOM      6  C   UNL     1      10.633   6.111   3.135  0.00  0.00    +0.085 C 
ATOM      7  C   UNL     1       9.714   7.163   2.506  0.00  0.00    -0.021 A 
ATOM      8  C   UNL     1       8.739   7.927   3.210  0.00  0.00    +0.008 A 
ATOM      9  C   UNL     1      10.241   6.627   5.511  0.00  0.00    +0.145 C 
ATOM     11  C   UNL     1       8.321   7.992   4.585  0.00  0.00    -0.020 A 
ATOM     12  C   UNL     1       8.847   7.209   5.740  0.00  0.00    +0.065 C 
ATOM     13  C   UNL     1       7.970   8.869   2.518  0.00  0.00    +0.050 A 
ATOM     15  C   UNL     1       7.313   8.931   4.664  0.00  0.00    +0.091 A 
ATOM     16  C   UNL     1       9.880   7.475   1.132  0.00  0.00    +0.006 A 
ATOM     17  C   UNL     1       8.117   9.129   1.154  0.00  0.00    +0.026 A 
ATOM     20  C   UNL     1       9.099   8.421   0.473  0.00  0.00    +0.002 A 
ATOM     31  H   UNL     1       9.333   5.141   4.415  0.00  0.00    +0.123 HD
ENDROOT
BRANCH   9  18
ATOM      1  O   UNL     1      11.690   6.227   7.364  0.00  0.00    -0.274 OA
ATOM      4  N   UNL     1       9.837   4.851   7.065  0.00  0.00    -0.303 N 
ATOM     18  C   UNL     1      10.679   5.902   6.747  0.00  0.00    +0.231 C 
ATOM     32  H   UNL     1       9.011   4.685   6.497  0.00  0.00    +0.150 HD
BRANCH   4  24
ATOM     24  C   UNL     1      10.050   3.981   8.199  0.00  0.00    +0.193 C 
BRANCH  24  29
ATOM     29  C   UNL     1       9.310   4.449   9.370  0.00  0.00    -0.087 C 
ATOM     30  C   UNL     1       8.700   4.830  10.333  0.00  0.00    +0.005 C 
ENDBRANCH  24  29
ENDBRANCH   4  24
ENDBRANCH   9  18
BRANCH   6  10
ATOM     10  C   UNL     1      10.758   4.843   2.271  0.00  0.00    +0.026 C 
BRANCH  10  14
ATOM     14  C   UNL     1      12.112   4.730   1.565  0.00  0.00    -0.015 C 
ATOM     21  C   UNL     1      13.136   5.738   2.089  0.00  0.00    +0.007 C 
ATOM     22  C   UNL     1      12.653   3.308   1.736  0.00  0.00    +0.007 C 
ENDBRANCH  10  14
ENDBRANCH   6  10
BRANCH   3  19
ATOM     19  C   UNL     1       6.127  10.466   3.112  0.00  0.00    +0.157 C 
BRANCH  19  23
ATOM      5  N   UNL     1       6.643  14.070   5.407  0.00  0.00    -0.263 NA
ATOM     23  C   UNL     1       6.308  11.730   3.916  0.00  0.00    -0.025 A 
ATOM     25  C   UNL     1       7.476  12.474   3.793  0.00  0.00    +0.025 A 
ATOM     26  C   UNL     1       5.306  12.155   4.783  0.00  0.00    +0.025 A 
ATOM     27  C   UNL     1       7.594  13.627   4.554  0.00  0.00    +0.111 A 
ATOM     28  C   UNL     1       5.520  13.321   5.499  0.00  0.00    +0.111 A 
ENDBRANCH  19  23
ENDBRANCH   3  19
TORSDOF 7
ENDMDL
MODEL 8
REMARK VINA RESULT:      -6.1     23.551     26.494
REMARK  Name = 51138051
REMARK  9 active torsions:
REMARK  status: ('A' for Active; 'I' for Inactive)
REMARK    1  A    between atoms: N_3  and  C_19
REMARK    2  A    between atoms: N_4  and  C_24
REMARK    3  A    between atoms: C_6  and  C_10
REMARK    4  A    between atoms: C_9  and  C_18
REMARK    5  A    between atoms: C_10  and  C_14
REMARK    6  A    between atoms: C_14  and  C_21
REMARK    7  A    between atoms: C_14  and  C_22
REMARK    8  A    between atoms: C_19  and  C_23
REMARK    9  A    between atoms: C_24  and  C_29
REMARK                            x       y       z     vdW  Elec       q    Type
REMARK                         _______ _______ _______ _____ _____    ______ ____
ROOT
ATOM      2  N   UNL     1      10.801   5.695   3.840  0.00  0.00    -0.299 NA
ATOM      3  N   UNL     1       8.663   8.896   0.571  0.00  0.00    -0.342 N 
ATOM      6  C   UNL     1       9.623   6.242   4.529  0.00  0.00    +0.085 C 
ATOM      7  C   UNL     1       8.898   7.384   3.812  0.00  0.00    -0.021 A 
ATOM      8  C   UNL     1       9.052   7.717   2.435  0.00  0.00    +0.008 A 
ATOM      9  C   UNL     1      10.516   5.056   2.564  0.00  0.00    +0.145 C 
ATOM     11  C   UNL     1       9.828   7.171   1.355  0.00  0.00    -0.020 A 
ATOM     12  C   UNL     1      10.760   6.007   1.394  0.00  0.00    +0.065 C 
ATOM     13  C   UNL     1       8.319   8.780   1.897  0.00  0.00    +0.050 A 
ATOM     15  C   UNL     1       9.565   7.930   0.233  0.00  0.00    +0.091 A 
ATOM     16  C   UNL     1       7.936   8.137   4.534  0.00  0.00    +0.006 A 
ATOM     17  C   UNL     1       7.410   9.539   2.636  0.00  0.00    +0.026 A 
ATOM     20  C   UNL     1       7.220   9.189   3.967  0.00  0.00    +0.002 A 
ATOM     31  H   UNL     1      11.528   6.404   3.744  0.00  0.00    +0.123 HD
ENDROOT
BRANCH   9  18
ATOM      1  O   UNL     1      11.240   2.823   2.993  0.00  0.00    -0.274 OA
ATOM      4  N   UNL     1      12.627   4.243   1.779  0.00  0.00    -0.303 N 
ATOM     18  C   UNL     1      11.477   3.910   2.475  0.00  0.00    +0.231 C 
ATOM     32  H   UNL     1      12.710   5.170   1.369  0.00  0.00    +0.150 HD
BRANCH   4  24
ATOM     24  C   UNL     1      13.720   3.322   1.570  0.00  0.00    +0.193 C 
BRANCH  24  29
ATOM     29  C   UNL     1      14.807   3.954   0.824  0.00  0.00    -0.087 C 
ATOM     30  C   UNL     1      15.701   4.470   0.208  0.00  0.00    +0.005 C 
ENDBRANCH  24  29
ENDBRANCH   4  24
ENDBRANCH   9  18
BRANCH   6  10
ATOM     10  C   UNL     1      10.142   6.652   5.919  0.00  0.00    +0.026 C 
BRANCH  10  14
ATOM     14  C   UNL     1       9.295   6.089   7.065  0.00  0.00    -0.015 C 
ATOM     21  C   UNL     1      10.010   4.979   7.836  0.00  0.00    +0.007 C 
ATOM     22  C   UNL     1       8.922   7.224   8.021  0.00  0.00    +0.007 C 
ENDBRANCH  10  14
ENDBRANCH   6  10
BRANCH   3  19
ATOM     19  C   UNL     1       8.141   9.880  -0.353  0.00  0.00    +0.157 C 
BRANCH  19  23
ATOM      5  N   UNL     1       4.788   8.457  -2.646  0.00  0.00    -0.263 NA
ATOM     23  C   UNL     1       6.966   9.382  -1.156  0.00  0.00    -0.025 A 
ATOM     25  C   UNL     1       5.682   9.440  -0.626  0.00  0.00    +0.025 A 
ATOM     26  C   UNL     1       7.162   8.863  -2.432  0.00  0.00    +0.025 A 
ATOM     27  C   UNL     1       4.636   8.969  -1.404  0.00  0.00    +0.111 A 
ATOM     28  C   UNL     1       6.051   8.418  -3.129  0.00  0.00    +0.111 A 
ENDBRANCH  19  23
ENDBRANCH   3  19
TORSDOF 7
ENDMDL
MODEL 9
REMARK VINA RESULT:      -6.1     26.298     29.189
REMARK  Name = 51138051
REMARK  9 active torsions:
REMARK  status: ('A' for Active; 'I' for Inactive)
REMARK    1  A    between atoms: N_3  and  C_19
REMARK    2  A    between atoms: N_4  and  C_24
REMARK    3  A    between atoms: C_6  and  C_10
REMARK    4  A    between atoms: C_9  and  C_18
REMARK    5  A    between atoms: C_10  and  C_14
REMARK    6  A    between atoms: C_14  and  C_21
REMARK    7  A    between atoms: C_14  and  C_22
REMARK    8  A    between atoms: C_19  and  C_23
REMARK    9  A    between atoms: C_24  and  C_29
REMARK                            x       y       z     vdW  Elec       q    Type
REMARK                         _______ _______ _______ _____ _____    ______ ____
ROOT
ATOM      2  N   UNL     1      12.363   6.295   4.517  0.00  0.00    -0.299 NA
ATOM      3  N   UNL     1      16.599   9.038   4.322  0.00  0.00    -0.342 N 
ATOM      6  C   UNL     1      12.086   7.512   5.293  0.00  0.00    +0.085 C 
ATOM      7  C   UNL     1      13.283   8.434   5.542  0.00  0.00    -0.021 A 
ATOM      8  C   UNL     1      14.514   8.393   4.824  0.00  0.00    +0.008 A 
ATOM      9  C   UNL     1      12.792   6.533   3.146  0.00  0.00    +0.145 C 
ATOM     11  C   UNL     1      15.014   7.589   3.742  0.00  0.00    -0.020 A 
ATOM     12  C   UNL     1      14.313   6.488   3.019  0.00  0.00    +0.065 C 
ATOM     13  C   UNL     1      15.528   9.303   5.142  0.00  0.00    +0.050 A 
ATOM     15  C   UNL     1      16.299   8.014   3.473  0.00  0.00    +0.091 A 
ATOM     16  C   UNL     1      13.155   9.469   6.504  0.00  0.00    +0.006 A 
ATOM     17  C   UNL     1      15.399  10.285   6.125  0.00  0.00    +0.026 A 
ATOM     20  C   UNL     1      14.184  10.361   6.795  0.00  0.00    +0.002 A 
ATOM     31  H   UNL     1      13.020   5.691   5.009  0.00  0.00    +0.123 HD
ENDROOT
BRANCH   9  18
ATOM      1  O   UNL     1      11.035   5.440   1.958  0.00  0.00    -0.274 OA
ATOM      4  N   UNL     1      13.099   4.380   2.146  0.00  0.00    -0.303 N 
ATOM     18  C   UNL     1      12.199   5.412   2.349  0.00  0.00    +0.231 C 
ATOM     32  H   UNL     1      14.049   4.472   2.494  0.00  0.00    +0.150 HD
BRANCH   4  24
ATOM     24  C   UNL     1      12.768   3.172   1.425  0.00  0.00    +0.193 C 
BRANCH  24  29
ATOM     29  C   UNL     1      12.984   3.339  -0.011  0.00  0.00    -0.087 C 
ATOM     30  C   UNL     1      13.159   3.479  -1.192  0.00  0.00    +0.005 C 
ENDBRANCH  24  29
ENDBRANCH   4  24
ENDBRANCH   9  18
BRANCH   6  10
ATOM     10  C   UNL     1      11.451   7.003   6.599  0.00  0.00    +0.026 C 
BRANCH  10  14
ATOM     14  C   UNL     1       9.960   6.681   6.455  0.00  0.00    -0.015 C 
ATOM     21  C   UNL     1       9.669   5.183   6.570  0.00  0.00    +0.007 C 
ATOM     22  C   UNL     1       9.172   7.444   7.522  0.00  0.00    +0.007 C 
ENDBRANCH  10  14
ENDBRANCH   6  10
BRANCH   3  19
ATOM     19  C   UNL     1      17.862   9.744   4.330  0.00  0.00    +0.157 C 
BRANCH  19  23
ATOM      5  N   UNL     1      20.915   7.759   6.624  0.00  0.00    -0.263 NA
ATOM     23  C   UNL     1      18.931   9.048   5.134  0.00  0.00    -0.025 A 
ATOM     25  C   UNL     1      19.083   9.331   6.487  0.00  0.00    +0.025 A 
ATOM     26  C   UNL     1      19.771   8.121   4.525  0.00  0.00    +0.025 A 
ATOM     27  C   UNL     1      20.081   8.665   7.182  0.00  0.00    +0.111 A 
ATOM     28  C   UNL     1      20.737   7.509   5.307  0.00  0.00    +0.111 A 
ENDBRANCH  19  23
ENDBRANCH   3  19
TORSDOF 7
ENDMDL
MODEL 10
REMARK VINA RESULT:      -5.9     19.703     22.471
REMARK  Name = 51138051
REMARK  9 active torsions:
REMARK  status: ('A' for Active; 'I' for Inactive)
REMARK    1  A    between atoms: N_3  and  C_19
REMARK    2  A    between atoms: N_4  and  C_24
REMARK    3  A    between atoms: C_6  and  C_10
REMARK    4  A    between atoms: C_9  and  C_18
REMARK    5  A    between atoms: C_10  and  C_14
REMARK    6  A    between atoms: C_14  and  C_21
REMARK    7  A    between atoms: C_14  and  C_22
REMARK    8  A    between atoms: C_19  and  C_23
REMARK    9  A    between atoms: C_24  and  C_29
REMARK                            x       y       z     vdW  Elec       q    Type
REMARK                         _______ _______ _______ _____ _____    ______ ____
ROOT
ATOM      2  N   UNL     1     -13.130   9.158  21.498  0.00  0.00    -0.299 NA
ATOM      3  N   UNL     1     -10.564  11.207  17.662  0.00  0.00    -0.342 N 
ATOM      6  C   UNL     1     -12.461   8.037  20.822  0.00  0.00    +0.085 C 
ATOM      7  C   UNL     1     -11.758   8.375  19.504  0.00  0.00    -0.021 A 
ATOM      8  C   UNL     1     -11.415   9.688  19.069  0.00  0.00    +0.008 A 
ATOM      9  C   UNL     1     -12.237  10.217  21.948  0.00  0.00    +0.145 C 
ATOM     11  C   UNL     1     -11.569  11.001  19.635  0.00  0.00    -0.020 A 
ATOM     12  C   UNL     1     -12.182  11.367  20.944  0.00  0.00    +0.065 C 
ATOM     13  C   UNL     1     -10.760   9.859  17.844  0.00  0.00    +0.050 A 
ATOM     15  C   UNL     1     -11.040  11.902  18.734  0.00  0.00    +0.091 A 
ATOM     16  C   UNL     1     -11.337   7.309  18.667  0.00  0.00    +0.006 A 
ATOM     17  C   UNL     1     -10.394   8.799  17.013  0.00  0.00    +0.026 A 
ATOM     20  C   UNL     1     -10.684   7.514  17.454  0.00  0.00    +0.002 A 
ATOM     31  H   UNL     1     -13.885   9.531  20.924  0.00  0.00    +0.123 HD
ENDROOT
BRANCH   9  18
ATOM      1  O   UNL     1     -14.043  10.732  23.420  0.00  0.00    -0.274 OA
ATOM      4  N   UNL     1     -11.863  11.145  24.122  0.00  0.00    -0.303 N 
ATOM     18  C   UNL     1     -12.830  10.712  23.231  0.00  0.00    +0.231 C 
ATOM     32  H   UNL     1     -10.881  11.061  23.872  0.00  0.00    +0.150 HD
BRANCH   4  24
ATOM     24  C   UNL     1     -12.174  11.689  25.424  0.00  0.00    +0.193 C 
BRANCH  24  29
ATOM     29  C   UNL     1     -11.570  10.889  26.488  0.00  0.00    -0.087 C 
ATOM     30  C   UNL     1     -11.071  10.230  27.360  0.00  0.00    +0.005 C 
ENDBRANCH  24  29
ENDBRANCH   4  24
ENDBRANCH   9  18
BRANCH   6  10
ATOM     10  C   UNL     1     -13.561   6.975  20.650  0.00  0.00    +0.026 C 
BRANCH  10  14
ATOM     14  C   UNL     1     -14.101   6.450  21.984  0.00  0.00    -0.015 C 
ATOM     21  C   UNL     1     -15.625   6.325  21.993  0.00  0.00    +0.007 C 
ATOM     22  C   UNL     1     -13.468   5.090  22.285  0.00  0.00    +0.007 C 
ENDBRANCH  10  14
ENDBRANCH   6  10
BRANCH   3  19
ATOM     19  C   UNL     1      -9.928  11.819  16.514  0.00  0.00    +0.157 C 
BRANCH  19  23
ATOM      5  N   UNL     1     -12.726  13.389  13.645  0.00  0.00    -0.263 NA
ATOM     23  C   UNL     1     -10.909  12.368  15.509  0.00  0.00    -0.025 A 
ATOM     25  C   UNL     1     -11.577  11.510  14.642  0.00  0.00    +0.025 A 
ATOM     26  C   UNL     1     -11.150  13.737  15.445  0.00  0.00    +0.025 A 
ATOM     27  C   UNL     1     -12.467  12.065  13.737  0.00  0.00    +0.111 A 
ATOM     28  C   UNL     1     -12.059  14.193  14.505  0.00  0.00    +0.111 A 
ENDBRANCH  19  23
ENDBRANCH   3  19
TORSDOF 7
ENDMDL
