MODEL 1
REMARK VINA RESULT:      -8.1      0.000      0.000
REMARK  Name = 26743806
REMARK  8 active torsions:
REMARK  status: ('A' for Active; 'I' for Inactive)
REMARK    1  A    between atoms: O_2  and  C_11
REMARK    2  A    between atoms: N_5  and  C_13
REMARK    3  A    between atoms: N_8  and  C_21
REMARK    4  A    between atoms: C_9  and  C_14
REMARK    5  A    between atoms: C_13  and  C_15
REMARK    6  A    between atoms: C_18  and  C_22
REMARK    7  A    between atoms: C_27  and  C_29
REMARK    8  A    between atoms: C_28  and  C_30
REMARK                            x       y       z     vdW  Elec       q    Type
REMARK                         _______ _______ _______ _____ _____    ______ ____
ROOT
ATOM      5  N   UNL     1      13.232   8.000  20.487  0.00  0.00    -0.285 NA
ATOM      9  C   UNL     1      11.950   8.719  20.338  0.00  0.00    +0.149 C 
ATOM     10  C   UNL     1      10.896   7.773  20.943  0.00  0.00    +0.061 C 
ATOM     11  C   UNL     1      11.674   6.531  21.361  0.00  0.00    +0.130 C 
ATOM     12  C   UNL     1      12.910   6.574  20.485  0.00  0.00    +0.116 C 
ENDROOT
BRANCH   9  14
ATOM      3  O   UNL     1      12.372  11.124  20.233  0.00  0.00    -0.336 OA
ATOM      6  N   UNL     1      11.639  10.410  22.225  0.00  0.00    -0.190 NA
ATOM      7  N   UNL     1      12.303  12.258  21.051  0.00  0.00    -0.056 NA
ATOM     14  C   UNL     1      11.965  10.080  21.001  0.00  0.00    +0.245 A 
ATOM     18  C   UNL     1      11.863  11.757  22.209  0.00  0.00    +0.202 A 
BRANCH  18  22
ATOM      1  F   UNL     1       9.456  15.275  24.447  0.00  0.00    -0.205 F 
ATOM     22  C   UNL     1      11.636  12.573  23.367  0.00  0.00    +0.025 A 
ATOM     23  C   UNL     1      10.638  13.547  23.348  0.00  0.00    +0.050 A 
ATOM     24  C   UNL     1      12.411  12.390  24.511  0.00  0.00    +0.012 A 
ATOM     25  C   UNL     1      10.416  14.340  24.474  0.00  0.00    +0.127 A 
ATOM     26  C   UNL     1      12.190  13.184  25.637  0.00  0.00    +0.007 A 
ATOM     27  C   UNL     1      11.193  14.158  25.618  0.00  0.00    -0.015 A 
ATOM     29  C   UNL     1      10.958  15.004  26.824  0.00  0.00    +0.047 C 
ENDBRANCH  18  22
ENDBRANCH   9  14
BRANCH  11   2
ATOM      2  O   UNL     1      10.912   5.362  21.138  0.00  0.00    -0.390 OA
ATOM     31  H   UNL     1      10.176   5.367  21.773  0.00  0.00    +0.210 HD
ENDBRANCH  11   2
BRANCH   5  13
ATOM     13  C   UNL     1      14.206   8.344  19.460  0.00  0.00    +0.120 C 
BRANCH  13  15
ATOM     15  C   UNL     1      15.510   7.616  19.657  0.00  0.00    -0.033 A 
ATOM     16  C   UNL     1      15.883   6.604  18.773  0.00  0.00    +0.007 A 
ATOM     17  C   UNL     1      16.343   7.954  20.724  0.00  0.00    +0.007 A 
ATOM     19  C   UNL     1      17.091   5.930  18.954  0.00  0.00    +0.023 A 
ATOM     20  C   UNL     1      17.551   7.280  20.906  0.00  0.00    +0.023 A 
ATOM     21  C   UNL     1      17.925   6.268  20.021  0.00  0.00    +0.033 A 
BRANCH  21   8
ATOM      4  O   UNL     1      20.676   7.320  20.643  0.00  0.00    -0.276 OA
ATOM      8  N   UNL     1      19.132   5.593  20.202  0.00  0.00    -0.286 N 
ATOM     28  C   UNL     1      20.392   6.136  20.490  0.00  0.00    +0.214 C 
ATOM     30  C   UNL     1      21.448   5.066  20.610  0.00  0.00    +0.109 C 
ATOM     32  H   UNL     1      19.083   4.581  20.112  0.00  0.00    +0.155 HD
ENDBRANCH  21   8
ENDBRANCH  13  15
ENDBRANCH   5  13
TORSDOF 6
ENDMDL
MODEL 2
REMARK VINA RESULT:      -8.0      4.673      8.159
REMARK  Name = 26743806
REMARK  8 active torsions:
REMARK  status: ('A' for Active; 'I' for Inactive)
REMARK    1  A    between atoms: O_2  and  C_11
REMARK    2  A    between atoms: N_5  and  C_13
REMARK    3  A    between atoms: N_8  and  C_21
REMARK    4  A    between atoms: C_9  and  C_14
REMARK    5  A    between atoms: C_13  and  C_15
REMARK    6  A    between atoms: C_18  and  C_22
REMARK    7  A    between atoms: C_27  and  C_29
REMARK    8  A    between atoms: C_28  and  C_30
REMARK                            x       y       z     vdW  Elec       q    Type
REMARK                         _______ _______ _______ _____ _____    ______ ____
ROOT
ATOM      5  N   UNL     1      12.414   8.927  20.291  0.00  0.00    -0.285 NA
ATOM      9  C   UNL     1      13.138   8.277  21.403  0.00  0.00    +0.149 C 
ATOM     10  C   UNL     1      12.156   7.221  21.947  0.00  0.00    +0.061 C 
ATOM     11  C   UNL     1      10.895   7.385  21.108  0.00  0.00    +0.130 C 
ATOM     12  C   UNL     1      10.990   8.811  20.599  0.00  0.00    +0.116 C 
ENDROOT
BRANCH   9  14
ATOM      3  O   UNL     1      14.405   6.734  19.994  0.00  0.00    -0.336 OA
ATOM      6  N   UNL     1      15.668   7.938  21.398  0.00  0.00    -0.190 NA
ATOM      7  N   UNL     1      15.728   6.336  19.766  0.00  0.00    -0.056 NA
ATOM     14  C   UNL     1      14.459   7.679  20.969  0.00  0.00    +0.245 A 
ATOM     18  C   UNL     1      16.413   7.090  20.630  0.00  0.00    +0.202 A 
BRANCH  18  22
ATOM      1  F   UNL     1      20.557   4.710  20.041  0.00  0.00    -0.205 F 
ATOM     22  C   UNL     1      17.841   7.021  20.752  0.00  0.00    +0.025 A 
ATOM     23  C   UNL     1      18.522   5.879  20.331  0.00  0.00    +0.050 A 
ATOM     24  C   UNL     1      18.547   8.096  21.290  0.00  0.00    +0.012 A 
ATOM     25  C   UNL     1      19.910   5.812  20.448  0.00  0.00    +0.127 A 
ATOM     26  C   UNL     1      19.936   8.029  21.408  0.00  0.00    +0.007 A 
ATOM     27  C   UNL     1      20.617   6.888  20.987  0.00  0.00    -0.015 A 
ATOM     29  C   UNL     1      22.101   6.819  21.113  0.00  0.00    +0.047 C 
ENDBRANCH  18  22
ENDBRANCH   9  14
BRANCH  11   2
ATOM      2  O   UNL     1       9.739   7.185  21.895  0.00  0.00    -0.390 OA
ATOM     31  H   UNL     1       9.405   6.292  21.703  0.00  0.00    +0.210 HD
ENDBRANCH  11   2
BRANCH   5  13
ATOM     13  C   UNL     1      12.818  10.309  20.073  0.00  0.00    +0.120 C 
BRANCH  13  15
ATOM     15  C   UNL     1      13.443  10.504  18.717  0.00  0.00    -0.033 A 
ATOM     16  C   UNL     1      13.571   9.423  17.846  0.00  0.00    +0.007 A 
ATOM     17  C   UNL     1      13.895  11.767  18.333  0.00  0.00    +0.007 A 
ATOM     19  C   UNL     1      14.149   9.604  16.589  0.00  0.00    +0.023 A 
ATOM     20  C   UNL     1      14.473  11.949  17.077  0.00  0.00    +0.023 A 
ATOM     21  C   UNL     1      14.601  10.867  16.205  0.00  0.00    +0.033 A 
BRANCH  21   8
ATOM      4  O   UNL     1      13.682  12.497  13.847  0.00  0.00    -0.276 OA
ATOM      8  N   UNL     1      15.180  11.047  14.948  0.00  0.00    -0.286 N 
ATOM     28  C   UNL     1      14.705  11.821  13.880  0.00  0.00    +0.214 C 
ATOM     30  C   UNL     1      15.625  11.752  12.688  0.00  0.00    +0.109 C 
ATOM     32  H   UNL     1      16.055  10.550  14.797  0.00  0.00    +0.155 HD
ENDBRANCH  21   8
ENDBRANCH  13  15
ENDBRANCH   5  13
TORSDOF 6
ENDMDL
MODEL 3
REMARK VINA RESULT:      -7.9      3.308      5.583
REMARK  Name = 26743806
REMARK  8 active torsions:
REMARK  status: ('A' for Active; 'I' for Inactive)
REMARK    1  A    between atoms: O_2  and  C_11
REMARK    2  A    between atoms: N_5  and  C_13
REMARK    3  A    between atoms: N_8  and  C_21
REMARK    4  A    between atoms: C_9  and  C_14
REMARK    5  A    between atoms: C_13  and  C_15
REMARK    6  A    between atoms: C_18  and  C_22
REMARK    7  A    between atoms: C_27  and  C_29
REMARK    8  A    between atoms: C_28  and  C_30
REMARK                            x       y       z     vdW  Elec       q    Type
REMARK                         _______ _______ _______ _____ _____    ______ ____
ROOT
ATOM      5  N   UNL     1      14.569   7.917  19.890  0.00  0.00    -0.285 NA
ATOM      9  C   UNL     1      13.938   7.332  21.090  0.00  0.00    +0.149 C 
ATOM     10  C   UNL     1      15.106   7.058  22.056  0.00  0.00    +0.061 C 
ATOM     11  C   UNL     1      16.356   7.478  21.292  0.00  0.00    +0.130 C 
ATOM     12  C   UNL     1      15.931   7.389  19.839  0.00  0.00    +0.116 C 
ENDROOT
BRANCH   9  14
ATOM      3  O   UNL     1      11.711   7.643  22.048  0.00  0.00    -0.336 OA
ATOM      6  N   UNL     1      12.923   9.522  21.924  0.00  0.00    -0.190 NA
ATOM      7  N   UNL     1      10.904   8.662  22.570  0.00  0.00    -0.056 NA
ATOM     14  C   UNL     1      12.881   8.235  21.692  0.00  0.00    +0.245 A 
ATOM     18  C   UNL     1      11.688   9.738  22.463  0.00  0.00    +0.202 A 
BRANCH  18  22
ATOM      1  F   UNL     1      10.313  12.774  25.939  0.00  0.00    -0.205 F 
ATOM     22  C   UNL     1      11.269  11.043  22.887  0.00  0.00    +0.025 A 
ATOM     23  C   UNL     1      10.988  11.283  24.232  0.00  0.00    +0.050 A 
ATOM     24  C   UNL     1      11.144  12.072  21.954  0.00  0.00    +0.012 A 
ATOM     25  C   UNL     1      10.581  12.552  24.644  0.00  0.00    +0.127 A 
ATOM     26  C   UNL     1      10.735  13.341  22.366  0.00  0.00    +0.007 A 
ATOM     27  C   UNL     1      10.455  13.580  23.710  0.00  0.00    -0.015 A 
ATOM     29  C   UNL     1      10.020  14.939  24.148  0.00  0.00    +0.047 C 
ENDBRANCH  18  22
ENDBRANCH   9  14
BRANCH  11   2
ATOM      2  O   UNL     1      17.435   6.610  21.578  0.00  0.00    -0.390 OA
ATOM     31  H   UNL     1      17.999   7.052  22.236  0.00  0.00    +0.210 HD
ENDBRANCH  11   2
BRANCH   5  13
ATOM     13  C   UNL     1      13.831   7.649  18.664  0.00  0.00    +0.120 C 
BRANCH  13  15
ATOM     15  C   UNL     1      13.948   8.783  17.679  0.00  0.00    -0.033 A 
ATOM     16  C   UNL     1      13.829  10.102  18.116  0.00  0.00    +0.007 A 
ATOM     17  C   UNL     1      14.176   8.513  16.329  0.00  0.00    +0.007 A 
ATOM     19  C   UNL     1      13.939  11.152  17.205  0.00  0.00    +0.023 A 
ATOM     20  C   UNL     1      14.286   9.563  15.417  0.00  0.00    +0.023 A 
ATOM     21  C   UNL     1      14.167  10.882  15.855  0.00  0.00    +0.033 A 
BRANCH  21   8
ATOM      4  O   UNL     1      12.463  11.589  13.476  0.00  0.00    -0.276 OA
ATOM      8  N   UNL     1      14.277  11.933  14.944  0.00  0.00    -0.286 N 
ATOM     28  C   UNL     1      13.452  12.215  13.846  0.00  0.00    +0.214 C 
ATOM     30  C   UNL     1      13.909  13.446  13.105  0.00  0.00    +0.109 C 
ATOM     32  H   UNL     1      15.056  12.567  15.102  0.00  0.00    +0.155 HD
ENDBRANCH  21   8
ENDBRANCH  13  15
ENDBRANCH   5  13
TORSDOF 6
ENDMDL
MODEL 4
REMARK VINA RESULT:      -7.9      3.714      8.376
REMARK  Name = 26743806
REMARK  8 active torsions:
REMARK  status: ('A' for Active; 'I' for Inactive)
REMARK    1  A    between atoms: O_2  and  C_11
REMARK    2  A    between atoms: N_5  and  C_13
REMARK    3  A    between atoms: N_8  and  C_21
REMARK    4  A    between atoms: C_9  and  C_14
REMARK    5  A    between atoms: C_13  and  C_15
REMARK    6  A    between atoms: C_18  and  C_22
REMARK    7  A    between atoms: C_27  and  C_29
REMARK    8  A    between atoms: C_28  and  C_30
REMARK                            x       y       z     vdW  Elec       q    Type
REMARK                         _______ _______ _______ _____ _____    ______ ____
ROOT
ATOM      5  N   UNL     1      13.367   8.475  18.859  0.00  0.00    -0.285 NA
ATOM      9  C   UNL     1      14.112   7.319  18.322  0.00  0.00    +0.149 C 
ATOM     10  C   UNL     1      14.290   7.627  16.823  0.00  0.00    +0.061 C 
ATOM     11  C   UNL     1      13.571   8.953  16.605  0.00  0.00    +0.130 C 
ATOM     12  C   UNL     1      12.579   9.012  17.751  0.00  0.00    +0.116 C 
ENDROOT
BRANCH   9  14
ATOM      3  O   UNL     1      16.106   5.960  18.710  0.00  0.00    -0.336 OA
ATOM      6  N   UNL     1      16.028   7.838  19.928  0.00  0.00    -0.190 NA
ATOM      7  N   UNL     1      17.273   5.971  19.484  0.00  0.00    -0.056 NA
ATOM     14  C   UNL     1      15.430   7.094  19.033  0.00  0.00    +0.245 A 
ATOM     18  C   UNL     1      17.155   7.108  20.175  0.00  0.00    +0.202 A 
BRANCH  18  22
ATOM      1  F   UNL     1      20.801   6.147  23.169  0.00  0.00    -0.205 F 
ATOM     22  C   UNL     1      18.144   7.545  21.117  0.00  0.00    +0.025 A 
ATOM     23  C   UNL     1      19.010   6.619  21.699  0.00  0.00    +0.050 A 
ATOM     24  C   UNL     1      18.241   8.896  21.450  0.00  0.00    +0.012 A 
ATOM     25  C   UNL     1      19.973   7.044  22.614  0.00  0.00    +0.127 A 
ATOM     26  C   UNL     1      19.203   9.320  22.367  0.00  0.00    +0.007 A 
ATOM     27  C   UNL     1      20.069   8.395  22.948  0.00  0.00    -0.015 A 
ATOM     29  C   UNL     1      21.097   8.852  23.928  0.00  0.00    +0.047 C 
ENDBRANCH  18  22
ENDBRANCH   9  14
BRANCH  11   2
ATOM      2  O   UNL     1      12.924   8.972  15.348  0.00  0.00    -0.390 OA
ATOM     31  H   UNL     1      12.775   9.903  15.111  0.00  0.00    +0.210 HD
ENDBRANCH  11   2
BRANCH   5  13
ATOM     13  C   UNL     1      12.538   8.140  20.009  0.00  0.00    +0.120 C 
BRANCH  13  15
ATOM     15  C   UNL     1      12.515   9.250  21.027  0.00  0.00    -0.033 A 
ATOM     16  C   UNL     1      13.629   9.477  21.835  0.00  0.00    +0.007 A 
ATOM     17  C   UNL     1      11.381  10.051  21.161  0.00  0.00    +0.007 A 
ATOM     19  C   UNL     1      13.609  10.506  22.777  0.00  0.00    +0.023 A 
ATOM     20  C   UNL     1      11.360  11.080  22.102  0.00  0.00    +0.023 A 
ATOM     21  C   UNL     1      12.474  11.307  22.911  0.00  0.00    +0.033 A 
BRANCH  21   8
ATOM      4  O   UNL     1      11.133  11.465  25.602  0.00  0.00    -0.276 OA
ATOM      8  N   UNL     1      12.454  12.336  23.853  0.00  0.00    -0.286 N 
ATOM     28  C   UNL     1      11.808  12.357  25.097  0.00  0.00    +0.214 C 
ATOM     30  C   UNL     1      12.031  13.661  25.820  0.00  0.00    +0.109 C 
ATOM     32  H   UNL     1      12.976  13.171  23.597  0.00  0.00    +0.155 HD
ENDBRANCH  21   8
ENDBRANCH  13  15
ENDBRANCH   5  13
TORSDOF 6
ENDMDL
MODEL 5
REMARK VINA RESULT:      -7.7      4.532      6.397
REMARK  Name = 26743806
REMARK  8 active torsions:
REMARK  status: ('A' for Active; 'I' for Inactive)
REMARK    1  A    between atoms: O_2  and  C_11
REMARK    2  A    between atoms: N_5  and  C_13
REMARK    3  A    between atoms: N_8  and  C_21
REMARK    4  A    between atoms: C_9  and  C_14
REMARK    5  A    between atoms: C_13  and  C_15
REMARK    6  A    between atoms: C_18  and  C_22
REMARK    7  A    between atoms: C_27  and  C_29
REMARK    8  A    between atoms: C_28  and  C_30
REMARK                            x       y       z     vdW  Elec       q    Type
REMARK                         _______ _______ _______ _____ _____    ______ ____
ROOT
ATOM      5  N   UNL     1      13.303   7.624  20.173  0.00  0.00    -0.285 NA
ATOM      9  C   UNL     1      12.511   8.195  19.064  0.00  0.00    +0.149 C 
ATOM     10  C   UNL     1      11.144   8.531  19.689  0.00  0.00    +0.061 C 
ATOM     11  C   UNL     1      11.248   8.071  21.138  0.00  0.00    +0.130 C 
ATOM     12  C   UNL     1      12.345   7.024  21.100  0.00  0.00    +0.116 C 
ENDROOT
BRANCH   9  14
ATOM      3  O   UNL     1      12.889  10.608  18.980  0.00  0.00    -0.336 OA
ATOM      6  N   UNL     1      14.004   9.452  17.418  0.00  0.00    -0.190 NA
ATOM      7  N   UNL     1      13.610  11.551  18.237  0.00  0.00    -0.056 NA
ATOM     14  C   UNL     1      13.178   9.398  18.432  0.00  0.00    +0.245 A 
ATOM     18  C   UNL     1      14.241  10.794  17.336  0.00  0.00    +0.202 A 
BRANCH  18  22
ATOM      1  F   UNL     1      15.664  11.169  12.752  0.00  0.00    -0.205 F 
ATOM     22  C   UNL     1      15.117  11.345  16.342  0.00  0.00    +0.025 A 
ATOM     23  C   UNL     1      14.965  10.985  15.003  0.00  0.00    +0.050 A 
ATOM     24  C   UNL     1      16.117  12.242  16.715  0.00  0.00    +0.012 A 
ATOM     25  C   UNL     1      15.816  11.521  14.037  0.00  0.00    +0.127 A 
ATOM     26  C   UNL     1      16.969  12.777  15.748  0.00  0.00    +0.007 A 
ATOM     27  C   UNL     1      16.818  12.417  14.410  0.00  0.00    -0.015 A 
ATOM     29  C   UNL     1      17.729  12.993  13.378  0.00  0.00    +0.047 C 
ENDBRANCH  18  22
ENDBRANCH   9  14
BRANCH  11   2
ATOM      2  O   UNL     1      10.020   7.530  21.582  0.00  0.00    -0.390 OA
ATOM     31  H   UNL     1      10.203   7.012  22.385  0.00  0.00    +0.210 HD
ENDBRANCH  11   2
BRANCH   5  13
ATOM     13  C   UNL     1      14.308   6.668  19.729  0.00  0.00    +0.120 C 
BRANCH  13  15
ATOM     15  C   UNL     1      15.682   7.025  20.231  0.00  0.00    -0.033 A 
ATOM     16  C   UNL     1      16.779   6.237  19.883  0.00  0.00    +0.007 A 
ATOM     17  C   UNL     1      15.858   8.145  21.044  0.00  0.00    +0.007 A 
ATOM     19  C   UNL     1      18.052   6.569  20.347  0.00  0.00    +0.023 A 
ATOM     20  C   UNL     1      17.131   8.478  21.509  0.00  0.00    +0.023 A 
ATOM     21  C   UNL     1      18.228   7.689  21.160  0.00  0.00    +0.033 A 
BRANCH  21   8
ATOM      4  O   UNL     1      19.968   6.343  23.216  0.00  0.00    -0.276 OA
ATOM      8  N   UNL     1      19.501   8.020  21.625  0.00  0.00    -0.286 N 
ATOM     28  C   UNL     1      20.269   7.355  22.591  0.00  0.00    +0.214 C 
ATOM     30  C   UNL     1      21.597   8.033  22.812  0.00  0.00    +0.109 C 
ATOM     32  H   UNL     1      19.915   8.849  21.205  0.00  0.00    +0.155 HD
ENDBRANCH  21   8
ENDBRANCH  13  15
ENDBRANCH   5  13
TORSDOF 6
ENDMDL
MODEL 6
REMARK VINA RESULT:      -7.7     26.353     29.311
REMARK  Name = 26743806
REMARK  8 active torsions:
REMARK  status: ('A' for Active; 'I' for Inactive)
REMARK    1  A    between atoms: O_2  and  C_11
REMARK    2  A    between atoms: N_5  and  C_13
REMARK    3  A    between atoms: N_8  and  C_21
REMARK    4  A    between atoms: C_9  and  C_14
REMARK    5  A    between atoms: C_13  and  C_15
REMARK    6  A    between atoms: C_18  and  C_22
REMARK    7  A    between atoms: C_27  and  C_29
REMARK    8  A    between atoms: C_28  and  C_30
REMARK                            x       y       z     vdW  Elec       q    Type
REMARK                         _______ _______ _______ _____ _____    ______ ____
ROOT
ATOM      5  N   UNL     1     -13.587   7.195  33.607  0.00  0.00    -0.285 NA
ATOM      9  C   UNL     1     -13.526   8.671  33.619  0.00  0.00    +0.149 C 
ATOM     10  C   UNL     1     -12.816   9.024  34.940  0.00  0.00    +0.061 C 
ATOM     11  C   UNL     1     -12.560   7.686  35.621  0.00  0.00    +0.130 C 
ATOM     12  C   UNL     1     -13.600   6.769  35.005  0.00  0.00    +0.116 C 
ENDROOT
BRANCH   9  14
ATOM      3  O   UNL     1     -11.589   9.774  32.618  0.00  0.00    -0.336 OA
ATOM      6  N   UNL     1     -13.217   9.284  31.160  0.00  0.00    -0.190 NA
ATOM      7  N   UNL     1     -11.142  10.223  31.369  0.00  0.00    -0.056 NA
ATOM     14  C   UNL     1     -12.818   9.235  32.406  0.00  0.00    +0.245 A 
ATOM     18  C   UNL     1     -12.156   9.899  30.562  0.00  0.00    +0.202 A 
BRANCH  18  22
ATOM      1  F   UNL     1      -9.765  10.323  26.404  0.00  0.00    -0.205 F 
ATOM     22  C   UNL     1     -12.140  10.174  29.154  0.00  0.00    +0.025 A 
ATOM     23  C   UNL     1     -10.939  10.115  28.446  0.00  0.00    +0.050 A 
ATOM     24  C   UNL     1     -13.324  10.498  28.493  0.00  0.00    +0.012 A 
ATOM     25  C   UNL     1     -10.924  10.381  27.077  0.00  0.00    +0.127 A 
ATOM     26  C   UNL     1     -13.308  10.766  27.124  0.00  0.00    +0.007 A 
ATOM     27  C   UNL     1     -12.109  10.707  26.416  0.00  0.00    -0.015 A 
ATOM     29  C   UNL     1     -12.095  10.992  24.952  0.00  0.00    +0.047 C 
ENDBRANCH  18  22
ENDBRANCH   9  14
BRANCH  11   2
ATOM      2  O   UNL     1     -12.720   7.796  37.021  0.00  0.00    -0.390 OA
ATOM     31  H   UNL     1     -11.832   7.828  37.416  0.00  0.00    +0.210 HD
ENDBRANCH  11   2
BRANCH   5  13
ATOM     13  C   UNL     1     -14.726   6.673  32.864  0.00  0.00    +0.120 C 
BRANCH  13  15
ATOM     15  C   UNL     1     -14.398   5.377  32.172  0.00  0.00    -0.033 A 
ATOM     16  C   UNL     1     -13.233   4.685  32.502  0.00  0.00    +0.007 A 
ATOM     17  C   UNL     1     -15.259   4.869  31.199  0.00  0.00    +0.007 A 
ATOM     19  C   UNL     1     -12.930   3.483  31.862  0.00  0.00    +0.023 A 
ATOM     20  C   UNL     1     -14.956   3.667  30.558  0.00  0.00    +0.023 A 
ATOM     21  C   UNL     1     -13.791   2.975  30.889  0.00  0.00    +0.033 A 
BRANCH  21   8
ATOM      4  O   UNL     1     -14.903   0.207  31.297  0.00  0.00    -0.276 OA
ATOM      8  N   UNL     1     -13.487   1.773  30.248  0.00  0.00    -0.286 N 
ATOM     28  C   UNL     1     -14.038   0.505  30.481  0.00  0.00    +0.214 C 
ATOM     30  C   UNL     1     -13.437  -0.539  29.574  0.00  0.00    +0.109 C 
ATOM     32  H   UNL     1     -12.775   1.835  29.524  0.00  0.00    +0.155 HD
ENDBRANCH  21   8
ENDBRANCH  13  15
ENDBRANCH   5  13
TORSDOF 6
ENDMDL
MODEL 7
REMARK VINA RESULT:      -7.7      3.892      8.887
REMARK  Name = 26743806
REMARK  8 active torsions:
REMARK  status: ('A' for Active; 'I' for Inactive)
REMARK    1  A    between atoms: O_2  and  C_11
REMARK    2  A    between atoms: N_5  and  C_13
REMARK    3  A    between atoms: N_8  and  C_21
REMARK    4  A    between atoms: C_9  and  C_14
REMARK    5  A    between atoms: C_13  and  C_15
REMARK    6  A    between atoms: C_18  and  C_22
REMARK    7  A    between atoms: C_27  and  C_29
REMARK    8  A    between atoms: C_28  and  C_30
REMARK                            x       y       z     vdW  Elec       q    Type
REMARK                         _______ _______ _______ _____ _____    ______ ____
ROOT
ATOM      5  N   UNL     1      14.302   9.237  18.043  0.00  0.00    -0.285 NA
ATOM      9  C   UNL     1      14.148   8.203  19.087  0.00  0.00    +0.149 C 
ATOM     10  C   UNL     1      12.954   7.349  18.621  0.00  0.00    +0.061 C 
ATOM     11  C   UNL     1      12.475   8.009  17.333  0.00  0.00    +0.130 C 
ATOM     12  C   UNL     1      12.978   9.434  17.456  0.00  0.00    +0.116 C 
ENDROOT
BRANCH   9  14
ATOM      3  O   UNL     1      15.576   6.320  18.464  0.00  0.00    -0.336 OA
ATOM      6  N   UNL     1      16.376   7.554  20.153  0.00  0.00    -0.190 NA
ATOM      7  N   UNL     1      16.791   5.730  18.836  0.00  0.00    -0.056 NA
ATOM     14  C   UNL     1      15.407   7.386  19.288  0.00  0.00    +0.245 A 
ATOM     18  C   UNL     1      17.201   6.514  19.837  0.00  0.00    +0.202 A 
BRANCH  18  22
ATOM      1  F   UNL     1      21.356   4.135  20.351  0.00  0.00    -0.205 F 
ATOM     22  C   UNL     1      18.430   6.287  20.541  0.00  0.00    +0.025 A 
ATOM     23  C   UNL     1      19.315   5.303  20.099  0.00  0.00    +0.050 A 
ATOM     24  C   UNL     1      18.740   7.050  21.666  0.00  0.00    +0.012 A 
ATOM     25  C   UNL     1      20.511   5.083  20.783  0.00  0.00    +0.127 A 
ATOM     26  C   UNL     1      19.936   6.828  22.350  0.00  0.00    +0.007 A 
ATOM     27  C   UNL     1      20.821   5.846  21.908  0.00  0.00    -0.015 A 
ATOM     29  C   UNL     1      22.098   5.612  22.642  0.00  0.00    +0.047 C 
ENDBRANCH  18  22
ENDBRANCH   9  14
BRANCH  11   2
ATOM      2  O   UNL     1      11.066   7.956  17.235  0.00  0.00    -0.390 OA
ATOM     31  H   UNL     1      10.728   7.596  18.073  0.00  0.00    +0.210 HD
ENDBRANCH  11   2
BRANCH   5  13
ATOM     13  C   UNL     1      14.870  10.481  18.547  0.00  0.00    +0.120 C 
BRANCH  13  15
ATOM     15  C   UNL     1      14.195  10.932  19.815  0.00  0.00    -0.033 A 
ATOM     16  C   UNL     1      12.982  11.616  19.755  0.00  0.00    +0.007 A 
ATOM     17  C   UNL     1      14.785  10.665  21.052  0.00  0.00    +0.007 A 
ATOM     19  C   UNL     1      12.356  12.033  20.930  0.00  0.00    +0.023 A 
ATOM     20  C   UNL     1      14.160  11.082  22.227  0.00  0.00    +0.023 A 
ATOM     21  C   UNL     1      12.946  11.766  22.166  0.00  0.00    +0.033 A 
BRANCH  21   8
ATOM      4  O   UNL     1      10.856  10.408  23.855  0.00  0.00    -0.276 OA
ATOM      8  N   UNL     1      12.320  12.184  23.341  0.00  0.00    -0.286 N 
ATOM     28  C   UNL     1      11.346  11.508  24.089  0.00  0.00    +0.214 C 
ATOM     30  C   UNL     1      10.922  12.301  25.300  0.00  0.00    +0.109 C 
ATOM     32  H   UNL     1      12.613  13.093  23.690  0.00  0.00    +0.155 HD
ENDBRANCH  21   8
ENDBRANCH  13  15
ENDBRANCH   5  13
TORSDOF 6
ENDMDL
MODEL 8
REMARK VINA RESULT:      -7.7      3.610      8.996
REMARK  Name = 26743806
REMARK  8 active torsions:
REMARK  status: ('A' for Active; 'I' for Inactive)
REMARK    1  A    between atoms: O_2  and  C_11
REMARK    2  A    between atoms: N_5  and  C_13
REMARK    3  A    between atoms: N_8  and  C_21
REMARK    4  A    between atoms: C_9  and  C_14
REMARK    5  A    between atoms: C_13  and  C_15
REMARK    6  A    between atoms: C_18  and  C_22
REMARK    7  A    between atoms: C_27  and  C_29
REMARK    8  A    between atoms: C_28  and  C_30
REMARK                            x       y       z     vdW  Elec       q    Type
REMARK                         _______ _______ _______ _____ _____    ______ ____
ROOT
ATOM      5  N   UNL     1      12.488   8.989  20.240  0.00  0.00    -0.285 NA
ATOM      9  C   UNL     1      13.226   8.352  21.349  0.00  0.00    +0.149 C 
ATOM     10  C   UNL     1      12.244   7.320  21.934  0.00  0.00    +0.061 C 
ATOM     11  C   UNL     1      10.967   7.484  21.119  0.00  0.00    +0.130 C 
ATOM     12  C   UNL     1      11.069   8.898  20.579  0.00  0.00    +0.116 C 
ENDROOT
BRANCH   9  14
ATOM      3  O   UNL     1      14.455   6.840  19.873  0.00  0.00    -0.336 OA
ATOM      6  N   UNL     1      15.742   7.918  21.356  0.00  0.00    -0.190 NA
ATOM      7  N   UNL     1      15.766   6.405  19.640  0.00  0.00    -0.056 NA
ATOM     14  C   UNL     1      14.531   7.729  20.899  0.00  0.00    +0.245 A 
ATOM     18  C   UNL     1      16.466   7.085  20.553  0.00  0.00    +0.202 A 
BRANCH  18  22
ATOM      1  F   UNL     1      20.507   4.520  20.029  0.00  0.00    -0.205 F 
ATOM     22  C   UNL     1      17.888   6.956  20.688  0.00  0.00    +0.025 A 
ATOM     23  C   UNL     1      18.523   5.780  20.286  0.00  0.00    +0.050 A 
ATOM     24  C   UNL     1      18.636   8.006  21.219  0.00  0.00    +0.012 A 
ATOM     25  C   UNL     1      19.906   5.655  20.417  0.00  0.00    +0.127 A 
ATOM     26  C   UNL     1      20.020   7.880  21.350  0.00  0.00    +0.007 A 
ATOM     27  C   UNL     1      20.654   6.705  20.949  0.00  0.00    -0.015 A 
ATOM     29  C   UNL     1      22.133   6.573  21.089  0.00  0.00    +0.047 C 
ENDBRANCH  18  22
ENDBRANCH   9  14
BRANCH  11   2
ATOM      2  O   UNL     1       9.825   7.314  21.934  0.00  0.00    -0.390 OA
ATOM     31  H   UNL     1      10.076   7.553  22.843  0.00  0.00    +0.210 HD
ENDBRANCH  11   2
BRANCH   5  13
ATOM     13  C   UNL     1      12.904  10.362  19.986  0.00  0.00    +0.120 C 
BRANCH  13  15
ATOM     15  C   UNL     1      12.652  11.253  21.174  0.00  0.00    -0.033 A 
ATOM     16  C   UNL     1      11.498  12.033  21.229  0.00  0.00    +0.007 A 
ATOM     17  C   UNL     1      13.575  11.297  22.220  0.00  0.00    +0.007 A 
ATOM     19  C   UNL     1      11.264  12.857  22.330  0.00  0.00    +0.023 A 
ATOM     20  C   UNL     1      13.342  12.121  23.321  0.00  0.00    +0.023 A 
ATOM     21  C   UNL     1      12.187  12.901  23.376  0.00  0.00    +0.033 A 
BRANCH  21   8
ATOM      4  O   UNL     1      10.344  12.542  25.730  0.00  0.00    -0.276 OA
ATOM      8  N   UNL     1      11.953  13.726  24.477  0.00  0.00    -0.286 N 
ATOM     28  C   UNL     1      11.077  13.509  25.550  0.00  0.00    +0.214 C 
ATOM     30  C   UNL     1      11.116  14.645  26.541  0.00  0.00    +0.109 C 
ATOM     32  H   UNL     1      12.489  14.590  24.495  0.00  0.00    +0.155 HD
ENDBRANCH  21   8
ENDBRANCH  13  15
ENDBRANCH   5  13
TORSDOF 6
ENDMDL
MODEL 9
REMARK VINA RESULT:      -7.7     26.336     29.278
REMARK  Name = 26743806
REMARK  8 active torsions:
REMARK  status: ('A' for Active; 'I' for Inactive)
REMARK    1  A    between atoms: O_2  and  C_11
REMARK    2  A    between atoms: N_5  and  C_13
REMARK    3  A    between atoms: N_8  and  C_21
REMARK    4  A    between atoms: C_9  and  C_14
REMARK    5  A    between atoms: C_13  and  C_15
REMARK    6  A    between atoms: C_18  and  C_22
REMARK    7  A    between atoms: C_27  and  C_29
REMARK    8  A    between atoms: C_28  and  C_30
REMARK                            x       y       z     vdW  Elec       q    Type
REMARK                         _______ _______ _______ _____ _____    ______ ____
ROOT
ATOM      5  N   UNL     1      -2.936 -10.500  13.714  0.00  0.00    -0.285 NA
ATOM      9  C   UNL     1      -3.359 -11.377  14.824  0.00  0.00    +0.149 C 
ATOM     10  C   UNL     1      -2.419 -11.016  15.990  0.00  0.00    +0.061 C 
ATOM     11  C   UNL     1      -1.475  -9.963  15.424  0.00  0.00    +0.130 C 
ATOM     12  C   UNL     1      -1.520 -10.212  13.929  0.00  0.00    +0.116 C 
ENDROOT
BRANCH   9  14
ATOM      3  O   UNL     1      -5.525 -12.345  15.411  0.00  0.00    -0.336 OA
ATOM      6  N   UNL     1      -5.525 -10.109  15.293  0.00  0.00    -0.190 NA
ATOM      7  N   UNL     1      -6.831 -11.939  15.712  0.00  0.00    -0.056 NA
ATOM     14  C   UNL     1      -4.822 -11.206  15.177  0.00  0.00    +0.245 A 
ATOM     18  C   UNL     1      -6.752 -10.609  15.622  0.00  0.00    +0.202 A 
BRANCH  18  22
ATOM      1  F   UNL     1     -10.733  -8.401  14.054  0.00  0.00    -0.205 F 
ATOM     22  C   UNL     1      -7.877  -9.751  15.856  0.00  0.00    +0.025 A 
ATOM     23  C   UNL     1      -8.778  -9.486  14.824  0.00  0.00    +0.050 A 
ATOM     24  C   UNL     1      -8.072  -9.184  17.115  0.00  0.00    +0.012 A 
ATOM     25  C   UNL     1      -9.873  -8.652  15.052  0.00  0.00    +0.127 A 
ATOM     26  C   UNL     1      -9.167  -8.349  17.342  0.00  0.00    +0.007 A 
ATOM     27  C   UNL     1     -10.067  -8.084  16.311  0.00  0.00    -0.015 A 
ATOM     29  C   UNL     1     -11.237  -7.192  16.557  0.00  0.00    +0.047 C 
ENDBRANCH  18  22
ENDBRANCH   9  14
BRANCH  11   2
ATOM      2  O   UNL     1      -0.171 -10.125  15.945  0.00  0.00    -0.390 OA
ATOM     31  H   UNL     1      -0.231 -10.738  16.698  0.00  0.00    +0.210 HD
ENDBRANCH  11   2
BRANCH   5  13
ATOM     13  C   UNL     1      -3.185 -11.078  12.400  0.00  0.00    +0.120 C 
BRANCH  13  15
ATOM     15  C   UNL     1      -3.993 -10.156  11.526  0.00  0.00    -0.033 A 
ATOM     16  C   UNL     1      -3.477  -9.720  10.306  0.00  0.00    +0.007 A 
ATOM     17  C   UNL     1      -5.260  -9.738  11.936  0.00  0.00    +0.007 A 
ATOM     19  C   UNL     1      -4.227  -8.867   9.495  0.00  0.00    +0.023 A 
ATOM     20  C   UNL     1      -6.010  -8.886  11.127  0.00  0.00    +0.023 A 
ATOM     21  C   UNL     1      -5.493  -8.450   9.906  0.00  0.00    +0.033 A 
BRANCH  21   8
ATOM      4  O   UNL     1      -8.098  -8.909   8.468  0.00  0.00    -0.276 OA
ATOM      8  N   UNL     1      -6.242  -7.596   9.096  0.00  0.00    -0.286 N 
ATOM     28  C   UNL     1      -7.455  -7.864   8.445  0.00  0.00    +0.214 C 
ATOM     30  C   UNL     1      -7.944  -6.673   7.661  0.00  0.00    +0.109 C 
ATOM     32  H   UNL     1      -5.852  -6.666   8.965  0.00  0.00    +0.155 HD
ENDBRANCH  21   8
ENDBRANCH  13  15
ENDBRANCH   5  13
TORSDOF 6
ENDMDL
MODEL 10
REMARK VINA RESULT:      -7.6     25.061     28.157
REMARK  Name = 26743806
REMARK  8 active torsions:
REMARK  status: ('A' for Active; 'I' for Inactive)
REMARK    1  A    between atoms: O_2  and  C_11
REMARK    2  A    between atoms: N_5  and  C_13
REMARK    3  A    between atoms: N_8  and  C_21
REMARK    4  A    between atoms: C_9  and  C_14
REMARK    5  A    between atoms: C_13  and  C_15
REMARK    6  A    between atoms: C_18  and  C_22
REMARK    7  A    between atoms: C_27  and  C_29
REMARK    8  A    between atoms: C_28  and  C_30
REMARK                            x       y       z     vdW  Elec       q    Type
REMARK                         _______ _______ _______ _____ _____    ______ ____
ROOT
ATOM      5  N   UNL     1     -11.751   9.744  20.424  0.00  0.00    -0.285 NA
ATOM      9  C   UNL     1     -12.350   8.640  19.647  0.00  0.00    +0.149 C 
ATOM     10  C   UNL     1     -11.264   8.241  18.629  0.00  0.00    +0.061 C 
ATOM     11  C   UNL     1     -10.113   9.207  18.881  0.00  0.00    +0.130 C 
ATOM     12  C   UNL     1     -10.785  10.396  19.542  0.00  0.00    +0.116 C 
ENDROOT
BRANCH   9  14
ATOM      3  O   UNL     1     -11.805   6.654  20.964  0.00  0.00    -0.336 OA
ATOM      6  N   UNL     1     -13.988   7.150  20.918  0.00  0.00    -0.190 NA
ATOM      7  N   UNL     1     -12.442   5.676  21.737  0.00  0.00    -0.056 NA
ATOM     14  C   UNL     1     -12.787   7.482  20.520  0.00  0.00    +0.245 A 
ATOM     18  C   UNL     1     -13.726   6.036  21.662  0.00  0.00    +0.202 A 
BRANCH  18  22
ATOM      1  F   UNL     1     -15.314   3.435  25.391  0.00  0.00    -0.205 F 
ATOM     22  C   UNL     1     -14.772   5.307  22.320  0.00  0.00    +0.025 A 
ATOM     23  C   UNL     1     -14.534   4.713  23.560  0.00  0.00    +0.050 A 
ATOM     24  C   UNL     1     -16.026   5.193  21.720  0.00  0.00    +0.012 A 
ATOM     25  C   UNL     1     -15.551   4.004  24.199  0.00  0.00    +0.127 A 
ATOM     26  C   UNL     1     -17.042   4.482  22.360  0.00  0.00    +0.007 A 
ATOM     27  C   UNL     1     -16.805   3.889  23.599  0.00  0.00    -0.015 A 
ATOM     29  C   UNL     1     -17.894   3.131  24.281  0.00  0.00    +0.047 C 
ENDBRANCH  18  22
ENDBRANCH   9  14
BRANCH  11   2
ATOM      2  O   UNL     1      -9.485   9.567  17.667  0.00  0.00    -0.390 OA
ATOM     31  H   UNL     1      -9.743   8.911  16.998  0.00  0.00    +0.210 HD
ENDBRANCH  11   2
BRANCH   5  13
ATOM     13  C   UNL     1     -12.737  10.681  20.945  0.00  0.00    +0.120 C 
BRANCH  13  15
ATOM     15  C   UNL     1     -12.751  10.701  22.451  0.00  0.00    -0.033 A 
ATOM     16  C   UNL     1     -11.771  11.406  23.148  0.00  0.00    +0.007 A 
ATOM     17  C   UNL     1     -13.745  10.014  23.149  0.00  0.00    +0.007 A 
ATOM     19  C   UNL     1     -11.784  11.426  24.543  0.00  0.00    +0.023 A 
ATOM     20  C   UNL     1     -13.760  10.033  24.543  0.00  0.00    +0.023 A 
ATOM     21  C   UNL     1     -12.779  10.739  25.241  0.00  0.00    +0.033 A 
BRANCH  21   8
ATOM      4  O   UNL     1     -10.974   9.378  27.230  0.00  0.00    -0.276 OA
ATOM      8  N   UNL     1     -12.791  10.759  26.636  0.00  0.00    -0.286 N 
ATOM     28  C   UNL     1     -11.923  10.100  27.518  0.00  0.00    +0.214 C 
ATOM     30  C   UNL     1     -12.274  10.378  28.958  0.00  0.00    +0.109 C 
ATOM     32  H   UNL     1     -13.526  11.323  27.056  0.00  0.00    +0.155 HD
ENDBRANCH  21   8
ENDBRANCH  13  15
ENDBRANCH   5  13
TORSDOF 6
ENDMDL
