REMARK  Name = 45783710
REMARK  8 active torsions:
REMARK  status: ('A' for Active; 'I' for Inactive)
REMARK    1  A    between atoms: O_2  and  C_27
REMARK    2  A    between atoms: O_2  and  C_29
REMARK    3  A    between atoms: N_4  and  C_13
REMARK    4  A    between atoms: N_7  and  C_21
REMARK    5  A    between atoms: C_9  and  C_14
REMARK    6  A    between atoms: C_13  and  C_15
REMARK    7  A    between atoms: C_18  and  C_22
REMARK    8  A    between atoms: C_26  and  C_28
REMARK                            x       y       z     vdW  Elec       q    Type
REMARK                         _______ _______ _______ _____ _____    ______ ____
ROOT
ATOM      4  N   UNL     1      -3.794  -0.005  -0.706  0.00  0.00    -0.287 NA
ATOM      9  C   UNL     1      -3.614  -1.038   0.334  0.00  0.00    +0.146 C 
ATOM     10  C   UNL     1      -4.379  -2.264  -0.195  0.00  0.00    +0.030 C 
ATOM     11  C   UNL     1      -5.006  -1.808  -1.505  0.00  0.00    +0.017 C 
ATOM     12  C   UNL     1      -5.067  -0.300  -1.364  0.00  0.00    +0.085 C 
ENDROOT
BRANCH   9  14
ATOM      1  O   UNL     1      -1.857  -1.785   1.859  0.00  0.00    -0.336 OA
ATOM      5  N   UNL     1      -1.118  -1.219  -0.178  0.00  0.00    -0.190 NA
ATOM      6  N   UNL     1      -0.470  -1.986   1.878  0.00  0.00    -0.056 NA
ATOM     14  C   UNL     1      -2.155  -1.334   0.613  0.00  0.00    +0.245 A 
ATOM     18  C   UNL     1      -0.108  -1.630   0.642  0.00  0.00    +0.204 A 
BRANCH  18  22
ATOM      8  N   UNL     1       3.573  -2.157   0.678  0.00  0.00    -0.221 NA
ATOM     22  C   UNL     1       1.254  -1.675   0.194  0.00  0.00    +0.041 A 
ATOM     23  C   UNL     1       1.595  -1.299  -1.100  0.00  0.00    +0.018 A 
ATOM     24  C   UNL     1       2.271  -2.093   1.037  0.00  0.00    +0.126 A 
ATOM     25  C   UNL     1       2.924  -1.351  -1.506  0.00  0.00    +0.068 A 
ATOM     27  C   UNL     1       3.866  -1.784  -0.587  0.00  0.00    +0.214 A 
BRANCH  27   2
ATOM      2  O   UNL     1       5.183  -1.844  -0.964  0.00  0.00    -0.480 OA
ATOM     29  C   UNL     1       6.109  -2.295   0.018  0.00  0.00    +0.279 C 
ENDBRANCH  27   2
ENDBRANCH  18  22
ENDBRANCH   9  14
BRANCH   4  13
ATOM     13  C   UNL     1      -3.750   1.353  -0.181  0.00  0.00    +0.120 C 
BRANCH  13  15
ATOM     15  C   UNL     1      -2.337   1.819   0.051  0.00  0.00    -0.033 A 
ATOM     16  C   UNL     1      -1.935   2.217   1.326  0.00  0.00    +0.007 A 
ATOM     17  C   UNL     1      -1.430   1.853  -1.008  0.00  0.00    +0.007 A 
ATOM     19  C   UNL     1      -0.626   2.649   1.542  0.00  0.00    +0.023 A 
ATOM     20  C   UNL     1      -0.121   2.285  -0.793  0.00  0.00    +0.023 A 
ATOM     21  C   UNL     1       0.280   2.683   0.482  0.00  0.00    +0.033 A 
BRANCH  21   7
ATOM      3  O   UNL     1       2.591   2.946  -1.430  0.00  0.00    -0.276 OA
ATOM      7  N   UNL     1       1.589   3.115   0.697  0.00  0.00    -0.286 N 
ATOM     26  C   UNL     1       2.631   3.217  -0.234  0.00  0.00    +0.214 C 
ATOM     28  C   UNL     1       3.900   3.730   0.399  0.00  0.00    +0.109 C 
ATOM     30  H   UNL     1       1.805   3.388   1.654  0.00  0.00    +0.155 HD
ENDBRANCH  21   7
ENDBRANCH  13  15
ENDBRANCH   4  13
TORSDOF 6
