REMARK  Name = 45360511
REMARK  12 active torsions:
REMARK  status: ('A' for Active; 'I' for Inactive)
REMARK    1  A    between atoms: O_5  and  C_24
REMARK    2  A    between atoms: N_8  and  C_17
REMARK    3  A    between atoms: N_9  and  C_26
REMARK    4  A    between atoms: N_10  and  C_35
REMARK    5  A    between atoms: N_10  and  C_38
REMARK    6  A    between atoms: N_10  and  C_39
REMARK    7  A    between atoms: C_11  and  C_15
REMARK    8  A    between atoms: C_12  and  C_18
REMARK    9  A    between atoms: C_15  and  C_17
REMARK   10  A    between atoms: C_18  and  C_24
REMARK   11  A    between atoms: C_21  and  C_25
REMARK   12  A    between atoms: C_31  and  C_37
REMARK                            x       y       z     vdW  Elec       q    Type
REMARK                         _______ _______ _______ _____ _____    ______ ____
ROOT
ATOM      4  O   UNL     1      -4.880  -1.767   2.299  0.00  0.00    -0.270 OA
ATOM      7  N   UNL     1      -4.733  -0.475   0.354  0.00  0.00    -0.297 N 
ATOM     11  C   UNL     1      -3.530   1.207  -1.023  0.00  0.00    +0.011 C 
ATOM     12  C   UNL     1      -4.581   2.259  -0.586  0.00  0.00    +0.006 C 
ATOM     13  C   UNL     1      -4.143  -0.204  -0.964  0.00  0.00    +0.112 C 
ATOM     14  C   UNL     1      -5.203   1.906   0.775  0.00  0.00    +0.023 C 
ATOM     16  C   UNL     1      -5.752   0.482   0.780  0.00  0.00    +0.108 C 
ATOM     21  C   UNL     1      -4.393  -1.540   1.193  0.00  0.00    +0.247 C 
ENDROOT
BRANCH  21  25
ATOM     25  C   UNL     1      -3.366  -2.480   0.732  0.00  0.00    +0.037 A 
ATOM     27  C   UNL     1      -2.023  -2.247   1.030  0.00  0.00    +0.015 A 
ATOM     28  C   UNL     1      -3.732  -3.607  -0.004  0.00  0.00    +0.015 A 
ATOM     32  C   UNL     1      -1.047  -3.141   0.591  0.00  0.00    +0.024 A 
ATOM     33  C   UNL     1      -2.755  -4.501  -0.443  0.00  0.00    +0.024 A 
ATOM     35  C   UNL     1      -1.413  -4.267  -0.146  0.00  0.00    +0.029 A 
BRANCH  35  10
ATOM     10  N   UNL     1      -0.425  -5.172  -0.590  0.00  0.00    -0.336 N 
ATOM     38  C   UNL     1      -0.797  -6.349  -1.349  0.00  0.00    +0.129 C 
ATOM     39  C   UNL     1       0.973  -4.940  -0.286  0.00  0.00    +0.129 C 
ENDBRANCH  35  10
ENDBRANCH  21  25
BRANCH  11  15
ATOM     15  C   UNL     1      -2.228   1.256  -0.213  0.00  0.00    +0.020 C 
BRANCH  15  17
ATOM     17  C   UNL     1      -1.062   0.709  -1.025  0.00  0.00    +0.085 C 
BRANCH  17   8
ATOM      8  N   UNL     1       0.162   0.749  -0.227  0.00  0.00    -0.299 NA
ATOM      9  N   UNL     1       2.955   1.116   0.247  0.00  0.00    -0.327 N 
ATOM     19  C   UNL     1       1.135  -0.231  -0.725  0.00  0.00    +0.103 C 
ATOM     20  C   UNL     1       0.750   2.094  -0.254  0.00  0.00    +0.103 C 
ATOM     22  C   UNL     1       2.398  -0.238   0.138  0.00  0.00    +0.120 C 
ATOM     23  C   UNL     1       2.002   2.165   0.624  0.00  0.00    +0.120 C 
BRANCH   9  26
ATOM     26  C   UNL     1       4.304   1.246   0.595  0.00  0.00    +0.030 A 
ATOM     29  C   UNL     1       5.290   0.678  -0.212  0.00  0.00    +0.035 A 
ATOM     30  C   UNL     1       4.663   1.943   1.748  0.00  0.00    +0.023 A 
ATOM     31  C   UNL     1       6.635   0.808   0.134  0.00  0.00    +0.057 A 
ATOM     34  C   UNL     1       6.008   2.073   2.095  0.00  0.00    +0.002 A 
ATOM     36  C   UNL     1       6.994   1.505   1.287  0.00  0.00    +0.012 A 
BRANCH  31  37
ATOM      1  F   UNL     1       7.575  -1.154  -0.860  0.00  0.00    -0.166 F 
ATOM      2  F   UNL     1       8.948   0.417  -0.250  0.00  0.00    -0.166 F 
ATOM      3  F   UNL     1       7.694   0.682  -2.007  0.00  0.00    -0.166 F 
ATOM     37  C   UNL     1       7.688   0.201  -0.729  0.00  0.00    +0.417 C 
ENDBRANCH  31  37
ENDBRANCH   9  26
ENDBRANCH  17   8
ENDBRANCH  15  17
ENDBRANCH  11  15
BRANCH  12  18
ATOM     18  C   UNL     1      -4.035   3.686  -0.575  0.00  0.00    +0.124 C 
BRANCH  18  24
ATOM      6  O   UNL     1      -6.333   4.473  -0.780  0.00  0.00    -0.251 OA
ATOM     24  C   UNL     1      -5.136   4.704  -0.691  0.00  0.00    +0.305 C 
BRANCH  24   5
ATOM      5  O   UNL     1      -4.607   5.954  -0.683  0.00  0.00    -0.481 OA
ATOM     40  H   UNL     1      -5.300   6.644  -0.756  0.00  0.00    +0.295 HD
ENDBRANCH  24   5
ENDBRANCH  18  24
ENDBRANCH  12  18
TORSDOF 10
