MODEL 1
REMARK VINA RESULT:      -7.0      0.000      0.000
REMARK  Name = 45361422
REMARK  16 active torsions:
REMARK  status: ('A' for Active; 'I' for Inactive)
REMARK    1  A    between atoms: O_1  and  C_10
REMARK    2  A    between atoms: O_4  and  C_30
REMARK    3  A    between atoms: O_4  and  C_35
REMARK    4  A    between atoms: N_5  and  C_14
REMARK    5  A    between atoms: N_6  and  C_25
REMARK    6  A    between atoms: C_7  and  C_17
REMARK    7  A    between atoms: C_9  and  C_19
REMARK    8  A    between atoms: C_13  and  C_18
REMARK    9  A    between atoms: C_18  and  C_20
REMARK   10  A    between atoms: C_18  and  C_21
REMARK   11  A    between atoms: C_22  and  C_23
REMARK   12  A    between atoms: C_23  and  C_24
REMARK   13  A    between atoms: C_24  and  C_26
REMARK   14  A    between atoms: C_24  and  C_27
REMARK   15  A    between atoms: C_24  and  C_28
REMARK   16  A    between atoms: C_25  and  C_29
REMARK                            x       y       z     vdW  Elec       q    Type
REMARK                         _______ _______ _______ _____ _____    ______ ____
ROOT
ATOM      7  C   UNL     1      -3.370 -11.059  11.291  0.00  0.00    -0.027 C 
ATOM      8  C   UNL     1      -4.692 -10.586  11.982  0.00  0.00    +0.028 C 
ATOM      9  C   UNL     1      -5.466  -9.567  11.070  0.00  0.00    +0.012 C 
ATOM     10  C   UNL     1      -4.427 -10.109  13.440  0.00  0.00    +0.122 C 
ATOM     11  C   UNL     1      -2.693 -12.142  12.163  0.00  0.00    +0.007 C 
ATOM     12  C   UNL     1      -3.716 -11.700   9.928  0.00  0.00    +0.009 C 
ATOM     13  C   UNL     1      -3.657 -11.156  14.277  0.00  0.00    +0.029 C 
ATOM     14  C   UNL     1      -5.743 -10.196   9.675  0.00  0.00    +0.076 C 
ATOM     15  C   UNL     1      -2.396 -11.666  13.579  0.00  0.00    +0.007 C 
ATOM     16  C   UNL     1      -4.491 -10.768   9.008  0.00  0.00    +0.023 C 
ATOM     17  C   UNL     1      -2.367  -9.898  11.070  0.00  0.00    +0.011 C 
ATOM     19  C   UNL     1      -6.793  -9.082  11.678  0.00  0.00    +0.010 C 
ENDROOT
BRANCH  14   5
ATOM      3  O   UNL     1      -8.065 -10.610   7.994  0.00  0.00    -0.276 OA
ATOM      5  N   UNL     1      -6.352  -9.245   8.769  0.00  0.00    -0.312 N 
ATOM     22  C   UNL     1      -7.466  -9.536   8.004  0.00  0.00    +0.214 C 
ATOM     36  H   UNL     1      -5.909  -8.336   8.675  0.00  0.00    +0.149 HD
BRANCH  22  23
ATOM     23  C   UNL     1      -7.905  -8.374   7.130  0.00  0.00    +0.102 C 
BRANCH  23  24
ATOM     24  C   UNL     1      -8.792  -7.326   7.842  0.00  0.00    -0.029 C 
ATOM     26  C   UNL     1      -7.989  -6.058   8.181  0.00  0.00    +0.011 C 
ATOM     27  C   UNL     1      -9.935  -6.937   6.884  0.00  0.00    +0.011 C 
ATOM     28  C   UNL     1      -9.410  -7.894   9.130  0.00  0.00    +0.011 C 
ENDBRANCH  23  24
ENDBRANCH  22  23
ENDBRANCH  14   5
BRANCH  10   1
ATOM      1  O   UNL     1      -5.673  -9.892  14.104  0.00  0.00    -0.391 OA
ATOM     37  H   UNL     1      -6.213  -9.303  13.550  0.00  0.00    +0.210 HD
ENDBRANCH  10   1
BRANCH  13  18
ATOM     18  C   UNL     1      -3.291 -10.618  15.666  0.00  0.00    +0.077 C 
ATOM     20  C   UNL     1      -1.815 -10.868  15.954  0.00  0.00    +0.017 C 
BRANCH  18  21
ATOM      2  O   UNL     1      -4.245 -12.480  16.885  0.00  0.00    -0.276 OA
ATOM      6  N   UNL     1      -4.893 -10.328  17.462  0.00  0.00    -0.311 N 
ATOM     21  C   UNL     1      -4.181 -11.263  16.724  0.00  0.00    +0.216 C 
ATOM     38  H   UNL     1      -4.744  -9.338  17.302  0.00  0.00    +0.149 HD
BRANCH   6  25
ATOM     25  C   UNL     1      -5.803 -10.698  18.520  0.00  0.00    +0.143 C 
BRANCH  25  29
ATOM     29  C   UNL     1      -7.214 -10.279  18.220  0.00  0.00    +0.011 A 
ATOM     30  C   UNL     1      -8.282 -10.794  18.955  0.00  0.00    +0.125 A 
ATOM     31  C   UNL     1      -7.450  -9.364  17.194  0.00  0.00    +0.009 A 
ATOM     32  C   UNL     1      -9.586 -10.394  18.663  0.00  0.00    +0.046 A 
ATOM     33  C   UNL     1      -8.755  -8.964  16.903  0.00  0.00    +0.001 A 
ATOM     34  C   UNL     1      -9.822  -9.479  17.637  0.00  0.00    +0.004 A 
BRANCH  30   4
ATOM      4  O   UNL     1      -8.069 -11.689  19.960  0.00  0.00    -0.495 OA
ATOM     35  C   UNL     1      -8.377 -13.055  19.686  0.00  0.00    +0.277 C 
ENDBRANCH  30   4
ENDBRANCH  25  29
ENDBRANCH   6  25
ENDBRANCH  18  21
ENDBRANCH  13  18
TORSDOF 9
ENDMDL
MODEL 2
REMARK VINA RESULT:      -6.8     23.689     26.463
REMARK  Name = 45361422
REMARK  16 active torsions:
REMARK  status: ('A' for Active; 'I' for Inactive)
REMARK    1  A    between atoms: O_1  and  C_10
REMARK    2  A    between atoms: O_4  and  C_30
REMARK    3  A    between atoms: O_4  and  C_35
REMARK    4  A    between atoms: N_5  and  C_14
REMARK    5  A    between atoms: N_6  and  C_25
REMARK    6  A    between atoms: C_7  and  C_17
REMARK    7  A    between atoms: C_9  and  C_19
REMARK    8  A    between atoms: C_13  and  C_18
REMARK    9  A    between atoms: C_18  and  C_20
REMARK   10  A    between atoms: C_18  and  C_21
REMARK   11  A    between atoms: C_22  and  C_23
REMARK   12  A    between atoms: C_23  and  C_24
REMARK   13  A    between atoms: C_24  and  C_26
REMARK   14  A    between atoms: C_24  and  C_27
REMARK   15  A    between atoms: C_24  and  C_28
REMARK   16  A    between atoms: C_25  and  C_29
REMARK                            x       y       z     vdW  Elec       q    Type
REMARK                         _______ _______ _______ _____ _____    ______ ____
ROOT
ATOM      7  C   UNL     1       9.761   6.430   6.653  0.00  0.00    -0.027 C 
ATOM      8  C   UNL     1      10.244   7.362   5.493  0.00  0.00    +0.028 C 
ATOM      9  C   UNL     1      11.314   6.635   4.601  0.00  0.00    +0.012 C 
ATOM     10  C   UNL     1      10.662   8.761   6.030  0.00  0.00    +0.122 C 
ATOM     11  C   UNL     1       8.630   7.133   7.442  0.00  0.00    +0.007 C 
ATOM     12  C   UNL     1       9.177   5.133   6.049  0.00  0.00    +0.009 C 
ATOM     13  C   UNL     1       9.566   9.414   6.904  0.00  0.00    +0.029 C 
ATOM     14  C   UNL     1      10.741   5.295   4.059  0.00  0.00    +0.076 C 
ATOM     15  C   UNL     1       9.048   8.485   8.003  0.00  0.00    +0.007 C 
ATOM     16  C   UNL     1      10.161   4.396   5.151  0.00  0.00    +0.023 C 
ATOM     17  C   UNL     1      10.902   6.066   7.637  0.00  0.00    +0.011 C 
ATOM     19  C   UNL     1      11.812   7.486   3.420  0.00  0.00    +0.010 C 
ENDROOT
BRANCH  14   5
ATOM      3  O   UNL     1      10.412   3.950   1.514  0.00  0.00    -0.276 OA
ATOM      5  N   UNL     1      11.739   4.542   3.328  0.00  0.00    -0.312 N 
ATOM     22  C   UNL     1      11.487   3.933   2.112  0.00  0.00    +0.214 C 
ATOM     36  H   UNL     1      12.654   4.435   3.755  0.00  0.00    +0.149 HD
BRANCH  22  23
ATOM     23  C   UNL     1      12.694   3.198   1.555  0.00  0.00    +0.102 C 
BRANCH  23  24
ATOM     24  C   UNL     1      13.505   3.990   0.502  0.00  0.00    -0.029 C 
ATOM     26  C   UNL     1      13.169   5.490   0.556  0.00  0.00    +0.011 C 
ATOM     27  C   UNL     1      15.003   3.814   0.821  0.00  0.00    +0.011 C 
ATOM     28  C   UNL     1      13.247   3.463  -0.919  0.00  0.00    +0.011 C 
ENDBRANCH  23  24
ENDBRANCH  22  23
ENDBRANCH  14   5
BRANCH  10   1
ATOM      1  O   UNL     1      10.889   9.646   4.931  0.00  0.00    -0.391 OA
ATOM     37  H   UNL     1      10.583   9.205   4.120  0.00  0.00    +0.210 HD
ENDBRANCH  10   1
BRANCH  13  18
ATOM     18  C   UNL     1      10.046  10.730   7.530  0.00  0.00    +0.077 C 
ATOM     20  C   UNL     1       9.780  10.724   9.032  0.00  0.00    +0.017 C 
BRANCH  18  21
ATOM      2  O   UNL     1       9.541  13.075   7.198  0.00  0.00    -0.276 OA
ATOM      6  N   UNL     1       8.530  11.514   5.809  0.00  0.00    -0.311 N 
ATOM     21  C   UNL     1       9.361  11.910   6.848  0.00  0.00    +0.216 C 
ATOM     38  H   UNL     1       8.477  10.536   5.548  0.00  0.00    +0.149 HD
BRANCH   6  25
ATOM     25  C   UNL     1       7.773  12.453   5.015  0.00  0.00    +0.143 C 
BRANCH  25  29
ATOM     29  C   UNL     1       6.660  11.782   4.261  0.00  0.00    +0.011 A 
ATOM     30  C   UNL     1       6.905  10.643   3.495  0.00  0.00    +0.125 A 
ATOM     31  C   UNL     1       5.372  12.312   4.333  0.00  0.00    +0.009 A 
ATOM     32  C   UNL     1       5.860  10.033   2.800  0.00  0.00    +0.046 A 
ATOM     33  C   UNL     1       4.327  11.701   3.638  0.00  0.00    +0.001 A 
ATOM     34  C   UNL     1       4.572  10.562   2.871  0.00  0.00    +0.004 A 
BRANCH  30   4
ATOM      4  O   UNL     1       8.157  10.114   3.413  0.00  0.00    -0.495 OA
ATOM     35  C   UNL     1       8.306   8.916   2.652  0.00  0.00    +0.277 C 
ENDBRANCH  30   4
ENDBRANCH  25  29
ENDBRANCH   6  25
ENDBRANCH  18  21
ENDBRANCH  13  18
TORSDOF 9
ENDMDL
MODEL 3
REMARK VINA RESULT:      -6.8     24.071     27.728
REMARK  Name = 45361422
REMARK  16 active torsions:
REMARK  status: ('A' for Active; 'I' for Inactive)
REMARK    1  A    between atoms: O_1  and  C_10
REMARK    2  A    between atoms: O_4  and  C_30
REMARK    3  A    between atoms: O_4  and  C_35
REMARK    4  A    between atoms: N_5  and  C_14
REMARK    5  A    between atoms: N_6  and  C_25
REMARK    6  A    between atoms: C_7  and  C_17
REMARK    7  A    between atoms: C_9  and  C_19
REMARK    8  A    between atoms: C_13  and  C_18
REMARK    9  A    between atoms: C_18  and  C_20
REMARK   10  A    between atoms: C_18  and  C_21
REMARK   11  A    between atoms: C_22  and  C_23
REMARK   12  A    between atoms: C_23  and  C_24
REMARK   13  A    between atoms: C_24  and  C_26
REMARK   14  A    between atoms: C_24  and  C_27
REMARK   15  A    between atoms: C_24  and  C_28
REMARK   16  A    between atoms: C_25  and  C_29
REMARK                            x       y       z     vdW  Elec       q    Type
REMARK                         _______ _______ _______ _____ _____    ______ ____
ROOT
ATOM      7  C   UNL     1       9.419   6.190   6.324  0.00  0.00    -0.027 C 
ATOM      8  C   UNL     1      10.443   7.264   5.828  0.00  0.00    +0.028 C 
ATOM      9  C   UNL     1       9.998   8.706   6.266  0.00  0.00    +0.012 C 
ATOM     10  C   UNL     1      10.752   7.093   4.312  0.00  0.00    +0.122 C 
ATOM     11  C   UNL     1       9.945   4.778   5.975  0.00  0.00    +0.007 C 
ATOM     12  C   UNL     1       9.299   6.280   7.862  0.00  0.00    +0.009 C 
ATOM     13  C   UNL     1      11.177   5.650   3.952  0.00  0.00    +0.029 C 
ATOM     14  C   UNL     1       9.808   8.764   7.809  0.00  0.00    +0.076 C 
ATOM     15  C   UNL     1      10.210   4.593   4.487  0.00  0.00    +0.007 C 
ATOM     16  C   UNL     1       8.895   7.664   8.351  0.00  0.00    +0.023 C 
ATOM     17  C   UNL     1       8.016   6.370   5.691  0.00  0.00    +0.011 C 
ATOM     19  C   UNL     1      10.977   9.811   5.835  0.00  0.00    +0.010 C 
ENDROOT
BRANCH  14   5
ATOM      3  O   UNL     1      11.171  10.783   9.375  0.00  0.00    -0.276 OA
ATOM      5  N   UNL     1       9.285  10.045   8.236  0.00  0.00    -0.312 N 
ATOM     22  C   UNL     1      10.017  10.949   8.986  0.00  0.00    +0.214 C 
ATOM     36  H   UNL     1       8.323  10.264   7.997  0.00  0.00    +0.149 HD
BRANCH  22  23
ATOM     23  C   UNL     1       9.241  12.213   9.312  0.00  0.00    +0.102 C 
BRANCH  23  24
ATOM     24  C   UNL     1       9.275  13.297   8.209  0.00  0.00    -0.029 C 
ATOM     26  C   UNL     1       8.270  12.980   7.089  0.00  0.00    +0.011 C 
ATOM     27  C   UNL     1       8.882  14.643   8.850  0.00  0.00    +0.011 C 
ATOM     28  C   UNL     1      10.681  13.440   7.603  0.00  0.00    +0.011 C 
ENDBRANCH  23  24
ENDBRANCH  22  23
ENDBRANCH  14   5
BRANCH  10   1
ATOM      1  O   UNL     1      11.841   7.942   3.948  0.00  0.00    -0.391 OA
ATOM     37  H   UNL     1      11.729   8.792   4.409  0.00  0.00    +0.210 HD
ENDBRANCH  10   1
BRANCH  13  18
ATOM     18  C   UNL     1      11.348   5.468   2.439  0.00  0.00    +0.077 C 
ATOM     20  C   UNL     1      10.512   4.289   1.954  0.00  0.00    +0.017 C 
BRANCH  18  21
ATOM      2  O   UNL     1      13.624   6.215   2.079  0.00  0.00    -0.276 OA
ATOM      6  N   UNL     1      13.144   3.958   1.832  0.00  0.00    -0.311 N 
ATOM     21  C   UNL     1      12.824   5.281   2.102  0.00  0.00    +0.216 C 
ATOM     38  H   UNL     1      12.437   3.237   1.925  0.00  0.00    +0.149 HD
BRANCH   6  25
ATOM     25  C   UNL     1      14.481   3.533   1.487  0.00  0.00    +0.143 C 
BRANCH  25  29
ATOM     29  C   UNL     1      14.876   3.983   0.110  0.00  0.00    +0.011 A 
ATOM     30  C   UNL     1      14.028   3.776  -0.978  0.00  0.00    +0.125 A 
ATOM     31  C   UNL     1      16.106   4.615  -0.075  0.00  0.00    +0.009 A 
ATOM     32  C   UNL     1      14.411   4.199  -2.251  0.00  0.00    +0.046 A 
ATOM     33  C   UNL     1      16.488   5.039  -1.348  0.00  0.00    +0.001 A 
ATOM     34  C   UNL     1      15.641   4.831  -2.435  0.00  0.00    +0.004 A 
BRANCH  30   4
ATOM      4  O   UNL     1      12.824   3.159  -0.816  0.00  0.00    -0.495 OA
ATOM     35  C   UNL     1      11.715   3.708  -1.526  0.00  0.00    +0.277 C 
ENDBRANCH  30   4
ENDBRANCH  25  29
ENDBRANCH   6  25
ENDBRANCH  18  21
ENDBRANCH  13  18
TORSDOF 9
ENDMDL
MODEL 4
REMARK VINA RESULT:      -6.7     23.799     27.375
REMARK  Name = 45361422
REMARK  16 active torsions:
REMARK  status: ('A' for Active; 'I' for Inactive)
REMARK    1  A    between atoms: O_1  and  C_10
REMARK    2  A    between atoms: O_4  and  C_30
REMARK    3  A    between atoms: O_4  and  C_35
REMARK    4  A    between atoms: N_5  and  C_14
REMARK    5  A    between atoms: N_6  and  C_25
REMARK    6  A    between atoms: C_7  and  C_17
REMARK    7  A    between atoms: C_9  and  C_19
REMARK    8  A    between atoms: C_13  and  C_18
REMARK    9  A    between atoms: C_18  and  C_20
REMARK   10  A    between atoms: C_18  and  C_21
REMARK   11  A    between atoms: C_22  and  C_23
REMARK   12  A    between atoms: C_23  and  C_24
REMARK   13  A    between atoms: C_24  and  C_26
REMARK   14  A    between atoms: C_24  and  C_27
REMARK   15  A    between atoms: C_24  and  C_28
REMARK   16  A    between atoms: C_25  and  C_29
REMARK                            x       y       z     vdW  Elec       q    Type
REMARK                         _______ _______ _______ _____ _____    ______ ____
ROOT
ATOM      7  C   UNL     1      13.483   5.066   0.817  0.00  0.00    -0.027 C 
ATOM      8  C   UNL     1      11.932   5.150   1.003  0.00  0.00    +0.028 C 
ATOM      9  C   UNL     1      11.548   5.121   2.526  0.00  0.00    +0.012 C 
ATOM     10  C   UNL     1      11.199   4.108   0.110  0.00  0.00    +0.122 C 
ATOM     11  C   UNL     1      13.831   5.211  -0.683  0.00  0.00    +0.007 C 
ATOM     12  C   UNL     1      14.146   6.242   1.570  0.00  0.00    +0.009 C 
ATOM     13  C   UNL     1      11.629   4.189  -1.374  0.00  0.00    +0.029 C 
ATOM     14  C   UNL     1      12.280   6.263   3.287  0.00  0.00    +0.076 C 
ATOM     15  C   UNL     1      13.147   4.167  -1.556  0.00  0.00    +0.007 C 
ATOM     16  C   UNL     1      13.790   6.282   3.049  0.00  0.00    +0.023 C 
ATOM     17  C   UNL     1      14.071   3.730   1.338  0.00  0.00    +0.011 C 
ATOM     19  C   UNL     1      10.035   5.230   2.783  0.00  0.00    +0.010 C 
ENDROOT
BRANCH  14   5
ATOM      3  O   UNL     1      10.898   8.206   4.931  0.00  0.00    -0.276 OA
ATOM      5  N   UNL     1      12.041   6.195   4.714  0.00  0.00    -0.312 N 
ATOM     22  C   UNL     1      11.366   7.178   5.415  0.00  0.00    +0.214 C 
ATOM     36  H   UNL     1      12.422   5.400   5.217  0.00  0.00    +0.149 HD
BRANCH  22  23
ATOM     23  C   UNL     1      11.256   6.875   6.900  0.00  0.00    +0.102 C 
BRANCH  23  24
ATOM     24  C   UNL     1       9.831   6.512   7.382  0.00  0.00    -0.029 C 
ATOM     26  C   UNL     1       9.045   7.771   7.788  0.00  0.00    +0.011 C 
ATOM     27  C   UNL     1       9.091   5.830   6.215  0.00  0.00    +0.011 C 
ATOM     28  C   UNL     1       9.871   5.535   8.569  0.00  0.00    +0.011 C 
ENDBRANCH  23  24
ENDBRANCH  22  23
ENDBRANCH  14   5
BRANCH  10   1
ATOM      1  O   UNL     1       9.793   4.357   0.141  0.00  0.00    -0.391 OA
ATOM     37  H   UNL     1       9.605   5.105  -0.452  0.00  0.00    +0.210 HD
ENDBRANCH  10   1
BRANCH  13  18
ATOM     18  C   UNL     1      10.996   3.071  -2.212  0.00  0.00    +0.077 C 
ATOM     20  C   UNL     1      12.066   2.078  -2.655  0.00  0.00    +0.017 C 
BRANCH  18  21
ATOM      2  O   UNL     1      10.635   3.501  -4.567  0.00  0.00    -0.276 OA
ATOM      6  N   UNL     1       9.152   4.413  -3.033  0.00  0.00    -0.311 N 
ATOM     21  C   UNL     1      10.263   3.671  -3.408  0.00  0.00    +0.216 C 
ATOM     38  H   UNL     1       8.881   4.460  -2.057  0.00  0.00    +0.149 HD
BRANCH   6  25
ATOM     25  C   UNL     1       8.299   5.078  -3.989  0.00  0.00    +0.143 C 
BRANCH  25  29
ATOM     29  C   UNL     1       7.551   6.225  -3.373  0.00  0.00    +0.011 A 
ATOM     30  C   UNL     1       8.224   7.204  -2.642  0.00  0.00    +0.125 A 
ATOM     31  C   UNL     1       6.168   6.305  -3.537  0.00  0.00    +0.009 A 
ATOM     32  C   UNL     1       7.513   8.263  -2.075  0.00  0.00    +0.046 A 
ATOM     33  C   UNL     1       5.458   7.364  -2.971  0.00  0.00    +0.001 A 
ATOM     34  C   UNL     1       6.130   8.342  -2.240  0.00  0.00    +0.004 A 
BRANCH  30   4
ATOM      4  O   UNL     1       9.573   7.141  -2.470  0.00  0.00    -0.495 OA
ATOM     35  C   UNL     1      10.091   7.614  -1.228  0.00  0.00    +0.277 C 
ENDBRANCH  30   4
ENDBRANCH  25  29
ENDBRANCH   6  25
ENDBRANCH  18  21
ENDBRANCH  13  18
TORSDOF 9
ENDMDL
MODEL 5
REMARK VINA RESULT:      -6.7     28.113     31.276
REMARK  Name = 45361422
REMARK  16 active torsions:
REMARK  status: ('A' for Active; 'I' for Inactive)
REMARK    1  A    between atoms: O_1  and  C_10
REMARK    2  A    between atoms: O_4  and  C_30
REMARK    3  A    between atoms: O_4  and  C_35
REMARK    4  A    between atoms: N_5  and  C_14
REMARK    5  A    between atoms: N_6  and  C_25
REMARK    6  A    between atoms: C_7  and  C_17
REMARK    7  A    between atoms: C_9  and  C_19
REMARK    8  A    between atoms: C_13  and  C_18
REMARK    9  A    between atoms: C_18  and  C_20
REMARK   10  A    between atoms: C_18  and  C_21
REMARK   11  A    between atoms: C_22  and  C_23
REMARK   12  A    between atoms: C_23  and  C_24
REMARK   13  A    between atoms: C_24  and  C_26
REMARK   14  A    between atoms: C_24  and  C_27
REMARK   15  A    between atoms: C_24  and  C_28
REMARK   16  A    between atoms: C_25  and  C_29
REMARK                            x       y       z     vdW  Elec       q    Type
REMARK                         _______ _______ _______ _____ _____    ______ ____
ROOT
ATOM      7  C   UNL     1      12.367   8.095  21.140  0.00  0.00    -0.027 C 
ATOM      8  C   UNL     1      13.446   8.891  21.947  0.00  0.00    +0.028 C 
ATOM      9  C   UNL     1      12.929  10.331  22.303  0.00  0.00    +0.012 C 
ATOM     10  C   UNL     1      14.833   8.834  21.243  0.00  0.00    +0.122 C 
ATOM     11  C   UNL     1      12.862   6.648  20.905  0.00  0.00    +0.007 C 
ATOM     12  C   UNL     1      11.068   8.019  21.974  0.00  0.00    +0.009 C 
ATOM     13  C   UNL     1      15.275   7.388  20.918  0.00  0.00    +0.029 C 
ATOM     14  C   UNL     1      11.583  10.244  23.077  0.00  0.00    +0.076 C 
ATOM     15  C   UNL     1      14.200   6.588  20.181  0.00  0.00    +0.007 C 
ATOM     16  C   UNL     1      10.532   9.386  22.372  0.00  0.00    +0.023 C 
ATOM     17  C   UNL     1      12.055   8.743  19.767  0.00  0.00    +0.011 C 
ATOM     19  C   UNL     1      13.932  11.160  23.124  0.00  0.00    +0.010 C 
ENDROOT
BRANCH  14   5
ATOM      3  O   UNL     1      10.880  11.408  25.634  0.00  0.00    -0.276 OA
ATOM      5  N   UNL     1      11.018  11.555  23.319  0.00  0.00    -0.312 N 
ATOM     22  C   UNL     1      10.715  12.026  24.584  0.00  0.00    +0.214 C 
ATOM     36  H   UNL     1      10.808  12.133  22.511  0.00  0.00    +0.149 HD
BRANCH  22  23
ATOM     23  C   UNL     1      10.125  13.426  24.569  0.00  0.00    +0.102 C 
BRANCH  23  24
ATOM     24  C   UNL     1      11.163  14.567  24.684  0.00  0.00    -0.029 C 
ATOM     26  C   UNL     1      10.759  15.578  25.769  0.00  0.00    +0.011 C 
ATOM     27  C   UNL     1      12.517  13.943  25.079  0.00  0.00    +0.011 C 
ATOM     28  C   UNL     1      11.341  15.303  23.346  0.00  0.00    +0.011 C 
ENDBRANCH  23  24
ENDBRANCH  22  23
ENDBRANCH  14   5
BRANCH  10   1
ATOM      1  O   UNL     1      15.829   9.380  22.109  0.00  0.00    -0.391 OA
ATOM     37  H   UNL     1      16.406   9.957  21.579  0.00  0.00    +0.210 HD
ENDBRANCH  10   1
BRANCH  13  18
ATOM     18  C   UNL     1      16.578   7.360  20.109  0.00  0.00    +0.077 C 
ATOM     20  C   UNL     1      16.474   6.338  18.982  0.00  0.00    +0.017 C 
BRANCH  18  21
ATOM      2  O   UNL     1      18.066   5.908  21.351  0.00  0.00    -0.276 OA
ATOM      6  N   UNL     1      18.412   8.200  21.454  0.00  0.00    -0.311 N 
ATOM     21  C   UNL     1      17.754   7.053  21.031  0.00  0.00    +0.216 C 
ATOM     38  H   UNL     1      18.125   9.106  21.101  0.00  0.00    +0.149 HD
BRANCH   6  25
ATOM     25  C   UNL     1      19.556   8.164  22.333  0.00  0.00    +0.143 C 
BRANCH  25  29
ATOM     29  C   UNL     1      20.851   8.166  21.572  0.00  0.00    +0.011 A 
ATOM     30  C   UNL     1      21.621   7.008  21.473  0.00  0.00    +0.125 A 
ATOM     31  C   UNL     1      21.280   9.344  20.960  0.00  0.00    +0.009 A 
ATOM     32  C   UNL     1      22.822   7.027  20.763  0.00  0.00    +0.046 A 
ATOM     33  C   UNL     1      22.480   9.363  20.249  0.00  0.00    +0.001 A 
ATOM     34  C   UNL     1      23.251   8.205  20.151  0.00  0.00    +0.004 A 
BRANCH  30   4
ATOM      4  O   UNL     1      21.218   5.850  22.066  0.00  0.00    -0.495 OA
ATOM     35  C   UNL     1      21.911   4.658  21.698  0.00  0.00    +0.277 C 
ENDBRANCH  30   4
ENDBRANCH  25  29
ENDBRANCH   6  25
ENDBRANCH  18  21
ENDBRANCH  13  18
TORSDOF 9
ENDMDL
MODEL 6
REMARK VINA RESULT:      -6.6     28.653     31.914
REMARK  Name = 45361422
REMARK  16 active torsions:
REMARK  status: ('A' for Active; 'I' for Inactive)
REMARK    1  A    between atoms: O_1  and  C_10
REMARK    2  A    between atoms: O_4  and  C_30
REMARK    3  A    between atoms: O_4  and  C_35
REMARK    4  A    between atoms: N_5  and  C_14
REMARK    5  A    between atoms: N_6  and  C_25
REMARK    6  A    between atoms: C_7  and  C_17
REMARK    7  A    between atoms: C_9  and  C_19
REMARK    8  A    between atoms: C_13  and  C_18
REMARK    9  A    between atoms: C_18  and  C_20
REMARK   10  A    between atoms: C_18  and  C_21
REMARK   11  A    between atoms: C_22  and  C_23
REMARK   12  A    between atoms: C_23  and  C_24
REMARK   13  A    between atoms: C_24  and  C_26
REMARK   14  A    between atoms: C_24  and  C_27
REMARK   15  A    between atoms: C_24  and  C_28
REMARK   16  A    between atoms: C_25  and  C_29
REMARK                            x       y       z     vdW  Elec       q    Type
REMARK                         _______ _______ _______ _____ _____    ______ ____
ROOT
ATOM      7  C   UNL     1      15.992   6.994  19.692  0.00  0.00    -0.027 C 
ATOM      8  C   UNL     1      16.793   8.240  20.196  0.00  0.00    +0.028 C 
ATOM      9  C   UNL     1      17.915   7.813  21.208  0.00  0.00    +0.012 C 
ATOM     10  C   UNL     1      15.835   9.361  20.695  0.00  0.00    +0.122 C 
ATOM     11  C   UNL     1      14.973   7.437  18.615  0.00  0.00    +0.007 C 
ATOM     12  C   UNL     1      16.973   5.999  19.031  0.00  0.00    +0.009 C 
ATOM     13  C   UNL     1      14.753   9.727  19.653  0.00  0.00    +0.029 C 
ATOM     14  C   UNL     1      18.852   6.755  20.557  0.00  0.00    +0.076 C 
ATOM     15  C   UNL     1      14.009   8.505  19.113  0.00  0.00    +0.007 C 
ATOM     16  C   UNL     1      18.101   5.567  19.956  0.00  0.00    +0.023 C 
ATOM     17  C   UNL     1      15.229   6.276  20.834  0.00  0.00    +0.011 C 
ATOM     19  C   UNL     1      18.762   8.989  21.723  0.00  0.00    +0.010 C 
ENDROOT
BRANCH  14   5
ATOM      3  O   UNL     1      21.729   6.674  20.231  0.00  0.00    -0.276 OA
ATOM      5  N   UNL     1      19.828   6.252  21.500  0.00  0.00    -0.312 N 
ATOM     22  C   UNL     1      21.189   6.255  21.254  0.00  0.00    +0.214 C 
ATOM     36  H   UNL     1      19.482   5.848  22.365  0.00  0.00    +0.149 HD
BRANCH  22  23
ATOM     23  C   UNL     1      22.000   5.665  22.395  0.00  0.00    +0.102 C 
BRANCH  23  24
ATOM     24  C   UNL     1      22.558   4.248  22.127  0.00  0.00    -0.029 C 
ATOM     26  C   UNL     1      23.955   4.314  21.487  0.00  0.00    +0.011 C 
ATOM     27  C   UNL     1      22.677   3.517  23.480  0.00  0.00    +0.011 C 
ATOM     28  C   UNL     1      21.622   3.436  21.218  0.00  0.00    +0.011 C 
ENDBRANCH  23  24
ENDBRANCH  22  23
ENDBRANCH  14   5
BRANCH  10   1
ATOM      1  O   UNL     1      16.584  10.553  20.942  0.00  0.00    -0.391 OA
ATOM     37  H   UNL     1      17.232  10.364  21.643  0.00  0.00    +0.210 HD
ENDBRANCH  10   1
BRANCH  13  18
ATOM     18  C   UNL     1      13.743  10.737  20.211  0.00  0.00    +0.077 C 
ATOM     20  C   UNL     1      12.346  10.125  20.232  0.00  0.00    +0.017 C 
BRANCH  18  21
ATOM      2  O   UNL     1      12.882  12.860  19.426  0.00  0.00    -0.276 OA
ATOM      6  N   UNL     1      14.916  12.113  18.597  0.00  0.00    -0.311 N 
ATOM     21  C   UNL     1      13.777  12.018  19.384  0.00  0.00    +0.216 C 
ATOM     38  H   UNL     1      15.635  11.400  18.660  0.00  0.00    +0.149 HD
BRANCH   6  25
ATOM     25  C   UNL     1      15.172  13.236  17.727  0.00  0.00    +0.143 C 
BRANCH  25  29
ATOM     29  C   UNL     1      16.053  12.861  16.569  0.00  0.00    +0.011 A 
ATOM     30  C   UNL     1      15.640  11.907  15.639  0.00  0.00    +0.125 A 
ATOM     31  C   UNL     1      17.297  13.478  16.431  0.00  0.00    +0.009 A 
ATOM     32  C   UNL     1      16.472  11.570  14.571  0.00  0.00    +0.046 A 
ATOM     33  C   UNL     1      18.127  13.141  15.362  0.00  0.00    +0.001 A 
ATOM     34  C   UNL     1      17.715  12.187  14.433  0.00  0.00    +0.004 A 
BRANCH  30   4
ATOM      4  O   UNL     1      14.430  11.294  15.760  0.00  0.00    -0.495 OA
ATOM     35  C   UNL     1      14.409   9.872  15.640  0.00  0.00    +0.277 C 
ENDBRANCH  30   4
ENDBRANCH  25  29
ENDBRANCH   6  25
ENDBRANCH  18  21
ENDBRANCH  13  18
TORSDOF 9
ENDMDL
MODEL 7
REMARK VINA RESULT:      -6.4     28.492     32.089
REMARK  Name = 45361422
REMARK  16 active torsions:
REMARK  status: ('A' for Active; 'I' for Inactive)
REMARK    1  A    between atoms: O_1  and  C_10
REMARK    2  A    between atoms: O_4  and  C_30
REMARK    3  A    between atoms: O_4  and  C_35
REMARK    4  A    between atoms: N_5  and  C_14
REMARK    5  A    between atoms: N_6  and  C_25
REMARK    6  A    between atoms: C_7  and  C_17
REMARK    7  A    between atoms: C_9  and  C_19
REMARK    8  A    between atoms: C_13  and  C_18
REMARK    9  A    between atoms: C_18  and  C_20
REMARK   10  A    between atoms: C_18  and  C_21
REMARK   11  A    between atoms: C_22  and  C_23
REMARK   12  A    between atoms: C_23  and  C_24
REMARK   13  A    between atoms: C_24  and  C_26
REMARK   14  A    between atoms: C_24  and  C_27
REMARK   15  A    between atoms: C_24  and  C_28
REMARK   16  A    between atoms: C_25  and  C_29
REMARK                            x       y       z     vdW  Elec       q    Type
REMARK                         _______ _______ _______ _____ _____    ______ ____
ROOT
ATOM      7  C   UNL     1      21.238   7.747  22.595  0.00  0.00    -0.027 C 
ATOM      8  C   UNL     1      20.422   6.582  21.943  0.00  0.00    +0.028 C 
ATOM      9  C   UNL     1      21.381   5.535  21.271  0.00  0.00    +0.012 C 
ATOM     10  C   UNL     1      19.287   7.131  21.029  0.00  0.00    +0.122 C 
ATOM     11  C   UNL     1      20.272   8.698  23.342  0.00  0.00    +0.007 C 
ATOM     12  C   UNL     1      22.215   7.156  23.636  0.00  0.00    +0.009 C 
ATOM     13  C   UNL     1      18.387   8.160  21.751  0.00  0.00    +0.029 C 
ATOM     14  C   UNL     1      22.408   5.003  22.311  0.00  0.00    +0.076 C 
ATOM     15  C   UNL     1      19.184   9.267  22.442  0.00  0.00    +0.007 C 
ATOM     16  C   UNL     1      23.155   6.113  23.050  0.00  0.00    +0.023 C 
ATOM     17  C   UNL     1      22.037   8.569  21.553  0.00  0.00    +0.011 C 
ATOM     19  C   UNL     1      20.644   4.345  20.634  0.00  0.00    +0.010 C 
ENDROOT
BRANCH  14   5
ATOM      3  O   UNL     1      23.087   2.305  23.116  0.00  0.00    -0.276 OA
ATOM      5  N   UNL     1      23.382   4.123  21.699  0.00  0.00    -0.312 N 
ATOM     22  C   UNL     1      23.638   2.843  22.158  0.00  0.00    +0.214 C 
ATOM     36  H   UNL     1      23.921   4.487  20.920  0.00  0.00    +0.149 HD
BRANCH  22  23
ATOM     23  C   UNL     1      24.709   2.128  21.351  0.00  0.00    +0.102 C 
BRANCH  23  24
ATOM     24  C   UNL     1      26.138   2.236  21.934  0.00  0.00    -0.029 C 
ATOM     26  C   UNL     1      26.673   0.855  22.350  0.00  0.00    +0.011 C 
ATOM     27  C   UNL     1      27.059   2.806  20.837  0.00  0.00    +0.011 C 
ATOM     28  C   UNL     1      26.182   3.182  23.145  0.00  0.00    +0.011 C 
ENDBRANCH  23  24
ENDBRANCH  22  23
ENDBRANCH  14   5
BRANCH  10   1
ATOM      1  O   UNL     1      18.437   6.056  20.627  0.00  0.00    -0.391 OA
ATOM     37  H   UNL     1      17.535   6.253  20.933  0.00  0.00    +0.210 HD
ENDBRANCH  10   1
BRANCH  13  18
ATOM     18  C   UNL     1      17.360   8.785  20.799  0.00  0.00    +0.077 C 
ATOM     20  C   UNL     1      17.466  10.306  20.838  0.00  0.00    +0.017 C 
BRANCH  18  21
ATOM      2  O   UNL     1      15.286   8.854  22.048  0.00  0.00    -0.276 OA
ATOM      6  N   UNL     1      15.541   7.231  20.409  0.00  0.00    -0.311 N 
ATOM     21  C   UNL     1      15.956   8.315  21.169  0.00  0.00    +0.216 C 
ATOM     38  H   UNL     1      16.133   6.878  19.665  0.00  0.00    +0.149 HD
BRANCH   6  25
ATOM     25  C   UNL     1      14.249   6.609  20.577  0.00  0.00    +0.143 C 
BRANCH  25  29
ATOM     29  C   UNL     1      13.170   7.346  19.835  0.00  0.00    +0.011 A 
ATOM     30  C   UNL     1      12.046   7.829  20.505  0.00  0.00    +0.125 A 
ATOM     31  C   UNL     1      13.301   7.545  18.460  0.00  0.00    +0.009 A 
ATOM     32  C   UNL     1      11.053   8.510  19.801  0.00  0.00    +0.046 A 
ATOM     33  C   UNL     1      12.309   8.227  17.756  0.00  0.00    +0.001 A 
ATOM     34  C   UNL     1      11.185   8.709  18.426  0.00  0.00    +0.004 A 
BRANCH  30   4
ATOM      4  O   UNL     1      11.901   7.642  21.847  0.00  0.00    -0.495 OA
ATOM     35  C   UNL     1      10.750   8.219  22.460  0.00  0.00    +0.277 C 
ENDBRANCH  30   4
ENDBRANCH  25  29
ENDBRANCH   6  25
ENDBRANCH  18  21
ENDBRANCH  13  18
TORSDOF 9
ENDMDL
MODEL 8
REMARK VINA RESULT:      -6.4     23.924     26.588
REMARK  Name = 45361422
REMARK  16 active torsions:
REMARK  status: ('A' for Active; 'I' for Inactive)
REMARK    1  A    between atoms: O_1  and  C_10
REMARK    2  A    between atoms: O_4  and  C_30
REMARK    3  A    between atoms: O_4  and  C_35
REMARK    4  A    between atoms: N_5  and  C_14
REMARK    5  A    between atoms: N_6  and  C_25
REMARK    6  A    between atoms: C_7  and  C_17
REMARK    7  A    between atoms: C_9  and  C_19
REMARK    8  A    between atoms: C_13  and  C_18
REMARK    9  A    between atoms: C_18  and  C_20
REMARK   10  A    between atoms: C_18  and  C_21
REMARK   11  A    between atoms: C_22  and  C_23
REMARK   12  A    between atoms: C_23  and  C_24
REMARK   13  A    between atoms: C_24  and  C_26
REMARK   14  A    between atoms: C_24  and  C_27
REMARK   15  A    between atoms: C_24  and  C_28
REMARK   16  A    between atoms: C_25  and  C_29
REMARK                            x       y       z     vdW  Elec       q    Type
REMARK                         _______ _______ _______ _____ _____    ______ ____
ROOT
ATOM      7  C   UNL     1       9.742   6.656   6.511  0.00  0.00    -0.027 C 
ATOM      8  C   UNL     1      10.442   7.579   5.459  0.00  0.00    +0.028 C 
ATOM      9  C   UNL     1      11.516   6.777   4.639  0.00  0.00    +0.012 C 
ATOM     10  C   UNL     1      10.949   8.897   6.113  0.00  0.00    +0.122 C 
ATOM     11  C   UNL     1       8.616   7.446   7.221  0.00  0.00    +0.007 C 
ATOM     12  C   UNL     1       9.089   5.462   5.780  0.00  0.00    +0.009 C 
ATOM     13  C   UNL     1       9.843   9.629   6.908  0.00  0.00    +0.029 C 
ATOM     14  C   UNL     1      10.862   5.535   3.968  0.00  0.00    +0.076 C 
ATOM     15  C   UNL     1       9.116   8.716   7.896  0.00  0.00    +0.007 C 
ATOM     16  C   UNL     1      10.077   4.660   4.945  0.00  0.00    +0.023 C 
ATOM     17  C   UNL     1      10.727   6.123   7.582  0.00  0.00    +0.011 C 
ATOM     19  C   UNL     1      12.224   7.619   3.563  0.00  0.00    +0.010 C 
ENDROOT
BRANCH  14   5
ATOM      3  O   UNL     1      10.556   4.126   1.456  0.00  0.00    -0.276 OA
ATOM      5  N   UNL     1      11.845   4.709   3.299  0.00  0.00    -0.312 N 
ATOM     22  C   UNL     1      11.606   4.073   2.094  0.00  0.00    +0.214 C 
ATOM     36  H   UNL     1      12.737   4.569   3.764  0.00  0.00    +0.149 HD
BRANCH  22  23
ATOM     23  C   UNL     1      12.792   3.259   1.607  0.00  0.00    +0.102 C 
BRANCH  23  24
ATOM     24  C   UNL     1      13.686   3.976   0.568  0.00  0.00    -0.029 C 
ATOM     26  C   UNL     1      13.379   3.488  -0.858  0.00  0.00    +0.011 C 
ATOM     27  C   UNL     1      13.386   5.486   0.641  0.00  0.00    +0.011 C 
ATOM     28  C   UNL     1      15.179   3.763   0.866  0.00  0.00    +0.011 C 
ENDBRANCH  23  24
ENDBRANCH  22  23
ENDBRANCH  14   5
BRANCH  10   1
ATOM      1  O   UNL     1      11.383   9.799   5.093  0.00  0.00    -0.391 OA
ATOM     37  H   UNL     1      12.349   9.719   5.011  0.00  0.00    +0.210 HD
ENDBRANCH  10   1
BRANCH  13  18
ATOM     18  C   UNL     1      10.393  10.853   7.652  0.00  0.00    +0.077 C 
ATOM     20  C   UNL     1      10.120  10.726   9.147  0.00  0.00    +0.017 C 
BRANCH  18  21
ATOM      2  O   UNL     1      10.185  12.654   6.046  0.00  0.00    -0.276 OA
ATOM      6  N   UNL     1       8.730  12.606   7.853  0.00  0.00    -0.311 N 
ATOM     21  C   UNL     1       9.778  12.127   7.080  0.00  0.00    +0.216 C 
ATOM     38  H   UNL     1       8.420  12.082   8.665  0.00  0.00    +0.149 HD
BRANCH   6  25
ATOM     25  C   UNL     1       7.992  13.800   7.515  0.00  0.00    +0.143 C 
BRANCH  25  29
ATOM     29  C   UNL     1       6.653  13.844   8.194  0.00  0.00    +0.011 A 
ATOM     30  C   UNL     1       6.545  13.644   9.570  0.00  0.00    +0.125 A 
ATOM     31  C   UNL     1       5.511  14.090   7.432  0.00  0.00    +0.009 A 
ATOM     32  C   UNL     1       5.293  13.688  10.184  0.00  0.00    +0.046 A 
ATOM     33  C   UNL     1       4.259  14.135   8.047  0.00  0.00    +0.001 A 
ATOM     34  C   UNL     1       4.150  13.933   9.422  0.00  0.00    +0.004 A 
BRANCH  30   4
ATOM      4  O   UNL     1       7.650  13.402  10.328  0.00  0.00    -0.495 OA
ATOM     35  C   UNL     1       7.973  14.365  11.329  0.00  0.00    +0.277 C 
ENDBRANCH  30   4
ENDBRANCH  25  29
ENDBRANCH   6  25
ENDBRANCH  18  21
ENDBRANCH  13  18
TORSDOF 9
ENDMDL
MODEL 9
REMARK VINA RESULT:      -6.3     24.452     27.648
REMARK  Name = 45361422
REMARK  16 active torsions:
REMARK  status: ('A' for Active; 'I' for Inactive)
REMARK    1  A    between atoms: O_1  and  C_10
REMARK    2  A    between atoms: O_4  and  C_30
REMARK    3  A    between atoms: O_4  and  C_35
REMARK    4  A    between atoms: N_5  and  C_14
REMARK    5  A    between atoms: N_6  and  C_25
REMARK    6  A    between atoms: C_7  and  C_17
REMARK    7  A    between atoms: C_9  and  C_19
REMARK    8  A    between atoms: C_13  and  C_18
REMARK    9  A    between atoms: C_18  and  C_20
REMARK   10  A    between atoms: C_18  and  C_21
REMARK   11  A    between atoms: C_22  and  C_23
REMARK   12  A    between atoms: C_23  and  C_24
REMARK   13  A    between atoms: C_24  and  C_26
REMARK   14  A    between atoms: C_24  and  C_27
REMARK   15  A    between atoms: C_24  and  C_28
REMARK   16  A    between atoms: C_25  and  C_29
REMARK                            x       y       z     vdW  Elec       q    Type
REMARK                         _______ _______ _______ _____ _____    ______ ____
ROOT
ATOM      7  C   UNL     1       9.766   6.681   6.540  0.00  0.00    -0.027 C 
ATOM      8  C   UNL     1      10.244   7.565   5.341  0.00  0.00    +0.028 C 
ATOM      9  C   UNL     1      11.310   6.804   4.474  0.00  0.00    +0.012 C 
ATOM     10  C   UNL     1      10.664   8.986   5.820  0.00  0.00    +0.122 C 
ATOM     11  C   UNL     1       8.638   7.415   7.304  0.00  0.00    +0.007 C 
ATOM     12  C   UNL     1       9.180   5.361   5.990  0.00  0.00    +0.009 C 
ATOM     13  C   UNL     1       9.571   9.673   6.672  0.00  0.00    +0.029 C 
ATOM     14  C   UNL     1      10.735   5.443   3.989  0.00  0.00    +0.076 C 
ATOM     15  C   UNL     1       9.058   8.789   7.808  0.00  0.00    +0.007 C 
ATOM     16  C   UNL     1      10.160   4.589   5.119  0.00  0.00    +0.023 C 
ATOM     17  C   UNL     1      10.911   6.357   7.533  0.00  0.00    +0.011 C 
ATOM     19  C   UNL     1      11.803   7.607   3.259  0.00  0.00    +0.010 C 
ENDROOT
BRANCH  14   5
ATOM      3  O   UNL     1      10.391   3.981   1.512  0.00  0.00    -0.276 OA
ATOM      5  N   UNL     1      11.731   4.662   3.285  0.00  0.00    -0.312 N 
ATOM     22  C   UNL     1      11.471   3.996   2.101  0.00  0.00    +0.214 C 
ATOM     36  H   UNL     1      12.649   4.578   3.709  0.00  0.00    +0.149 HD
BRANCH  22  23
ATOM     23  C   UNL     1      12.677   3.241   1.568  0.00  0.00    +0.102 C 
BRANCH  23  24
ATOM     24  C   UNL     1      13.423   3.947   0.411  0.00  0.00    -0.029 C 
ATOM     26  C   UNL     1      14.946   3.784   0.551  0.00  0.00    +0.011 C 
ATOM     27  C   UNL     1      12.982   3.289  -0.912  0.00  0.00    +0.011 C 
ATOM     28  C   UNL     1      13.076   5.443   0.347  0.00  0.00    +0.011 C 
ENDBRANCH  23  24
ENDBRANCH  22  23
ENDBRANCH  14   5
BRANCH  10   1
ATOM      1  O   UNL     1      10.886   9.825   4.686  0.00  0.00    -0.391 OA
ATOM     37  H   UNL     1      10.674   9.315   3.885  0.00  0.00    +0.210 HD
ENDBRANCH  10   1
BRANCH  13  18
ATOM     18  C   UNL     1      10.053  11.013   7.242  0.00  0.00    +0.077 C 
ATOM     20  C   UNL     1       9.899  12.114   6.198  0.00  0.00    +0.017 C 
BRANCH  18  21
ATOM      2  O   UNL     1      11.800  10.640   8.877  0.00  0.00    -0.276 OA
ATOM      6  N   UNL     1      12.411  11.084   6.683  0.00  0.00    -0.311 N 
ATOM     21  C   UNL     1      11.500  10.888   7.711  0.00  0.00    +0.216 C 
ATOM     38  H   UNL     1      12.080  11.231   5.735  0.00  0.00    +0.149 HD
BRANCH   6  25
ATOM     25  C   UNL     1      13.839  11.016   6.882  0.00  0.00    +0.143 C 
BRANCH  25  29
ATOM     29  C   UNL     1      14.443   9.811   6.219  0.00  0.00    +0.011 A 
ATOM     30  C   UNL     1      15.374   9.955   5.191  0.00  0.00    +0.125 A 
ATOM     31  C   UNL     1      14.061   8.537   6.641  0.00  0.00    +0.009 A 
ATOM     32  C   UNL     1      15.925   8.826   4.585  0.00  0.00    +0.046 A 
ATOM     33  C   UNL     1      14.612   7.408   6.036  0.00  0.00    +0.001 A 
ATOM     34  C   UNL     1      15.543   7.552   5.008  0.00  0.00    +0.004 A 
BRANCH  30   4
ATOM      4  O   UNL     1      15.757  11.191   4.766  0.00  0.00    -0.495 OA
ATOM     35  C   UNL     1      15.518  11.507   3.395  0.00  0.00    +0.277 C 
ENDBRANCH  30   4
ENDBRANCH  25  29
ENDBRANCH   6  25
ENDBRANCH  18  21
ENDBRANCH  13  18
TORSDOF 9
ENDMDL
MODEL 10
REMARK VINA RESULT:      -6.3     23.898     27.887
REMARK  Name = 45361422
REMARK  16 active torsions:
REMARK  status: ('A' for Active; 'I' for Inactive)
REMARK    1  A    between atoms: O_1  and  C_10
REMARK    2  A    between atoms: O_4  and  C_30
REMARK    3  A    between atoms: O_4  and  C_35
REMARK    4  A    between atoms: N_5  and  C_14
REMARK    5  A    between atoms: N_6  and  C_25
REMARK    6  A    between atoms: C_7  and  C_17
REMARK    7  A    between atoms: C_9  and  C_19
REMARK    8  A    between atoms: C_13  and  C_18
REMARK    9  A    between atoms: C_18  and  C_20
REMARK   10  A    between atoms: C_18  and  C_21
REMARK   11  A    between atoms: C_22  and  C_23
REMARK   12  A    between atoms: C_23  and  C_24
REMARK   13  A    between atoms: C_24  and  C_26
REMARK   14  A    between atoms: C_24  and  C_27
REMARK   15  A    between atoms: C_24  and  C_28
REMARK   16  A    between atoms: C_25  and  C_29
REMARK                            x       y       z     vdW  Elec       q    Type
REMARK                         _______ _______ _______ _____ _____    ______ ____
ROOT
ATOM      7  C   UNL     1      13.376   6.734   1.679  0.00  0.00    -0.027 C 
ATOM      8  C   UNL     1      12.501   5.465   1.409  0.00  0.00    +0.028 C 
ATOM      9  C   UNL     1      12.050   4.800   2.759  0.00  0.00    +0.012 C 
ATOM     10  C   UNL     1      13.191   4.510   0.392  0.00  0.00    +0.122 C 
ATOM     11  C   UNL     1      13.708   7.426   0.336  0.00  0.00    +0.007 C 
ATOM     12  C   UNL     1      12.565   7.733   2.535  0.00  0.00    +0.009 C 
ATOM     13  C   UNL     1      13.614   5.232  -0.908  0.00  0.00    +0.029 C 
ATOM     14  C   UNL     1      11.300   5.836   3.644  0.00  0.00    +0.076 C 
ATOM     15  C   UNL     1      14.419   6.506  -0.647  0.00  0.00    +0.007 C 
ATOM     16  C   UNL     1      12.076   7.137   3.847  0.00  0.00    +0.023 C 
ATOM     17  C   UNL     1      14.702   6.398   2.407  0.00  0.00    +0.011 C 
ATOM     19  C   UNL     1      11.160   3.560   2.567  0.00  0.00    +0.010 C 
ENDROOT
BRANCH  14   5
ATOM      3  O   UNL     1       8.750   5.970   5.012  0.00  0.00    -0.276 OA
ATOM      5  N   UNL     1      10.971   5.290   4.945  0.00  0.00    -0.312 N 
ATOM     22  C   UNL     1       9.717   5.405   5.518  0.00  0.00    +0.214 C 
ATOM     36  H   UNL     1      11.714   4.834   5.465  0.00  0.00    +0.149 HD
BRANCH  22  23
ATOM     23  C   UNL     1       9.631   4.757   6.890  0.00  0.00    +0.102 C 
BRANCH  23  24
ATOM     24  C   UNL     1       9.863   5.721   8.077  0.00  0.00    -0.029 C 
ATOM     26  C   UNL     1       9.593   5.022   9.420  0.00  0.00    +0.011 C 
ATOM     27  C   UNL     1      11.338   6.169   8.048  0.00  0.00    +0.011 C 
ATOM     28  C   UNL     1       8.975   6.972   7.969  0.00  0.00    +0.011 C 
ENDBRANCH  23  24
ENDBRANCH  22  23
ENDBRANCH  14   5
BRANCH  10   1
ATOM      1  O   UNL     1      12.277   3.481   0.009  0.00  0.00    -0.391 OA
ATOM     37  H   UNL     1      11.887   3.107   0.818  0.00  0.00    +0.210 HD
ENDBRANCH  10   1
BRANCH  13  18
ATOM     18  C   UNL     1      14.407   4.307  -1.840  0.00  0.00    +0.077 C 
ATOM     20  C   UNL     1      15.761   4.927  -2.167  0.00  0.00    +0.017 C 
BRANCH  18  21
ATOM      2  O   UNL     1      13.959   4.415  -4.217  0.00  0.00    -0.276 OA
ATOM      6  N   UNL     1      12.443   3.309  -2.852  0.00  0.00    -0.311 N 
ATOM     21  C   UNL     1      13.601   4.030  -3.106  0.00  0.00    +0.216 C 
ATOM     38  H   UNL     1      12.247   2.982  -1.913  0.00  0.00    +0.149 HD
BRANCH   6  25
ATOM     25  C   UNL     1      11.518   2.928  -3.893  0.00  0.00    +0.143 C 
BRANCH  25  29
ATOM     29  C   UNL     1      10.572   4.042  -4.239  0.00  0.00    +0.011 A 
ATOM     30  C   UNL     1       9.845   4.695  -3.244  0.00  0.00    +0.125 A 
ATOM     31  C   UNL     1      10.425   4.422  -5.574  0.00  0.00    +0.009 A 
ATOM     32  C   UNL     1       8.970   5.727  -3.584  0.00  0.00    +0.046 A 
ATOM     33  C   UNL     1       9.551   5.455  -5.912  0.00  0.00    +0.001 A 
ATOM     34  C   UNL     1       8.823   6.107  -4.918  0.00  0.00    +0.004 A 
BRANCH  30   4
ATOM      4  O   UNL     1       9.975   4.336  -1.937  0.00  0.00    -0.495 OA
ATOM     35  C   UNL     1       9.635   5.317  -0.959  0.00  0.00    +0.277 C 
ENDBRANCH  30   4
ENDBRANCH  25  29
ENDBRANCH   6  25
ENDBRANCH  18  21
ENDBRANCH  13  18
TORSDOF 9
ENDMDL
