MODEL 1
REMARK VINA RESULT:      -6.6      0.000      0.000
REMARK  Name = 44716832
REMARK  11 active torsions:
REMARK  status: ('A' for Active; 'I' for Inactive)
REMARK    1  A    between atoms: S_1  and  N_9
REMARK    2  A    between atoms: S_1  and  C_24
REMARK    3  A    between atoms: N_9  and  C_15
REMARK    4  A    between atoms: N_10  and  C_22
REMARK    5  A    between atoms: N_13  and  C_34
REMARK    6  A    between atoms: C_17  and  C_20
REMARK    7  A    between atoms: C_21  and  C_23
REMARK    8  A    between atoms: C_22  and  C_25
REMARK    9  A    between atoms: C_22  and  C_26
REMARK   10  A    between atoms: C_25  and  C_29
REMARK   11  A    between atoms: C_31  and  C_35
REMARK                            x       y       z     vdW  Elec       q    Type
REMARK                         _______ _______ _______ _____ _____    ______ ____
ROOT
ATOM      4  O   UNL     1      10.129   9.338  22.916  0.00  0.00    -0.268 OA
ATOM      8  N   UNL     1      12.354   9.856  22.391  0.00  0.00    -0.285 N 
ATOM     15  C   UNL     1      15.043   8.941  21.752  0.00  0.00    +0.080 C 
ATOM     16  C   UNL     1      14.826  10.229  22.549  0.00  0.00    +0.052 C 
ATOM     17  C   UNL     1      13.445  10.846  22.327  0.00  0.00    +0.164 C 
ATOM     18  C   UNL     1      13.898   7.960  21.993  0.00  0.00    +0.039 C 
ATOM     19  C   UNL     1      12.559   8.603  21.658  0.00  0.00    +0.110 C 
ATOM     21  C   UNL     1      11.097  10.094  22.967  0.00  0.00    +0.266 C 
ENDROOT
BRANCH  21  23
ATOM      2  S   UNL     1      10.814  13.099  25.535  0.00  0.00    -0.080 S 
ATOM     11  N   UNL     1      10.416  12.467  23.061  0.00  0.00    -0.240 NA
ATOM     23  C   UNL     1      10.900  11.346  23.706  0.00  0.00    +0.133 A 
ATOM     28  C   UNL     1      11.174  11.495  25.049  0.00  0.00    +0.080 A 
ATOM     31  C   UNL     1      10.329  13.451  23.927  0.00  0.00    +0.076 A 
ATOM     35  C   UNL     1       9.848  14.812  23.603  0.00  0.00    +0.073 C 
ENDBRANCH  21  23
BRANCH  17  20
ATOM      3  O   UNL     1      12.281  12.010  20.596  0.00  0.00    -0.274 OA
ATOM     10  N   UNL     1      14.536  11.515  20.302  0.00  0.00    -0.302 N 
ATOM     20  C   UNL     1      13.337  11.528  20.995  0.00  0.00    +0.234 C 
ATOM     40  H   UNL     1      15.374  11.174  20.764  0.00  0.00    +0.150 HD
BRANCH  10  22
ATOM     22  C   UNL     1      14.693  12.087  18.984  0.00  0.00    +0.163 C 
BRANCH  22  26
ATOM      7  O   UNL     1      15.574  14.262  19.614  0.00  0.00    -0.274 OA
ATOM     14  N   UNL     1      16.975  12.769  18.572  0.00  0.00    -0.328 N 
ATOM     26  C   UNL     1      15.759  13.167  19.088  0.00  0.00    +0.231 C 
ATOM     41  H   UNL     1      17.120  11.853  18.161  0.00  0.00    +0.145 HD
ATOM     42  H   UNL     1      17.777  13.391  18.591  0.00  0.00    +0.145 HD
ENDBRANCH  22  26
BRANCH  22  25
ATOM     25  C   UNL     1      15.096  11.037  17.942  0.00  0.00    +0.067 C 
BRANCH  25  29
ATOM     29  C   UNL     1      14.201   9.823  17.959  0.00  0.00    -0.045 A 
ATOM     32  C   UNL     1      14.724   8.577  18.307  0.00  0.00    +0.004 A 
ATOM     33  C   UNL     1      12.852   9.945  17.627  0.00  0.00    +0.004 A 
ATOM     36  C   UNL     1      13.897   7.453  18.323  0.00  0.00    +0.000 A 
ATOM     37  C   UNL     1      12.025   8.822  17.643  0.00  0.00    +0.000 A 
ATOM     38  C   UNL     1      12.548   7.576  17.991  0.00  0.00    +0.000 A 
ENDBRANCH  25  29
ENDBRANCH  22  25
ENDBRANCH  10  22
ENDBRANCH  17  20
BRANCH  15   9
ATOM      9  N   UNL     1      16.321   8.313  22.166  0.00  0.00    -0.185 NA
ATOM     39  H   UNL     1      16.334   7.904  23.108  0.00  0.00    +0.148 HD
BRANCH   9   1
ATOM      1  S   UNL     1      17.783   8.845  21.485  0.00  0.00    +0.077 S 
ATOM      5  O   UNL     1      18.650   9.347  22.534  0.00  0.00    -0.152 OA
ATOM      6  O   UNL     1      17.485   9.667  20.328  0.00  0.00    -0.152 OA
BRANCH   1  24
ATOM     12  N   UNL     1      17.803   6.523  20.003  0.00  0.00    -0.216 NA
ATOM     13  N   UNL     1      19.786   5.647  20.490  0.00  0.00    -0.338 N 
ATOM     24  C   UNL     1      18.475   7.335  20.881  0.00  0.00    +0.211 A 
ATOM     27  C   UNL     1      19.707   6.813  21.198  0.00  0.00    +0.135 A 
ATOM     30  C   UNL     1      18.620   5.515  19.788  0.00  0.00    +0.201 A 
ATOM     34  C   UNL     1      20.894   4.724  20.483  0.00  0.00    +0.150 C 
ENDBRANCH   1  24
ENDBRANCH   9   1
ENDBRANCH  15   9
TORSDOF 9
ENDMDL
MODEL 2
REMARK VINA RESULT:      -6.4     27.575     30.778
REMARK  Name = 44716832
REMARK  11 active torsions:
REMARK  status: ('A' for Active; 'I' for Inactive)
REMARK    1  A    between atoms: S_1  and  N_9
REMARK    2  A    between atoms: S_1  and  C_24
REMARK    3  A    between atoms: N_9  and  C_15
REMARK    4  A    between atoms: N_10  and  C_22
REMARK    5  A    between atoms: N_13  and  C_34
REMARK    6  A    between atoms: C_17  and  C_20
REMARK    7  A    between atoms: C_21  and  C_23
REMARK    8  A    between atoms: C_22  and  C_25
REMARK    9  A    between atoms: C_22  and  C_26
REMARK   10  A    between atoms: C_25  and  C_29
REMARK   11  A    between atoms: C_31  and  C_35
REMARK                            x       y       z     vdW  Elec       q    Type
REMARK                         _______ _______ _______ _____ _____    ______ ____
ROOT
ATOM      4  O   UNL     1      -4.455 -15.042  17.099  0.00  0.00    -0.268 OA
ATOM      8  N   UNL     1      -5.328 -12.870  16.991  0.00  0.00    -0.285 N 
ATOM     15  C   UNL     1      -6.533 -10.596  18.354  0.00  0.00    +0.080 C 
ATOM     16  C   UNL     1      -6.906 -10.926  16.907  0.00  0.00    +0.052 C 
ATOM     17  C   UNL     1      -5.836 -11.745  16.184  0.00  0.00    +0.164 C 
ATOM     18  C   UNL     1      -6.132 -11.862  19.107  0.00  0.00    +0.039 C 
ATOM     19  C   UNL     1      -4.996 -12.578  18.390  0.00  0.00    +0.110 C 
ATOM     21  C   UNL     1      -5.004 -14.134  16.478  0.00  0.00    +0.266 C 
ENDROOT
BRANCH  21  23
ATOM      2  S   UNL     1      -6.551 -15.166  12.979  0.00  0.00    -0.080 S 
ATOM     11  N   UNL     1      -4.456 -14.118  14.069  0.00  0.00    -0.240 NA
ATOM     23  C   UNL     1      -5.344 -14.423  15.080  0.00  0.00    +0.133 A 
ATOM     28  C   UNL     1      -6.535 -14.996  14.685  0.00  0.00    +0.080 A 
ATOM     31  C   UNL     1      -4.985 -14.467  12.918  0.00  0.00    +0.076 A 
ATOM     35  C   UNL     1      -4.325 -14.296  11.606  0.00  0.00    +0.073 C 
ENDBRANCH  21  23
BRANCH  17  20
ATOM      3  O   UNL     1      -4.160 -10.087  16.568  0.00  0.00    -0.274 OA
ATOM     10  N   UNL     1      -4.216 -11.177  14.511  0.00  0.00    -0.302 N 
ATOM     20  C   UNL     1      -4.648 -10.912  15.800  0.00  0.00    +0.234 C 
ATOM     40  H   UNL     1      -4.632 -11.948  13.997  0.00  0.00    +0.150 HD
BRANCH  10  22
ATOM     22  C   UNL     1      -3.103 -10.493  13.895  0.00  0.00    +0.163 C 
BRANCH  22  26
ATOM      7  O   UNL     1      -1.392 -11.975  14.778  0.00  0.00    -0.274 OA
ATOM     14  N   UNL     1      -1.284  -9.739  15.295  0.00  0.00    -0.328 N 
ATOM     26  C   UNL     1      -1.860 -10.841  14.700  0.00  0.00    +0.231 C 
ATOM     41  H   UNL     1      -1.669  -8.805  15.204  0.00  0.00    +0.145 HD
ATOM     42  H   UNL     1      -0.439  -9.830  15.851  0.00  0.00    +0.145 HD
ENDBRANCH  22  26
BRANCH  22  25
ATOM     25  C   UNL     1      -2.918 -10.893  12.427  0.00  0.00    +0.067 C 
BRANCH  25  29
ATOM     29  C   UNL     1      -3.726 -10.039  11.481  0.00  0.00    -0.045 A 
ATOM     32  C   UNL     1      -5.014  -9.635  11.835  0.00  0.00    +0.004 A 
ATOM     33  C   UNL     1      -3.186  -9.652  10.255  0.00  0.00    +0.004 A 
ATOM     36  C   UNL     1      -5.763  -8.846  10.961  0.00  0.00    +0.000 A 
ATOM     37  C   UNL     1      -3.934  -8.863   9.381  0.00  0.00    +0.000 A 
ATOM     38  C   UNL     1      -5.222  -8.459   9.735  0.00  0.00    +0.000 A 
ENDBRANCH  25  29
ENDBRANCH  22  25
ENDBRANCH  10  22
ENDBRANCH  17  20
BRANCH  15   9
ATOM      9  N   UNL     1      -7.694  -9.970  19.032  0.00  0.00    -0.185 NA
ATOM     39  H   UNL     1      -7.471  -9.361  19.830  0.00  0.00    +0.148 HD
BRANCH   9   1
ATOM      1  S   UNL     1      -9.212 -10.730  18.982  0.00  0.00    +0.077 S 
ATOM      5  O   UNL     1      -9.766 -10.790  20.321  0.00  0.00    -0.152 OA
ATOM      6  O   UNL     1      -9.103 -11.935  18.182  0.00  0.00    -0.152 OA
BRANCH   1  24
ATOM     12  N   UNL     1     -11.488  -9.794  17.744  0.00  0.00    -0.216 NA
ATOM     13  N   UNL     1     -10.823  -7.849  16.901  0.00  0.00    -0.338 N 
ATOM     24  C   UNL     1     -10.167  -9.574  18.047  0.00  0.00    +0.211 A 
ATOM     27  C   UNL     1      -9.733  -8.375  17.534  0.00  0.00    +0.135 A 
ATOM     30  C   UNL     1     -11.852  -8.735  17.053  0.00  0.00    +0.201 A 
ATOM     34  C   UNL     1     -10.879  -6.591  16.199  0.00  0.00    +0.150 C 
ENDBRANCH   1  24
ENDBRANCH   9   1
ENDBRANCH  15   9
TORSDOF 9
ENDMDL
MODEL 3
REMARK VINA RESULT:      -6.3     27.696     31.012
REMARK  Name = 44716832
REMARK  11 active torsions:
REMARK  status: ('A' for Active; 'I' for Inactive)
REMARK    1  A    between atoms: S_1  and  N_9
REMARK    2  A    between atoms: S_1  and  C_24
REMARK    3  A    between atoms: N_9  and  C_15
REMARK    4  A    between atoms: N_10  and  C_22
REMARK    5  A    between atoms: N_13  and  C_34
REMARK    6  A    between atoms: C_17  and  C_20
REMARK    7  A    between atoms: C_21  and  C_23
REMARK    8  A    between atoms: C_22  and  C_25
REMARK    9  A    between atoms: C_22  and  C_26
REMARK   10  A    between atoms: C_25  and  C_29
REMARK   11  A    between atoms: C_31  and  C_35
REMARK                            x       y       z     vdW  Elec       q    Type
REMARK                         _______ _______ _______ _____ _____    ______ ____
ROOT
ATOM      4  O   UNL     1      -4.527 -14.164  17.433  0.00  0.00    -0.268 OA
ATOM      8  N   UNL     1      -5.775 -12.621  16.185  0.00  0.00    -0.285 N 
ATOM     15  C   UNL     1      -7.975 -10.719  16.053  0.00  0.00    +0.080 C 
ATOM     16  C   UNL     1      -7.585 -11.547  14.827  0.00  0.00    +0.052 C 
ATOM     17  C   UNL     1      -6.142 -12.049  14.876  0.00  0.00    +0.164 C 
ATOM     18  C   UNL     1      -7.642 -11.472  17.338  0.00  0.00    +0.039 C 
ATOM     19  C   UNL     1      -6.169 -11.855  17.371  0.00  0.00    +0.110 C 
ATOM     21  C   UNL     1      -4.957 -13.747  16.359  0.00  0.00    +0.266 C 
ENDROOT
BRANCH  21  23
ATOM      2  S   UNL     1      -4.552 -16.163  13.243  0.00  0.00    -0.080 S 
ATOM     11  N   UNL     1      -3.377 -14.252  14.528  0.00  0.00    -0.240 NA
ATOM     23  C   UNL     1      -4.571 -14.514  15.169  0.00  0.00    +0.133 A 
ATOM     28  C   UNL     1      -5.345 -15.515  14.619  0.00  0.00    +0.080 A 
ATOM     31  C   UNL     1      -3.261 -15.062  13.499  0.00  0.00    +0.076 A 
ATOM     35  C   UNL     1      -2.109 -15.078  12.572  0.00  0.00    +0.073 C 
ENDBRANCH  21  23
BRANCH  17  20
ATOM      3  O   UNL     1      -5.408  -9.777  14.805  0.00  0.00    -0.274 OA
ATOM     10  N   UNL     1      -3.980 -11.446  14.036  0.00  0.00    -0.302 N 
ATOM     20  C   UNL     1      -5.153 -10.958  14.585  0.00  0.00    +0.234 C 
ATOM     40  H   UNL     1      -3.836 -12.450  13.984  0.00  0.00    +0.150 HD
BRANCH  10  22
ATOM     22  C   UNL     1      -2.877 -10.598  13.645  0.00  0.00    +0.163 C 
BRANCH  22  26
ATOM      7  O   UNL     1      -1.133  -9.649  15.047  0.00  0.00    -0.274 OA
ATOM     14  N   UNL     1      -1.961 -11.726  15.576  0.00  0.00    -0.328 N 
ATOM     26  C   UNL     1      -1.888 -10.588  14.801  0.00  0.00    +0.231 C 
ATOM     41  H   UNL     1      -2.605 -12.483  15.375  0.00  0.00    +0.145 HD
ATOM     42  H   UNL     1      -1.364 -11.841  16.389  0.00  0.00    +0.145 HD
ENDBRANCH  22  26
BRANCH  22  25
ATOM     25  C   UNL     1      -2.196 -11.089  12.362  0.00  0.00    +0.067 C 
BRANCH  25  29
ATOM     29  C   UNL     1      -2.983 -10.757  11.119  0.00  0.00    -0.045 A 
ATOM     32  C   UNL     1      -3.642 -11.769  10.421  0.00  0.00    +0.004 A 
ATOM     33  C   UNL     1      -3.052  -9.440  10.667  0.00  0.00    +0.004 A 
ATOM     36  C   UNL     1      -4.370 -11.463   9.270  0.00  0.00    +0.000 A 
ATOM     37  C   UNL     1      -3.779  -9.133   9.517  0.00  0.00    +0.000 A 
ATOM     38  C   UNL     1      -4.438 -10.145   8.819  0.00  0.00    +0.000 A 
ENDBRANCH  25  29
ENDBRANCH  22  25
ENDBRANCH  10  22
ENDBRANCH  17  20
BRANCH  15   9
ATOM      9  N   UNL     1      -9.430 -10.435  16.015  0.00  0.00    -0.185 NA
ATOM     39  H   UNL     1      -9.926 -10.751  15.172  0.00  0.00    +0.148 HD
BRANCH   9   1
ATOM      1  S   UNL     1     -10.057  -9.119  16.887  0.00  0.00    +0.077 S 
ATOM      5  O   UNL     1      -8.964  -8.306  17.387  0.00  0.00    -0.152 OA
ATOM      6  O   UNL     1     -11.079  -9.605  17.793  0.00  0.00    -0.152 OA
BRANCH   1  24
ATOM     12  N   UNL     1     -11.404  -8.807  14.504  0.00  0.00    -0.216 NA
ATOM     13  N   UNL     1     -11.768  -6.617  14.429  0.00  0.00    -0.338 N 
ATOM     24  C   UNL     1     -10.883  -8.203  15.621  0.00  0.00    +0.211 A 
ATOM     27  C   UNL     1     -11.096  -6.845  15.596  0.00  0.00    +0.135 A 
ATOM     30  C   UNL     1     -11.930  -7.823  13.807  0.00  0.00    +0.201 A 
ATOM     34  C   UNL     1     -12.223  -5.338  13.941  0.00  0.00    +0.150 C 
ENDBRANCH   1  24
ENDBRANCH   9   1
ENDBRANCH  15   9
TORSDOF 9
ENDMDL
MODEL 4
REMARK VINA RESULT:      -6.3     15.868     19.033
REMARK  Name = 44716832
REMARK  11 active torsions:
REMARK  status: ('A' for Active; 'I' for Inactive)
REMARK    1  A    between atoms: S_1  and  N_9
REMARK    2  A    between atoms: S_1  and  C_24
REMARK    3  A    between atoms: N_9  and  C_15
REMARK    4  A    between atoms: N_10  and  C_22
REMARK    5  A    between atoms: N_13  and  C_34
REMARK    6  A    between atoms: C_17  and  C_20
REMARK    7  A    between atoms: C_21  and  C_23
REMARK    8  A    between atoms: C_22  and  C_25
REMARK    9  A    between atoms: C_22  and  C_26
REMARK   10  A    between atoms: C_25  and  C_29
REMARK   11  A    between atoms: C_31  and  C_35
REMARK                            x       y       z     vdW  Elec       q    Type
REMARK                         _______ _______ _______ _____ _____    ______ ____
ROOT
ATOM      4  O   UNL     1      17.054  10.969   3.194  0.00  0.00    -0.268 OA
ATOM      8  N   UNL     1      15.725   9.109   3.713  0.00  0.00    -0.285 N 
ATOM     15  C   UNL     1      13.221   8.047   4.752  0.00  0.00    +0.080 C 
ATOM     16  C   UNL     1      14.536   7.290   4.958  0.00  0.00    +0.052 C 
ATOM     17  C   UNL     1      15.606   7.656   3.928  0.00  0.00    +0.164 C 
ATOM     18  C   UNL     1      13.476   9.548   4.655  0.00  0.00    +0.039 C 
ATOM     19  C   UNL     1      14.473   9.855   3.545  0.00  0.00    +0.110 C 
ATOM     21  C   UNL     1      16.936   9.786   3.508  0.00  0.00    +0.266 C 
ENDROOT
BRANCH  21  23
ATOM      2  S   UNL     1      20.293   7.695   3.254  0.00  0.00    -0.080 S 
ATOM     11  N   UNL     1      18.720   8.857   4.943  0.00  0.00    -0.240 NA
ATOM     23  C   UNL     1      18.186   9.038   3.683  0.00  0.00    +0.133 A 
ATOM     28  C   UNL     1      18.897   8.481   2.641  0.00  0.00    +0.080 A 
ATOM     31  C   UNL     1      19.830   8.163   4.839  0.00  0.00    +0.076 A 
ATOM     35  C   UNL     1      20.684   7.771   5.981  0.00  0.00    +0.073 C 
ENDBRANCH  21  23
BRANCH  17  20
ATOM      3  O   UNL     1      15.739   7.546   1.546  0.00  0.00    -0.274 OA
ATOM     10  N   UNL     1      14.583   5.878   2.688  0.00  0.00    -0.302 N 
ATOM     20  C   UNL     1      15.336   7.037   2.588  0.00  0.00    +0.234 C 
ATOM     40  H   UNL     1      14.384   5.494   3.606  0.00  0.00    +0.150 HD
BRANCH  10  22
ATOM     22  C   UNL     1      14.169   5.104   1.540  0.00  0.00    +0.163 C 
BRANCH  22  26
ATOM      7  O   UNL     1      15.874   4.003   0.203  0.00  0.00    -0.274 OA
ATOM     14  N   UNL     1      15.540   3.292   2.362  0.00  0.00    -0.328 N 
ATOM     26  C   UNL     1      15.265   4.085   1.268  0.00  0.00    +0.231 C 
ATOM     41  H   UNL     1      15.045   3.386   3.243  0.00  0.00    +0.145 HD
ATOM     42  H   UNL     1      16.262   2.579   2.320  0.00  0.00    +0.145 HD
ENDBRANCH  22  26
BRANCH  22  25
ATOM     25  C   UNL     1      12.828   4.398   1.772  0.00  0.00    +0.067 C 
BRANCH  25  29
ATOM     29  C   UNL     1      11.870   4.570   0.619  0.00  0.00    -0.045 A 
ATOM     32  C   UNL     1      12.139   3.962  -0.607  0.00  0.00    +0.004 A 
ATOM     33  C   UNL     1      10.716   5.337   0.779  0.00  0.00    +0.004 A 
ATOM     36  C   UNL     1      11.254   4.121  -1.674  0.00  0.00    +0.000 A 
ATOM     37  C   UNL     1       9.832   5.496  -0.287  0.00  0.00    +0.000 A 
ATOM     38  C   UNL     1      10.100   4.888  -1.514  0.00  0.00    +0.000 A 
ENDBRANCH  25  29
ENDBRANCH  22  25
ENDBRANCH  10  22
ENDBRANCH  17  20
BRANCH  15   9
ATOM      9  N   UNL     1      12.313   7.777   5.893  0.00  0.00    -0.185 NA
ATOM     39  H   UNL     1      12.734   7.295   6.697  0.00  0.00    +0.148 HD
BRANCH   9   1
ATOM      1  S   UNL     1      10.645   7.611   5.623  0.00  0.00    +0.077 S 
ATOM      5  O   UNL     1      10.419   7.124   4.275  0.00  0.00    -0.152 OA
ATOM      6  O   UNL     1       9.976   8.812   6.087  0.00  0.00    -0.152 OA
BRANCH   1  24
ATOM     12  N   UNL     1      10.062   5.016   6.340  0.00  0.00    -0.216 NA
ATOM     13  N   UNL     1       9.711   5.178   8.528  0.00  0.00    -0.338 N 
ATOM     24  C   UNL     1      10.220   6.316   6.749  0.00  0.00    +0.211 A 
ATOM     27  C   UNL     1      10.007   6.441   8.101  0.00  0.00    +0.135 A 
ATOM     30  C   UNL     1       9.756   4.356   7.436  0.00  0.00    +0.201 A 
ATOM     34  C   UNL     1       9.406   4.782   9.880  0.00  0.00    +0.150 C 
ENDBRANCH   1  24
ENDBRANCH   9   1
ENDBRANCH  15   9
TORSDOF 9
ENDMDL
MODEL 5
REMARK VINA RESULT:      -6.2     15.522     18.536
REMARK  Name = 44716832
REMARK  11 active torsions:
REMARK  status: ('A' for Active; 'I' for Inactive)
REMARK    1  A    between atoms: S_1  and  N_9
REMARK    2  A    between atoms: S_1  and  C_24
REMARK    3  A    between atoms: N_9  and  C_15
REMARK    4  A    between atoms: N_10  and  C_22
REMARK    5  A    between atoms: N_13  and  C_34
REMARK    6  A    between atoms: C_17  and  C_20
REMARK    7  A    between atoms: C_21  and  C_23
REMARK    8  A    between atoms: C_22  and  C_25
REMARK    9  A    between atoms: C_22  and  C_26
REMARK   10  A    between atoms: C_25  and  C_29
REMARK   11  A    between atoms: C_31  and  C_35
REMARK                            x       y       z     vdW  Elec       q    Type
REMARK                         _______ _______ _______ _____ _____    ______ ____
ROOT
ATOM      4  O   UNL     1      16.409  10.985   5.675  0.00  0.00    -0.268 OA
ATOM      8  N   UNL     1      15.294   8.925   5.578  0.00  0.00    -0.285 N 
ATOM     15  C   UNL     1      13.110   7.227   6.484  0.00  0.00    +0.080 C 
ATOM     16  C   UNL     1      14.468   6.623   6.118  0.00  0.00    +0.052 C 
ATOM     17  C   UNL     1      15.283   7.507   5.173  0.00  0.00    +0.164 C 
ATOM     18  C   UNL     1      13.277   8.657   6.990  0.00  0.00    +0.039 C 
ATOM     19  C   UNL     1      14.006   9.511   5.962  0.00  0.00    +0.110 C 
ATOM     21  C   UNL     1      16.407   9.772   5.473  0.00  0.00    +0.266 C 
ENDROOT
BRANCH  21  23
ATOM      2  S   UNL     1      19.654   8.272   3.766  0.00  0.00    -0.080 S 
ATOM     11  N   UNL     1      18.594   8.786   6.066  0.00  0.00    -0.240 NA
ATOM     23  C   UNL     1      17.695   9.180   5.095  0.00  0.00    +0.133 A 
ATOM     28  C   UNL     1      18.093   8.982   3.790  0.00  0.00    +0.080 A 
ATOM     31  C   UNL     1      19.662   8.292   5.482  0.00  0.00    +0.076 A 
ATOM     35  C   UNL     1      20.842   7.766   6.202  0.00  0.00    +0.073 C 
ENDBRANCH  21  23
BRANCH  17  20
ATOM      3  O   UNL     1      14.057   8.352   3.305  0.00  0.00    -0.274 OA
ATOM     10  N   UNL     1      15.155   6.310   3.101  0.00  0.00    -0.302 N 
ATOM     20  C   UNL     1      14.763   7.460   3.766  0.00  0.00    +0.234 C 
ATOM     40  H   UNL     1      15.818   5.681   3.545  0.00  0.00    +0.150 HD
BRANCH  10  22
ATOM     22  C   UNL     1      14.768   6.012   1.741  0.00  0.00    +0.163 C 
BRANCH  22  26
ATOM      7  O   UNL     1      16.117   7.726   0.670  0.00  0.00    -0.274 OA
ATOM     14  N   UNL     1      16.612   5.521   0.259  0.00  0.00    -0.328 N 
ATOM     26  C   UNL     1      15.875   6.533   0.836  0.00  0.00    +0.231 C 
ATOM     41  H   UNL     1      16.415   4.539   0.423  0.00  0.00    +0.145 HD
ATOM     42  H   UNL     1      17.391   5.731  -0.357  0.00  0.00    +0.145 HD
ENDBRANCH  22  26
BRANCH  22  25
ATOM     25  C   UNL     1      14.555   4.511   1.515  0.00  0.00    +0.067 C 
BRANCH  25  29
ATOM     29  C   UNL     1      13.413   4.219   0.573  0.00  0.00    -0.045 A 
ATOM     32  C   UNL     1      12.115   4.605   0.909  0.00  0.00    +0.004 A 
ATOM     33  C   UNL     1      13.654   3.562  -0.634  0.00  0.00    +0.004 A 
ATOM     36  C   UNL     1      11.059   4.334   0.039  0.00  0.00    +0.000 A 
ATOM     37  C   UNL     1      12.598   3.291  -1.504  0.00  0.00    +0.000 A 
ATOM     38  C   UNL     1      11.301   3.678  -1.167  0.00  0.00    +0.000 A 
ENDBRANCH  25  29
ENDBRANCH  22  25
ENDBRANCH  10  22
ENDBRANCH  17  20
BRANCH  15   9
ATOM      9  N   UNL     1      12.473   6.404   7.541  0.00  0.00    -0.185 NA
ATOM     39  H   UNL     1      13.050   5.649   7.929  0.00  0.00    +0.148 HD
BRANCH   9   1
ATOM      1  S   UNL     1      10.782   6.245   7.582  0.00  0.00    +0.077 S 
ATOM      5  O   UNL     1      10.195   7.455   8.124  0.00  0.00    -0.152 OA
ATOM      6  O   UNL     1      10.450   4.953   8.152  0.00  0.00    -0.152 OA
BRANCH   1  24
ATOM     12  N   UNL     1      10.559   5.026   5.121  0.00  0.00    -0.216 NA
ATOM     13  N   UNL     1       9.731   6.645   3.845  0.00  0.00    -0.338 N 
ATOM     24  C   UNL     1      10.382   6.168   5.862  0.00  0.00    +0.211 A 
ATOM     27  C   UNL     1       9.870   7.185   5.092  0.00  0.00    +0.135 A 
ATOM     30  C   UNL     1      10.158   5.348   3.910  0.00  0.00    +0.201 A 
ATOM     34  C   UNL     1       9.229   7.319   2.673  0.00  0.00    +0.150 C 
ENDBRANCH   1  24
ENDBRANCH   9   1
ENDBRANCH  15   9
TORSDOF 9
ENDMDL
MODEL 6
REMARK VINA RESULT:      -6.2     27.966     31.229
REMARK  Name = 44716832
REMARK  11 active torsions:
REMARK  status: ('A' for Active; 'I' for Inactive)
REMARK    1  A    between atoms: S_1  and  N_9
REMARK    2  A    between atoms: S_1  and  C_24
REMARK    3  A    between atoms: N_9  and  C_15
REMARK    4  A    between atoms: N_10  and  C_22
REMARK    5  A    between atoms: N_13  and  C_34
REMARK    6  A    between atoms: C_17  and  C_20
REMARK    7  A    between atoms: C_21  and  C_23
REMARK    8  A    between atoms: C_22  and  C_25
REMARK    9  A    between atoms: C_22  and  C_26
REMARK   10  A    between atoms: C_25  and  C_29
REMARK   11  A    between atoms: C_31  and  C_35
REMARK                            x       y       z     vdW  Elec       q    Type
REMARK                         _______ _______ _______ _____ _____    ______ ____
ROOT
ATOM      4  O   UNL     1      -4.582 -14.352  17.370  0.00  0.00    -0.268 OA
ATOM      8  N   UNL     1      -5.777 -12.768  16.120  0.00  0.00    -0.285 N 
ATOM     15  C   UNL     1      -7.955 -10.842  15.966  0.00  0.00    +0.080 C 
ATOM     16  C   UNL     1      -7.535 -11.646  14.733  0.00  0.00    +0.052 C 
ATOM     17  C   UNL     1      -6.098 -12.162  14.815  0.00  0.00    +0.164 C 
ATOM     18  C   UNL     1      -7.669 -11.628  17.243  0.00  0.00    +0.039 C 
ATOM     19  C   UNL     1      -6.201 -12.026  17.312  0.00  0.00    +0.110 C 
ATOM     21  C   UNL     1      -4.975 -13.906  16.293  0.00  0.00    +0.266 C 
ENDROOT
BRANCH  21  23
ATOM      2  S   UNL     1      -4.466 -16.294  13.172  0.00  0.00    -0.080 S 
ATOM     11  N   UNL     1      -3.393 -14.314  14.440  0.00  0.00    -0.240 NA
ATOM     23  C   UNL     1      -4.559 -14.648  15.098  0.00  0.00    +0.133 A 
ATOM     28  C   UNL     1      -5.277 -15.696  14.559  0.00  0.00    +0.080 A 
ATOM     31  C   UNL     1      -3.241 -15.115  13.410  0.00  0.00    +0.076 A 
ATOM     35  C   UNL     1      -2.104 -15.060  12.466  0.00  0.00    +0.073 C 
ENDBRANCH  21  23
BRANCH  17  20
ATOM      3  O   UNL     1      -5.263  -9.932  14.998  0.00  0.00    -0.274 OA
ATOM     10  N   UNL     1      -4.006 -11.514  13.842  0.00  0.00    -0.302 N 
ATOM     20  C   UNL     1      -5.091 -11.074  14.580  0.00  0.00    +0.234 C 
ATOM     40  H   UNL     1      -3.919 -12.503  13.629  0.00  0.00    +0.150 HD
BRANCH  10  22
ATOM     22  C   UNL     1      -2.908 -10.655  13.461  0.00  0.00    +0.163 C 
BRANCH  22  26
ATOM      7  O   UNL     1      -1.306  -9.704  15.020  0.00  0.00    -0.274 OA
ATOM     14  N   UNL     1      -1.739 -11.958  15.126  0.00  0.00    -0.328 N 
ATOM     26  C   UNL     1      -1.894 -10.696  14.593  0.00  0.00    +0.231 C 
ATOM     41  H   UNL     1      -2.248 -12.764  14.779  0.00  0.00    +0.145 HD
ATOM     42  H   UNL     1      -1.101 -12.122  15.899  0.00  0.00    +0.145 HD
ENDBRANCH  22  26
BRANCH  22  25
ATOM     25  C   UNL     1      -2.258 -11.096  12.144  0.00  0.00    +0.067 C 
BRANCH  25  29
ATOM     29  C   UNL     1      -3.066 -10.702  10.933  0.00  0.00    -0.045 A 
ATOM     32  C   UNL     1      -3.132  -9.364  10.544  0.00  0.00    +0.004 A 
ATOM     33  C   UNL     1      -3.747 -11.675  10.201  0.00  0.00    +0.004 A 
ATOM     36  C   UNL     1      -3.880  -8.998   9.424  0.00  0.00    +0.000 A 
ATOM     37  C   UNL     1      -4.495 -11.310   9.082  0.00  0.00    +0.000 A 
ATOM     38  C   UNL     1      -4.560  -9.972   8.693  0.00  0.00    +0.000 A 
ENDBRANCH  25  29
ENDBRANCH  22  25
ENDBRANCH  10  22
ENDBRANCH  17  20
BRANCH  15   9
ATOM      9  N   UNL     1      -9.406 -10.543  15.890  0.00  0.00    -0.185 NA
ATOM     39  H   UNL     1      -9.934 -11.066  15.180  0.00  0.00    +0.148 HD
BRANCH   9   1
ATOM      1  S   UNL     1      -9.982  -9.024  16.384  0.00  0.00    +0.077 S 
ATOM      5  O   UNL     1     -10.880  -8.496  15.374  0.00  0.00    -0.152 OA
ATOM      6  O   UNL     1      -8.862  -8.230  16.851  0.00  0.00    -0.152 OA
BRANCH   1  24
ATOM     12  N   UNL     1     -10.379  -9.951  18.948  0.00  0.00    -0.216 NA
ATOM     13  N   UNL     1     -12.578  -9.768  19.201  0.00  0.00    -0.338 N 
ATOM     24  C   UNL     1     -10.945  -9.444  17.805  0.00  0.00    +0.211 A 
ATOM     27  C   UNL     1     -12.308  -9.322  17.938  0.00  0.00    +0.135 A 
ATOM     30  C   UNL     1     -11.390 -10.135  19.768  0.00  0.00    +0.201 A 
ATOM     34  C   UNL     1     -13.878  -9.840  19.821  0.00  0.00    +0.150 C 
ENDBRANCH   1  24
ENDBRANCH   9   1
ENDBRANCH  15   9
TORSDOF 9
ENDMDL
MODEL 7
REMARK VINA RESULT:      -6.2     28.659     30.829
REMARK  Name = 44716832
REMARK  11 active torsions:
REMARK  status: ('A' for Active; 'I' for Inactive)
REMARK    1  A    between atoms: S_1  and  N_9
REMARK    2  A    between atoms: S_1  and  C_24
REMARK    3  A    between atoms: N_9  and  C_15
REMARK    4  A    between atoms: N_10  and  C_22
REMARK    5  A    between atoms: N_13  and  C_34
REMARK    6  A    between atoms: C_17  and  C_20
REMARK    7  A    between atoms: C_21  and  C_23
REMARK    8  A    between atoms: C_22  and  C_25
REMARK    9  A    between atoms: C_22  and  C_26
REMARK   10  A    between atoms: C_25  and  C_29
REMARK   11  A    between atoms: C_31  and  C_35
REMARK                            x       y       z     vdW  Elec       q    Type
REMARK                         _______ _______ _______ _____ _____    ______ ____
ROOT
ATOM      4  O   UNL     1      -1.469 -11.764  14.575  0.00  0.00    -0.268 OA
ATOM      8  N   UNL     1      -3.683 -12.039  15.296  0.00  0.00    -0.285 N 
ATOM     15  C   UNL     1      -5.591 -12.175  17.491  0.00  0.00    +0.080 C 
ATOM     16  C   UNL     1      -5.793 -13.015  16.228  0.00  0.00    +0.052 C 
ATOM     17  C   UNL     1      -5.070 -12.445  15.007  0.00  0.00    +0.164 C 
ATOM     18  C   UNL     1      -4.106 -11.920  17.734  0.00  0.00    +0.039 C 
ATOM     19  C   UNL     1      -3.467 -11.260  16.520  0.00  0.00    +0.110 C 
ATOM     21  C   UNL     1      -2.604 -12.212  14.417  0.00  0.00    +0.266 C 
ENDROOT
BRANCH  21  23
ATOM      2  S   UNL     1      -2.904 -14.884  11.506  0.00  0.00    -0.080 S 
ATOM     11  N   UNL     1      -3.394 -12.414  12.085  0.00  0.00    -0.240 NA
ATOM     23  C   UNL     1      -2.823 -12.998  13.198  0.00  0.00    +0.133 A 
ATOM     28  C   UNL     1      -2.490 -14.330  13.075  0.00  0.00    +0.080 A 
ATOM     31  C   UNL     1      -3.486 -13.314  11.132  0.00  0.00    +0.076 A 
ATOM     35  C   UNL     1      -4.047 -13.056   9.788  0.00  0.00    +0.073 C 
ENDBRANCH  21  23
BRANCH  17  20
ATOM      3  O   UNL     1      -5.700 -10.141  14.987  0.00  0.00    -0.274 OA
ATOM     10  N   UNL     1      -6.490 -11.539  13.302  0.00  0.00    -0.302 N 
ATOM     20  C   UNL     1      -5.770 -11.241  14.446  0.00  0.00    +0.234 C 
ATOM     40  H   UNL     1      -6.402 -12.462  12.886  0.00  0.00    +0.150 HD
BRANCH  10  22
ATOM     22  C   UNL     1      -7.271 -10.560  12.582  0.00  0.00    +0.163 C 
BRANCH  22  26
ATOM      7  O   UNL     1      -9.401 -11.075  13.631  0.00  0.00    -0.274 OA
ATOM     14  N   UNL     1      -8.482  -8.997  13.970  0.00  0.00    -0.328 N 
ATOM     26  C   UNL     1      -8.503 -10.262  13.423  0.00  0.00    +0.231 C 
ATOM     41  H   UNL     1      -7.723  -8.344  13.808  0.00  0.00    +0.145 HD
ATOM     42  H   UNL     1      -9.239  -8.675  14.565  0.00  0.00    +0.145 HD
ENDBRANCH  22  26
BRANCH  22  25
ATOM     25  C   UNL     1      -6.481  -9.272  12.316  0.00  0.00    +0.067 C 
BRANCH  25  29
ATOM     29  C   UNL     1      -5.716  -9.314  11.017  0.00  0.00    -0.045 A 
ATOM     32  C   UNL     1      -4.323  -9.229  11.025  0.00  0.00    +0.004 A 
ATOM     33  C   UNL     1      -6.399  -9.438   9.807  0.00  0.00    +0.004 A 
ATOM     36  C   UNL     1      -3.614  -9.267   9.824  0.00  0.00    +0.000 A 
ATOM     37  C   UNL     1      -5.691  -9.476   8.606  0.00  0.00    +0.000 A 
ATOM     38  C   UNL     1      -4.299  -9.390   8.615  0.00  0.00    +0.000 A 
ENDBRANCH  25  29
ENDBRANCH  22  25
ENDBRANCH  10  22
ENDBRANCH  17  20
BRANCH  15   9
ATOM      9  N   UNL     1      -6.161 -12.892  18.657  0.00  0.00    -0.185 NA
ATOM     39  H   UNL     1      -6.277 -13.907  18.546  0.00  0.00    +0.148 HD
BRANCH   9   1
ATOM      1  S   UNL     1      -7.176 -12.068  19.741  0.00  0.00    +0.077 S 
ATOM      5  O   UNL     1      -6.372 -11.246  20.626  0.00  0.00    -0.152 OA
ATOM      6  O   UNL     1      -8.134 -13.008  20.290  0.00  0.00    -0.152 OA
BRANCH   1  24
ATOM     12  N   UNL     1      -7.540  -9.809  18.206  0.00  0.00    -0.216 NA
ATOM     13  N   UNL     1      -9.583 -10.100  17.382  0.00  0.00    -0.338 N 
ATOM     24  C   UNL     1      -8.068 -10.992  18.659  0.00  0.00    +0.211 A 
ATOM     27  C   UNL     1      -9.334 -11.194  18.162  0.00  0.00    +0.135 A 
ATOM     30  C   UNL     1      -8.478  -9.297  17.439  0.00  0.00    +0.201 A 
ATOM     34  C   UNL     1     -10.789  -9.839  16.636  0.00  0.00    +0.150 C 
ENDBRANCH   1  24
ENDBRANCH   9   1
ENDBRANCH  15   9
TORSDOF 9
ENDMDL
MODEL 8
REMARK VINA RESULT:      -6.1     27.795     31.179
REMARK  Name = 44716832
REMARK  11 active torsions:
REMARK  status: ('A' for Active; 'I' for Inactive)
REMARK    1  A    between atoms: S_1  and  N_9
REMARK    2  A    between atoms: S_1  and  C_24
REMARK    3  A    between atoms: N_9  and  C_15
REMARK    4  A    between atoms: N_10  and  C_22
REMARK    5  A    between atoms: N_13  and  C_34
REMARK    6  A    between atoms: C_17  and  C_20
REMARK    7  A    between atoms: C_21  and  C_23
REMARK    8  A    between atoms: C_22  and  C_25
REMARK    9  A    between atoms: C_22  and  C_26
REMARK   10  A    between atoms: C_25  and  C_29
REMARK   11  A    between atoms: C_31  and  C_35
REMARK                            x       y       z     vdW  Elec       q    Type
REMARK                         _______ _______ _______ _____ _____    ______ ____
ROOT
ATOM      4  O   UNL     1      -6.201 -12.865   9.971  0.00  0.00    -0.268 OA
ATOM      8  N   UNL     1      -6.990 -11.752  11.878  0.00  0.00    -0.285 N 
ATOM     15  C   UNL     1      -9.183 -11.194  13.710  0.00  0.00    +0.080 C 
ATOM     16  C   UNL     1      -8.137 -10.122  13.394  0.00  0.00    +0.052 C 
ATOM     17  C   UNL     1      -6.813 -10.703  12.899  0.00  0.00    +0.164 C 
ATOM     18  C   UNL     1      -9.347 -12.148  12.530  0.00  0.00    +0.039 C 
ATOM     19  C   UNL     1      -8.010 -12.770  12.150  0.00  0.00    +0.110 C 
ATOM     21  C   UNL     1      -6.159 -11.924  10.761  0.00  0.00    +0.266 C 
ENDROOT
BRANCH  21  23
ATOM      2  S   UNL     1      -3.919  -8.877   9.573  0.00  0.00    -0.080 S 
ATOM     11  N   UNL     1      -3.921 -10.942  11.128  0.00  0.00    -0.240 NA
ATOM     23  C   UNL     1      -5.144 -10.899  10.490  0.00  0.00    +0.133 A 
ATOM     28  C   UNL     1      -5.329  -9.853   9.610  0.00  0.00    +0.080 A 
ATOM     31  C   UNL     1      -3.194  -9.926  10.722  0.00  0.00    +0.076 A 
ATOM     35  C   UNL     1      -1.819  -9.641  11.188  0.00  0.00    +0.073 C 
ENDBRANCH  21  23
BRANCH  17  20
ATOM      3  O   UNL     1      -6.450 -12.221  14.708  0.00  0.00    -0.274 OA
ATOM     10  N   UNL     1      -4.770 -10.709  14.152  0.00  0.00    -0.302 N 
ATOM     20  C   UNL     1      -6.010 -11.310  14.012  0.00  0.00    +0.234 C 
ATOM     40  H   UNL     1      -4.468 -10.028  13.462  0.00  0.00    +0.150 HD
BRANCH  10  22
ATOM     22  C   UNL     1      -3.815 -11.094  15.165  0.00  0.00    +0.163 C 
BRANCH  22  26
ATOM      7  O   UNL     1      -2.043 -11.995  13.767  0.00  0.00    -0.274 OA
ATOM     14  N   UNL     1      -1.710  -9.967  14.793  0.00  0.00    -0.328 N 
ATOM     26  C   UNL     1      -2.442 -11.100  14.508  0.00  0.00    +0.231 C 
ATOM     41  H   UNL     1      -2.061  -9.225  15.389  0.00  0.00    +0.145 HD
ATOM     42  H   UNL     1      -0.780  -9.837  14.406  0.00  0.00    +0.145 HD
ENDBRANCH  22  26
BRANCH  22  25
ATOM     25  C   UNL     1      -3.828 -10.141  16.366  0.00  0.00    +0.067 C 
BRANCH  25  29
ATOM     29  C   UNL     1      -4.676 -10.649  17.506  0.00  0.00    -0.045 A 
ATOM     32  C   UNL     1      -4.138 -11.550  18.426  0.00  0.00    +0.004 A 
ATOM     33  C   UNL     1      -5.995 -10.219  17.641  0.00  0.00    +0.004 A 
ATOM     36  C   UNL     1      -4.921 -12.022  19.480  0.00  0.00    +0.000 A 
ATOM     37  C   UNL     1      -6.779 -10.690  18.694  0.00  0.00    +0.000 A 
ATOM     38  C   UNL     1      -6.241 -11.591  19.614  0.00  0.00    +0.000 A 
ENDBRANCH  25  29
ENDBRANCH  22  25
ENDBRANCH  10  22
ENDBRANCH  17  20
BRANCH  15   9
ATOM      9  N   UNL     1     -10.484 -10.545  13.999  0.00  0.00    -0.185 NA
ATOM     39  H   UNL     1     -10.940 -10.081  13.204  0.00  0.00    +0.148 HD
BRANCH   9   1
ATOM      1  S   UNL     1     -10.822  -9.993  15.570  0.00  0.00    +0.077 S 
ATOM      5  O   UNL     1      -9.667 -10.216  16.419  0.00  0.00    -0.152 OA
ATOM      6  O   UNL     1     -12.126 -10.488  15.967  0.00  0.00    -0.152 OA
BRANCH   1  24
ATOM     12  N   UNL     1     -10.204  -7.341  15.983  0.00  0.00    -0.216 NA
ATOM     13  N   UNL     1     -11.613  -6.291  14.624  0.00  0.00    -0.338 N 
ATOM     24  C   UNL     1     -10.985  -8.252  15.317  0.00  0.00    +0.211 A 
ATOM     27  C   UNL     1     -11.867  -7.624  14.469  0.00  0.00    +0.135 A 
ATOM     30  C   UNL     1     -10.607  -6.169  15.542  0.00  0.00    +0.201 A 
ATOM     34  C   UNL     1     -12.282  -5.209  13.944  0.00  0.00    +0.150 C 
ENDBRANCH   1  24
ENDBRANCH   9   1
ENDBRANCH  15   9
TORSDOF 9
ENDMDL
MODEL 9
REMARK VINA RESULT:      -6.1     15.246     18.600
REMARK  Name = 44716832
REMARK  11 active torsions:
REMARK  status: ('A' for Active; 'I' for Inactive)
REMARK    1  A    between atoms: S_1  and  N_9
REMARK    2  A    between atoms: S_1  and  C_24
REMARK    3  A    between atoms: N_9  and  C_15
REMARK    4  A    between atoms: N_10  and  C_22
REMARK    5  A    between atoms: N_13  and  C_34
REMARK    6  A    between atoms: C_17  and  C_20
REMARK    7  A    between atoms: C_21  and  C_23
REMARK    8  A    between atoms: C_22  and  C_25
REMARK    9  A    between atoms: C_22  and  C_26
REMARK   10  A    between atoms: C_25  and  C_29
REMARK   11  A    between atoms: C_31  and  C_35
REMARK                            x       y       z     vdW  Elec       q    Type
REMARK                         _______ _______ _______ _____ _____    ______ ____
ROOT
ATOM      4  O   UNL     1      17.300  10.890   4.000  0.00  0.00    -0.268 OA
ATOM      8  N   UNL     1      15.999   8.985   4.417  0.00  0.00    -0.285 N 
ATOM     15  C   UNL     1      13.734   7.762   5.778  0.00  0.00    +0.080 C 
ATOM     16  C   UNL     1      15.005   6.956   5.497  0.00  0.00    +0.052 C 
ATOM     17  C   UNL     1      15.832   7.522   4.342  0.00  0.00    +0.164 C 
ATOM     18  C   UNL     1      14.063   9.243   5.942  0.00  0.00    +0.039 C 
ATOM     19  C   UNL     1      14.797   9.771   4.717  0.00  0.00    +0.110 C 
ATOM     21  C   UNL     1      17.175   9.669   4.076  0.00  0.00    +0.266 C 
ENDROOT
BRANCH  21  23
ATOM      2  S   UNL     1      20.278   7.703   2.589  0.00  0.00    -0.080 S 
ATOM     11  N   UNL     1      19.091   8.293   4.808  0.00  0.00    -0.240 NA
ATOM     23  C   UNL     1      18.376   8.879   3.784  0.00  0.00    +0.133 A 
ATOM     28  C   UNL     1      18.865   8.672   2.511  0.00  0.00    +0.080 A 
ATOM     31  C   UNL     1      20.115   7.647   4.296  0.00  0.00    +0.076 A 
ATOM     35  C   UNL     1      21.109   6.892   5.089  0.00  0.00    +0.073 C 
ENDBRANCH  21  23
BRANCH  17  20
ATOM      3  O   UNL     1      15.073   8.089   2.149  0.00  0.00    -0.274 OA
ATOM     10  N   UNL     1      14.835   5.895   2.892  0.00  0.00    -0.302 N 
ATOM     20  C   UNL     1      15.218   7.221   3.006  0.00  0.00    +0.234 C 
ATOM     40  H   UNL     1      15.088   5.241   3.626  0.00  0.00    +0.150 HD
BRANCH  10  22
ATOM     22  C   UNL     1      14.199   5.355   1.713  0.00  0.00    +0.163 C 
BRANCH  22  26
ATOM      7  O   UNL     1      15.391   4.005   0.082  0.00  0.00    -0.274 OA
ATOM     14  N   UNL     1      15.418   3.349   2.284  0.00  0.00    -0.328 N 
ATOM     26  C   UNL     1      15.042   4.178   1.248  0.00  0.00    +0.231 C 
ATOM     41  H   UNL     1      15.141   3.516   3.245  0.00  0.00    +0.145 HD
ATOM     42  H   UNL     1      15.995   2.531   2.113  0.00  0.00    +0.145 HD
ENDBRANCH  22  26
BRANCH  22  25
ATOM     25  C   UNL     1      12.759   4.907   1.985  0.00  0.00    +0.067 C 
BRANCH  25  29
ATOM     29  C   UNL     1      11.743   5.976   1.667  0.00  0.00    -0.045 A 
ATOM     32  C   UNL     1      10.516   5.991   2.331  0.00  0.00    +0.004 A 
ATOM     33  C   UNL     1      12.031   6.950   0.711  0.00  0.00    +0.004 A 
ATOM     36  C   UNL     1       9.576   6.979   2.037  0.00  0.00    +0.000 A 
ATOM     37  C   UNL     1      11.092   7.938   0.417  0.00  0.00    +0.000 A 
ATOM     38  C   UNL     1       9.864   7.953   1.080  0.00  0.00    +0.000 A 
ENDBRANCH  25  29
ENDBRANCH  22  25
ENDBRANCH  10  22
ENDBRANCH  17  20
BRANCH  15   9
ATOM      9  N   UNL     1      13.097   7.261   7.020  0.00  0.00    -0.185 NA
ATOM     39  H   UNL     1      13.739   6.963   7.764  0.00  0.00    +0.148 HD
BRANCH   9   1
ATOM      1  S   UNL     1      11.546   6.572   6.954  0.00  0.00    +0.077 S 
ATOM      5  O   UNL     1      11.302   5.814   8.166  0.00  0.00    -0.152 OA
ATOM      6  O   UNL     1      11.367   5.951   5.655  0.00  0.00    -0.152 OA
BRANCH   1  24
ATOM     12  N   UNL     1       9.350   8.084   6.259  0.00  0.00    -0.216 NA
ATOM     13  N   UNL     1       9.659   9.958   7.412  0.00  0.00    -0.338 N 
ATOM     24  C   UNL     1      10.509   8.004   6.989  0.00  0.00    +0.211 A 
ATOM     27  C   UNL     1      10.722   9.154   7.711  0.00  0.00    +0.135 A 
ATOM     30  C   UNL     1       8.862   9.274   6.537  0.00  0.00    +0.201 A 
ATOM     34  C   UNL     1       9.420  11.284   7.924  0.00  0.00    +0.150 C 
ENDBRANCH   1  24
ENDBRANCH   9   1
ENDBRANCH  15   9
TORSDOF 9
ENDMDL
MODEL 10
REMARK VINA RESULT:      -6.0     28.201     31.203
REMARK  Name = 44716832
REMARK  11 active torsions:
REMARK  status: ('A' for Active; 'I' for Inactive)
REMARK    1  A    between atoms: S_1  and  N_9
REMARK    2  A    between atoms: S_1  and  C_24
REMARK    3  A    between atoms: N_9  and  C_15
REMARK    4  A    between atoms: N_10  and  C_22
REMARK    5  A    between atoms: N_13  and  C_34
REMARK    6  A    between atoms: C_17  and  C_20
REMARK    7  A    between atoms: C_21  and  C_23
REMARK    8  A    between atoms: C_22  and  C_25
REMARK    9  A    between atoms: C_22  and  C_26
REMARK   10  A    between atoms: C_25  and  C_29
REMARK   11  A    between atoms: C_31  and  C_35
REMARK                            x       y       z     vdW  Elec       q    Type
REMARK                         _______ _______ _______ _____ _____    ______ ____
ROOT
ATOM      4  O   UNL     1      -3.459 -12.688  11.553  0.00  0.00    -0.268 OA
ATOM      8  N   UNL     1      -4.815 -10.782  11.411  0.00  0.00    -0.285 N 
ATOM     15  C   UNL     1      -6.340  -8.923   9.768  0.00  0.00    +0.080 C 
ATOM     16  C   UNL     1      -5.622  -8.441  11.031  0.00  0.00    +0.052 C 
ATOM     17  C   UNL     1      -5.359  -9.562  12.037  0.00  0.00    +0.164 C 
ATOM     18  C   UNL     1      -5.613 -10.120   9.161  0.00  0.00    +0.039 C 
ATOM     19  C   UNL     1      -5.472 -11.240  10.183  0.00  0.00    +0.110 C 
ATOM     21  C   UNL     1      -3.832 -11.600  11.986  0.00  0.00    +0.266 C 
ENDROOT
BRANCH  21  23
ATOM      2  S   UNL     1      -1.538 -10.087  14.842  0.00  0.00    -0.080 S 
ATOM     11  N   UNL     1      -3.754 -11.356  14.444  0.00  0.00    -0.240 NA
ATOM     23  C   UNL     1      -3.173 -11.134  13.212  0.00  0.00    +0.133 A 
ATOM     28  C   UNL     1      -1.970 -10.460  13.225  0.00  0.00    +0.080 A 
ATOM     31  C   UNL     1      -2.981 -10.848  15.377  0.00  0.00    +0.076 A 
ATOM     35  C   UNL     1      -3.275 -10.894  16.825  0.00  0.00    +0.073 C 
ENDBRANCH  21  23
BRANCH  17  20
ATOM      3  O   UNL     1      -7.626 -10.300  12.178  0.00  0.00    -0.274 OA
ATOM     10  N   UNL     1      -6.450  -9.890  14.145  0.00  0.00    -0.302 N 
ATOM     20  C   UNL     1      -6.604  -9.966  12.771  0.00  0.00    +0.234 C 
ATOM     40  H   UNL     1      -5.532  -9.694  14.532  0.00  0.00    +0.150 HD
BRANCH  10  22
ATOM     22  C   UNL     1      -7.508 -10.205  15.077  0.00  0.00    +0.163 C 
BRANCH  22  26
ATOM      7  O   UNL     1      -8.526 -12.392  14.787  0.00  0.00    -0.274 OA
ATOM     14  N   UNL     1      -6.434 -12.269  15.728  0.00  0.00    -0.328 N 
ATOM     26  C   UNL     1      -7.576 -11.721  15.184  0.00  0.00    +0.231 C 
ATOM     41  H   UNL     1      -5.647 -11.703  16.030  0.00  0.00    +0.145 HD
ATOM     42  H   UNL     1      -6.342 -13.273  15.843  0.00  0.00    +0.145 HD
ENDBRANCH  22  26
BRANCH  22  25
ATOM     25  C   UNL     1      -7.268  -9.582  16.458  0.00  0.00    +0.067 C 
BRANCH  25  29
ATOM     29  C   UNL     1      -8.467  -9.694  17.366  0.00  0.00    -0.045 A 
ATOM     32  C   UNL     1      -9.593  -8.903  17.135  0.00  0.00    +0.004 A 
ATOM     33  C   UNL     1      -8.451 -10.588  18.436  0.00  0.00    +0.004 A 
ATOM     36  C   UNL     1     -10.702  -9.006  17.975  0.00  0.00    +0.000 A 
ATOM     37  C   UNL     1      -9.560 -10.691  19.276  0.00  0.00    +0.000 A 
ATOM     38  C   UNL     1     -10.685  -9.900  19.045  0.00  0.00    +0.000 A 
ENDBRANCH  25  29
ENDBRANCH  22  25
ENDBRANCH  10  22
ENDBRANCH  17  20
BRANCH  15   9
ATOM      9  N   UNL     1      -6.386  -7.822   8.775  0.00  0.00    -0.185 NA
ATOM     39  H   UNL     1      -5.567  -7.202   8.756  0.00  0.00    +0.148 HD
BRANCH   9   1
ATOM      1  S   UNL     1      -7.884  -7.213   8.259  0.00  0.00    +0.077 S 
ATOM      5  O   UNL     1      -7.830  -5.764   8.221  0.00  0.00    -0.152 OA
ATOM      6  O   UNL     1      -8.939  -7.885   8.994  0.00  0.00    -0.152 OA
BRANCH   1  24
ATOM     12  N   UNL     1      -7.136  -8.792   6.129  0.00  0.00    -0.216 NA
ATOM     13  N   UNL     1      -8.493  -8.107   4.510  0.00  0.00    -0.338 N 
ATOM     24  C   UNL     1      -7.962  -7.799   6.593  0.00  0.00    +0.211 A 
ATOM     27  C   UNL     1      -8.812  -7.358   5.607  0.00  0.00    +0.135 A 
ATOM     30  C   UNL     1      -7.483  -8.954   4.870  0.00  0.00    +0.201 A 
ATOM     34  C   UNL     1      -9.109  -8.021   3.208  0.00  0.00    +0.150 C 
ENDBRANCH   1  24
ENDBRANCH   9   1
ENDBRANCH  15   9
TORSDOF 9
ENDMDL
