MODEL 1
REMARK VINA RESULT:      -5.9      0.000      0.000
REMARK  Name = 56775230
REMARK  5 active torsions:
REMARK  status: ('A' for Active; 'I' for Inactive)
REMARK    1  A    between atoms: O_4  and  C_23
REMARK    2  A    between atoms: O_4  and  C_24
REMARK    3  A    between atoms: N_5  and  C_11
REMARK    4  A    between atoms: C_7  and  C_11
REMARK    5  A    between atoms: C_17  and  C_18
REMARK                            x       y       z     vdW  Elec       q    Type
REMARK                         _______ _______ _______ _____ _____    ______ ____
ROOT
ATOM      1  O   UNL     1       9.352   9.522   4.974  0.00  0.00    -0.364 OA
ATOM      2  O   UNL     1      10.878   9.352   8.185  0.00  0.00    -0.273 OA
ATOM      3  O   UNL     1       9.390   6.774   1.036  0.00  0.00    -0.270 OA
ATOM      5  N   UNL     1       9.973   7.627   6.911  0.00  0.00    -0.292 N 
ATOM      6  N   UNL     1       9.657   7.032   3.329  0.00  0.00    -0.293 N 
ATOM      8  C   UNL     1       9.340   7.217   5.665  0.00  0.00    +0.124 C 
ATOM     12  C   UNL     1       8.566   8.333   4.968  0.00  0.00    +0.158 C 
ATOM     13  C   UNL     1      10.349   6.790   4.594  0.00  0.00    +0.133 C 
ATOM     14  C   UNL     1       8.456   7.834   3.533  0.00  0.00    +0.141 C 
ATOM     15  C   UNL     1      10.229   8.963   7.212  0.00  0.00    +0.242 C 
ATOM     16  C   UNL     1       9.566   9.973   6.293  0.00  0.00    +0.256 C 
ATOM     17  C   UNL     1      10.001   6.544   2.078  0.00  0.00    +0.247 C 
ENDROOT
BRANCH  17  18
ATOM     18  C   UNL     1      11.183   5.671   1.990  0.00  0.00    +0.037 A 
ATOM     19  C   UNL     1      12.447   6.226   1.795  0.00  0.00    +0.016 A 
ATOM     20  C   UNL     1      11.038   4.287   2.100  0.00  0.00    +0.016 A 
ATOM     21  C   UNL     1      13.567   5.399   1.711  0.00  0.00    +0.046 A 
ATOM     22  C   UNL     1      12.157   3.461   2.015  0.00  0.00    +0.046 A 
ATOM     23  C   UNL     1      13.421   4.015   1.820  0.00  0.00    +0.120 A 
BRANCH  23   4
ATOM      4  O   UNL     1      14.514   3.208   1.737  0.00  0.00    -0.495 OA
ATOM     24  C   UNL     1      15.568   3.631   0.873  0.00  0.00    +0.277 C 
ENDBRANCH  23   4
ENDBRANCH  17  18
BRANCH   5  11
ATOM     11  C   UNL     1      10.484   6.569   7.771  0.00  0.00    +0.111 C 
BRANCH  11   7
ATOM      7  C   UNL     1       9.416   5.586   8.109  0.00  0.00    +0.006 C 
ATOM      9  C   UNL     1       9.786   4.148   8.328  0.00  0.00    +0.005 C 
ATOM     10  C   UNL     1       9.367   5.001   9.490  0.00  0.00    +0.005 C 
ENDBRANCH  11   7
ENDBRANCH   5  11
TORSDOF 4
ENDMDL
MODEL 2
REMARK VINA RESULT:      -5.8     22.678     25.063
REMARK  Name = 56775230
REMARK  5 active torsions:
REMARK  status: ('A' for Active; 'I' for Inactive)
REMARK    1  A    between atoms: O_4  and  C_23
REMARK    2  A    between atoms: O_4  and  C_24
REMARK    3  A    between atoms: N_5  and  C_11
REMARK    4  A    between atoms: C_7  and  C_11
REMARK    5  A    between atoms: C_17  and  C_18
REMARK                            x       y       z     vdW  Elec       q    Type
REMARK                         _______ _______ _______ _____ _____    ______ ____
ROOT
ATOM      1  O   UNL     1      -3.696 -12.504  15.548  0.00  0.00    -0.364 OA
ATOM      2  O   UNL     1      -7.137 -12.867  16.382  0.00  0.00    -0.273 OA
ATOM      3  O   UNL     1      -1.263 -10.433  11.963  0.00  0.00    -0.270 OA
ATOM      5  N   UNL     1      -6.046 -11.020  15.478  0.00  0.00    -0.292 N 
ATOM      6  N   UNL     1      -3.170 -10.617  13.276  0.00  0.00    -0.293 N 
ATOM      8  C   UNL     1      -4.805 -10.447  14.975  0.00  0.00    +0.124 C 
ATOM     12  C   UNL     1      -3.548 -11.087  15.558  0.00  0.00    +0.158 C 
ATOM     13  C   UNL     1      -4.619 -10.652  13.468  0.00  0.00    +0.133 C 
ATOM     14  C   UNL     1      -2.469 -10.707  14.552  0.00  0.00    +0.141 C 
ATOM     15  C   UNL     1      -6.099 -12.282  16.065  0.00  0.00    +0.242 C 
ATOM     16  C   UNL     1      -4.752 -12.902  16.392  0.00  0.00    +0.256 C 
ATOM     17  C   UNL     1      -2.487 -10.456  12.080  0.00  0.00    +0.247 C 
ENDROOT
BRANCH  17  18
ATOM     18  C   UNL     1      -3.287 -10.287  10.857  0.00  0.00    +0.037 A 
ATOM     19  C   UNL     1      -3.794 -11.404  10.195  0.00  0.00    +0.016 A 
ATOM     20  C   UNL     1      -3.536  -9.007  10.358  0.00  0.00    +0.016 A 
ATOM     21  C   UNL     1      -4.552 -11.243   9.034  0.00  0.00    +0.046 A 
ATOM     22  C   UNL     1      -4.293  -8.847   9.199  0.00  0.00    +0.046 A 
ATOM     23  C   UNL     1      -4.800  -9.964   8.536  0.00  0.00    +0.120 A 
BRANCH  23   4
ATOM      4  O   UNL     1      -5.539  -9.808   7.404  0.00  0.00    -0.495 OA
ATOM     24  C   UNL     1      -5.391 -10.801   6.391  0.00  0.00    +0.277 C 
ENDBRANCH  23   4
ENDBRANCH  17  18
BRANCH   5  11
ATOM     11  C   UNL     1      -7.273 -10.290  15.195  0.00  0.00    +0.111 C 
BRANCH  11   7
ATOM      7  C   UNL     1      -7.570  -9.298  16.267  0.00  0.00    +0.006 C 
ATOM      9  C   UNL     1      -8.977  -8.805  16.442  0.00  0.00    +0.005 C 
ATOM     10  C   UNL     1      -8.371  -9.725  17.461  0.00  0.00    +0.005 C 
ENDBRANCH  11   7
ENDBRANCH   5  11
TORSDOF 4
ENDMDL
MODEL 3
REMARK VINA RESULT:      -5.6      1.893      6.808
REMARK  Name = 56775230
REMARK  5 active torsions:
REMARK  status: ('A' for Active; 'I' for Inactive)
REMARK    1  A    between atoms: O_4  and  C_23
REMARK    2  A    between atoms: O_4  and  C_24
REMARK    3  A    between atoms: N_5  and  C_11
REMARK    4  A    between atoms: C_7  and  C_11
REMARK    5  A    between atoms: C_17  and  C_18
REMARK                            x       y       z     vdW  Elec       q    Type
REMARK                         _______ _______ _______ _____ _____    ______ ____
ROOT
ATOM      1  O   UNL     1      10.020   7.171   1.010  0.00  0.00    -0.364 OA
ATOM      2  O   UNL     1      10.385   3.809  -0.100  0.00  0.00    -0.273 OA
ATOM      3  O   UNL     1      10.537   9.445   5.208  0.00  0.00    -0.270 OA
ATOM      5  N   UNL     1      11.699   4.992   1.413  0.00  0.00    -0.292 N 
ATOM      6  N   UNL     1      11.020   7.666   3.794  0.00  0.00    -0.293 N 
ATOM      8  C   UNL     1      11.922   6.231   2.146  0.00  0.00    +0.124 C 
ATOM     12  C   UNL     1      11.338   7.466   1.465  0.00  0.00    +0.158 C 
ATOM     13  C   UNL     1      11.235   6.247   3.515  0.00  0.00    +0.133 C 
ATOM     14  C   UNL     1      11.242   8.476   2.601  0.00  0.00    +0.141 C 
ATOM     15  C   UNL     1      10.701   4.866   0.450  0.00  0.00    +0.242 C 
ATOM     16  C   UNL     1      10.046   6.166   0.021  0.00  0.00    +0.256 C 
ATOM     17  C   UNL     1      10.710   8.242   5.017  0.00  0.00    +0.247 C 
ENDROOT
BRANCH  17  18
ATOM     18  C   UNL     1      10.592   7.349   6.180  0.00  0.00    +0.037 A 
ATOM     19  C   UNL     1       9.337   6.909   6.597  0.00  0.00    +0.016 A 
ATOM     20  C   UNL     1      11.737   6.943   6.867  0.00  0.00    +0.016 A 
ATOM     21  C   UNL     1       9.225   6.063   7.700  0.00  0.00    +0.046 A 
ATOM     22  C   UNL     1      11.625   6.098   7.970  0.00  0.00    +0.046 A 
ATOM     23  C   UNL     1      10.370   5.658   8.387  0.00  0.00    +0.120 A 
BRANCH  23   4
ATOM      4  O   UNL     1      10.260   4.833   9.464  0.00  0.00    -0.495 OA
ATOM     24  C   UNL     1       8.965   4.697  10.047  0.00  0.00    +0.277 C 
ENDBRANCH  23   4
ENDBRANCH  17  18
BRANCH   5  11
ATOM     11  C   UNL     1      12.458   3.826   1.842  0.00  0.00    +0.111 C 
BRANCH  11   7
ATOM      7  C   UNL     1      13.656   3.615   0.981  0.00  0.00    +0.006 C 
ATOM      9  C   UNL     1      14.664   4.718   0.844  0.00  0.00    +0.005 C 
ATOM     10  C   UNL     1      15.006   3.480   1.621  0.00  0.00    +0.005 C 
ENDBRANCH  11   7
ENDBRANCH   5  11
TORSDOF 4
ENDMDL
MODEL 4
REMARK VINA RESULT:      -5.5      3.711      4.734
REMARK  Name = 56775230
REMARK  5 active torsions:
REMARK  status: ('A' for Active; 'I' for Inactive)
REMARK    1  A    between atoms: O_4  and  C_23
REMARK    2  A    between atoms: O_4  and  C_24
REMARK    3  A    between atoms: N_5  and  C_11
REMARK    4  A    between atoms: C_7  and  C_11
REMARK    5  A    between atoms: C_17  and  C_18
REMARK                            x       y       z     vdW  Elec       q    Type
REMARK                         _______ _______ _______ _____ _____    ______ ____
ROOT
ATOM      1  O   UNL     1       9.467   6.860   3.951  0.00  0.00    -0.364 OA
ATOM      2  O   UNL     1       7.793   7.701   6.976  0.00  0.00    -0.273 OA
ATOM      3  O   UNL     1      14.035   6.879   2.469  0.00  0.00    -0.270 OA
ATOM      5  N   UNL     1       9.835   6.620   6.696  0.00  0.00    -0.292 N 
ATOM      6  N   UNL     1      12.458   6.797   4.172  0.00  0.00    -0.293 N 
ATOM      8  C   UNL     1      10.855   6.132   5.778  0.00  0.00    +0.124 C 
ATOM     12  C   UNL     1      10.326   5.807   4.383  0.00  0.00    +0.158 C 
ATOM     13  C   UNL     1      11.945   7.169   5.490  0.00  0.00    +0.133 C 
ATOM     14  C   UNL     1      11.584   5.826   3.523  0.00  0.00    +0.141 C 
ATOM     15  C   UNL     1       8.627   7.155   6.253  0.00  0.00    +0.242 C 
ATOM     16  C   UNL     1       8.330   6.947   4.778  0.00  0.00    +0.256 C 
ATOM     17  C   UNL     1      13.640   7.218   3.584  0.00  0.00    +0.247 C 
ENDROOT
BRANCH  17  18
ATOM     18  C   UNL     1      14.498   8.131   4.356  0.00  0.00    +0.037 A 
ATOM     19  C   UNL     1      14.387   9.509   4.179  0.00  0.00    +0.016 A 
ATOM     20  C   UNL     1      15.424   7.617   5.264  0.00  0.00    +0.016 A 
ATOM     21  C   UNL     1      15.200  10.375   4.910  0.00  0.00    +0.046 A 
ATOM     22  C   UNL     1      16.237   8.482   5.995  0.00  0.00    +0.046 A 
ATOM     23  C   UNL     1      16.126   9.861   5.818  0.00  0.00    +0.120 A 
BRANCH  23   4
ATOM      4  O   UNL     1      16.920  10.705   6.531  0.00  0.00    -0.495 OA
ATOM     24  C   UNL     1      18.031  11.283   5.847  0.00  0.00    +0.277 C 
ENDBRANCH  23   4
ENDBRANCH  17  18
BRANCH   5  11
ATOM     11  C   UNL     1      10.192   6.682   8.106  0.00  0.00    +0.111 C 
BRANCH  11   7
ATOM      7  C   UNL     1      10.444   5.321   8.659  0.00  0.00    +0.006 C 
ATOM      9  C   UNL     1       9.489   4.750   9.665  0.00  0.00    +0.005 C 
ATOM     10  C   UNL     1       9.536   4.192   8.272  0.00  0.00    +0.005 C 
ENDBRANCH  11   7
ENDBRANCH   5  11
TORSDOF 4
ENDMDL
MODEL 5
REMARK VINA RESULT:      -5.5     25.901     28.748
REMARK  Name = 56775230
REMARK  5 active torsions:
REMARK  status: ('A' for Active; 'I' for Inactive)
REMARK    1  A    between atoms: O_4  and  C_23
REMARK    2  A    between atoms: O_4  and  C_24
REMARK    3  A    between atoms: N_5  and  C_11
REMARK    4  A    between atoms: C_7  and  C_11
REMARK    5  A    between atoms: C_17  and  C_18
REMARK                            x       y       z     vdW  Elec       q    Type
REMARK                         _______ _______ _______ _____ _____    ______ ____
ROOT
ATOM      1  O   UNL     1     -11.344 -11.287  18.152  0.00  0.00    -0.364 OA
ATOM      2  O   UNL     1     -12.468  -9.915  15.067  0.00  0.00    -0.273 OA
ATOM      3  O   UNL     1      -7.060 -11.989  20.205  0.00  0.00    -0.270 OA
ATOM      5  N   UNL     1     -10.737  -9.183  16.438  0.00  0.00    -0.292 N 
ATOM      6  N   UNL     1      -8.424 -10.866  18.698  0.00  0.00    -0.293 N 
ATOM      8  C   UNL     1      -9.946  -9.395  17.644  0.00  0.00    +0.124 C 
ATOM     12  C   UNL     1     -10.679 -10.169  18.736  0.00  0.00    +0.158 C 
ATOM     13  C   UNL     1      -8.703 -10.256  17.399  0.00  0.00    +0.133 C 
ATOM     14  C   UNL     1      -9.546 -10.686  19.614  0.00  0.00    +0.141 C 
ATOM     15  C   UNL     1     -11.849  -9.963  16.131  0.00  0.00    +0.242 C 
ATOM     16  C   UNL     1     -12.341 -10.860  17.253  0.00  0.00    +0.256 C 
ATOM     17  C   UNL     1      -7.252 -11.488  19.098  0.00  0.00    +0.247 C 
ENDROOT
BRANCH  17  18
ATOM     18  C   UNL     1      -6.145 -11.542  18.130  0.00  0.00    +0.037 A 
ATOM     19  C   UNL     1      -5.920 -12.704  17.393  0.00  0.00    +0.016 A 
ATOM     20  C   UNL     1      -5.321 -10.431  17.950  0.00  0.00    +0.016 A 
ATOM     21  C   UNL     1      -4.870 -12.756  16.476  0.00  0.00    +0.046 A 
ATOM     22  C   UNL     1      -4.272 -10.483  17.033  0.00  0.00    +0.046 A 
ATOM     23  C   UNL     1      -4.046 -11.645  16.297  0.00  0.00    +0.120 A 
BRANCH  23   4
ATOM      4  O   UNL     1      -3.021 -11.696  15.402  0.00  0.00    -0.495 OA
ATOM     24  C   UNL     1      -1.821 -11.008  15.750  0.00  0.00    +0.277 C 
ENDBRANCH  23   4
ENDBRANCH  17  18
BRANCH   5  11
ATOM     11  C   UNL     1     -10.223  -8.222  15.473  0.00  0.00    +0.111 C 
BRANCH  11   7
ATOM      7  C   UNL     1     -10.437  -6.823  15.938  0.00  0.00    +0.006 C 
ATOM      9  C   UNL     1     -11.210  -5.872  15.073  0.00  0.00    +0.005 C 
ATOM     10  C   UNL     1     -11.813  -6.387  16.347  0.00  0.00    +0.005 C 
ENDBRANCH  11   7
ENDBRANCH   5  11
TORSDOF 4
ENDMDL
MODEL 6
REMARK VINA RESULT:      -5.4     24.891     27.677
REMARK  Name = 56775230
REMARK  5 active torsions:
REMARK  status: ('A' for Active; 'I' for Inactive)
REMARK    1  A    between atoms: O_4  and  C_23
REMARK    2  A    between atoms: O_4  and  C_24
REMARK    3  A    between atoms: N_5  and  C_11
REMARK    4  A    between atoms: C_7  and  C_11
REMARK    5  A    between atoms: C_17  and  C_18
REMARK                            x       y       z     vdW  Elec       q    Type
REMARK                         _______ _______ _______ _____ _____    ______ ____
ROOT
ATOM      1  O   UNL     1      -8.575 -12.127  19.050  0.00  0.00    -0.364 OA
ATOM      2  O   UNL     1     -11.090 -11.248  16.691  0.00  0.00    -0.273 OA
ATOM      3  O   UNL     1      -3.775 -11.986  19.120  0.00  0.00    -0.270 OA
ATOM      5  N   UNL     1      -9.105 -10.137  17.182  0.00  0.00    -0.292 N 
ATOM      6  N   UNL     1      -5.812 -11.230  18.300  0.00  0.00    -0.293 N 
ATOM      8  C   UNL     1      -7.864 -10.110  17.945  0.00  0.00    +0.124 C 
ATOM     12  C   UNL     1      -7.935 -10.871  19.267  0.00  0.00    +0.158 C 
ATOM     13  C   UNL     1      -6.703 -10.800  17.223  0.00  0.00    +0.133 C 
ATOM     14  C   UNL     1      -6.470 -11.126  19.598  0.00  0.00    +0.141 C 
ATOM     15  C   UNL     1     -10.089 -11.099  17.395  0.00  0.00    +0.242 C 
ATOM     16  C   UNL     1      -9.912 -11.942  18.645  0.00  0.00    +0.256 C 
ATOM     17  C   UNL     1      -4.490 -11.630  18.185  0.00  0.00    +0.247 C 
ENDROOT
BRANCH  17  18
ATOM     18  C   UNL     1      -3.889 -11.618  16.841  0.00  0.00    +0.037 A 
ATOM     19  C   UNL     1      -4.234 -12.600  15.914  0.00  0.00    +0.016 A 
ATOM     20  C   UNL     1      -2.973 -10.623  16.496  0.00  0.00    +0.016 A 
ATOM     21  C   UNL     1      -3.664 -12.589  14.641  0.00  0.00    +0.046 A 
ATOM     22  C   UNL     1      -2.404 -10.612  15.224  0.00  0.00    +0.046 A 
ATOM     23  C   UNL     1      -2.748 -11.595  14.297  0.00  0.00    +0.120 A 
BRANCH  23   4
ATOM      4  O   UNL     1      -2.191 -11.584  13.055  0.00  0.00    -0.495 OA
ATOM     24  C   UNL     1      -2.542 -10.499  12.197  0.00  0.00    +0.277 C 
ENDBRANCH  23   4
ENDBRANCH  17  18
BRANCH   5  11
ATOM     11  C   UNL     1      -9.211  -9.213  16.062  0.00  0.00    +0.111 C 
BRANCH  11   7
ATOM      7  C   UNL     1      -9.587  -7.847  16.525  0.00  0.00    +0.006 C 
ATOM      9  C   UNL     1     -10.545  -7.033  15.705  0.00  0.00    +0.005 C 
ATOM     10  C   UNL     1     -10.980  -7.599  17.025  0.00  0.00    +0.005 C 
ENDBRANCH  11   7
ENDBRANCH   5  11
TORSDOF 4
ENDMDL
MODEL 7
REMARK VINA RESULT:      -5.4     27.238     30.426
REMARK  Name = 56775230
REMARK  5 active torsions:
REMARK  status: ('A' for Active; 'I' for Inactive)
REMARK    1  A    between atoms: O_4  and  C_23
REMARK    2  A    between atoms: O_4  and  C_24
REMARK    3  A    between atoms: N_5  and  C_11
REMARK    4  A    between atoms: C_7  and  C_11
REMARK    5  A    between atoms: C_17  and  C_18
REMARK                            x       y       z     vdW  Elec       q    Type
REMARK                         _______ _______ _______ _____ _____    ______ ____
ROOT
ATOM      1  O   UNL     1     -15.819  11.259  23.960  0.00  0.00    -0.364 OA
ATOM      2  O   UNL     1     -13.228  13.485  24.959  0.00  0.00    -0.273 OA
ATOM      3  O   UNL     1     -16.034   7.246  21.332  0.00  0.00    -0.270 OA
ATOM      5  N   UNL     1     -13.170  11.164  24.800  0.00  0.00    -0.292 N 
ATOM      6  N   UNL     1     -14.846   8.739  22.657  0.00  0.00    -0.293 N 
ATOM      8  C   UNL     1     -13.869   9.936  24.447  0.00  0.00    +0.124 C 
ATOM     12  C   UNL     1     -15.388  10.036  24.552  0.00  0.00    +0.158 C 
ATOM     13  C   UNL     1     -13.660   9.529  22.984  0.00  0.00    +0.133 C 
ATOM     14  C   UNL     1     -15.873   8.882  23.683  0.00  0.00    +0.141 C 
ATOM     15  C   UNL     1     -13.801  12.406  24.800  0.00  0.00    +0.242 C 
ATOM     16  C   UNL     1     -15.313  12.364  24.675  0.00  0.00    +0.256 C 
ATOM     17  C   UNL     1     -15.016   7.894  21.571  0.00  0.00    +0.247 C 
ENDROOT
BRANCH  17  18
ATOM     18  C   UNL     1     -13.888   7.750  20.637  0.00  0.00    +0.037 A 
ATOM     19  C   UNL     1     -13.960   8.316  19.365  0.00  0.00    +0.016 A 
ATOM     20  C   UNL     1     -12.748   7.045  21.024  0.00  0.00    +0.016 A 
ATOM     21  C   UNL     1     -12.891   8.179  18.479  0.00  0.00    +0.046 A 
ATOM     22  C   UNL     1     -11.680   6.908  20.139  0.00  0.00    +0.046 A 
ATOM     23  C   UNL     1     -11.751   7.473  18.866  0.00  0.00    +0.120 A 
BRANCH  23   4
ATOM      4  O   UNL     1     -10.708   7.339  18.002  0.00  0.00    -0.495 OA
ATOM     24  C   UNL     1     -10.496   8.400  17.072  0.00  0.00    +0.277 C 
ENDBRANCH  23   4
ENDBRANCH  17  18
BRANCH   5  11
ATOM     11  C   UNL     1     -11.731  11.071  24.999  0.00  0.00    +0.111 C 
BRANCH  11   7
ATOM      7  C   UNL     1     -11.391  10.979  26.447  0.00  0.00    +0.006 C 
ATOM      9  C   UNL     1     -11.417   9.639  27.122  0.00  0.00    +0.005 C 
ATOM     10  C   UNL     1     -10.107  10.322  26.859  0.00  0.00    +0.005 C 
ENDBRANCH  11   7
ENDBRANCH   5  11
TORSDOF 4
ENDMDL
MODEL 8
REMARK VINA RESULT:      -5.4     15.940     18.976
REMARK  Name = 56775230
REMARK  5 active torsions:
REMARK  status: ('A' for Active; 'I' for Inactive)
REMARK    1  A    between atoms: O_4  and  C_23
REMARK    2  A    between atoms: O_4  and  C_24
REMARK    3  A    between atoms: N_5  and  C_11
REMARK    4  A    between atoms: C_7  and  C_11
REMARK    5  A    between atoms: C_17  and  C_18
REMARK                            x       y       z     vdW  Elec       q    Type
REMARK                         _______ _______ _______ _____ _____    ______ ____
ROOT
ATOM      1  O   UNL     1      19.840   6.218  22.378  0.00  0.00    -0.364 OA
ATOM      2  O   UNL     1      20.359   8.775  24.798  0.00  0.00    -0.273 OA
ATOM      3  O   UNL     1      16.660   5.455  18.861  0.00  0.00    -0.270 OA
ATOM      5  N   UNL     1      19.712   8.988  22.573  0.00  0.00    -0.292 N 
ATOM      6  N   UNL     1      17.793   6.892  20.291  0.00  0.00    -0.293 N 
ATOM      8  C   UNL     1      19.363   8.328  21.322  0.00  0.00    +0.124 C 
ATOM     12  C   UNL     1      19.987   6.944  21.159  0.00  0.00    +0.158 C 
ATOM     13  C   UNL     1      17.864   8.037  21.197  0.00  0.00    +0.133 C 
ATOM     14  C   UNL     1      19.108   6.291  20.099  0.00  0.00    +0.141 C 
ATOM     15  C   UNL     1      20.179   8.286  23.681  0.00  0.00    +0.242 C 
ATOM     16  C   UNL     1      20.558   6.839  23.419  0.00  0.00    +0.256 C 
ATOM     17  C   UNL     1      16.675   6.425  19.617  0.00  0.00    +0.247 C 
ENDROOT
BRANCH  17  18
ATOM     18  C   UNL     1      15.411   7.153  19.808  0.00  0.00    +0.037 A 
ATOM     19  C   UNL     1      14.501   6.727  20.774  0.00  0.00    +0.016 A 
ATOM     20  C   UNL     1      15.123   8.270  19.022  0.00  0.00    +0.016 A 
ATOM     21  C   UNL     1      13.301   7.416  20.955  0.00  0.00    +0.046 A 
ATOM     22  C   UNL     1      13.925   8.959  19.203  0.00  0.00    +0.046 A 
ATOM     23  C   UNL     1      13.014   8.532  20.168  0.00  0.00    +0.120 A 
BRANCH  23   4
ATOM      4  O   UNL     1      11.844   9.205  20.345  0.00  0.00    -0.495 OA
ATOM     24  C   UNL     1      10.842   8.567  21.135  0.00  0.00    +0.277 C 
ENDBRANCH  23   4
ENDBRANCH  17  18
BRANCH   5  11
ATOM     11  C   UNL     1      19.396  10.406  22.681  0.00  0.00    +0.111 C 
BRANCH  11   7
ATOM      7  C   UNL     1      19.879  11.157  21.488  0.00  0.00    +0.006 C 
ATOM      9  C   UNL     1      18.889  11.904  20.642  0.00  0.00    +0.005 C 
ATOM     10  C   UNL     1      19.856  12.657  21.507  0.00  0.00    +0.005 C 
ENDBRANCH  11   7
ENDBRANCH   5  11
TORSDOF 4
ENDMDL
MODEL 9
REMARK VINA RESULT:      -5.3     16.067     18.852
REMARK  Name = 56775230
REMARK  5 active torsions:
REMARK  status: ('A' for Active; 'I' for Inactive)
REMARK    1  A    between atoms: O_4  and  C_23
REMARK    2  A    between atoms: O_4  and  C_24
REMARK    3  A    between atoms: N_5  and  C_11
REMARK    4  A    between atoms: C_7  and  C_11
REMARK    5  A    between atoms: C_17  and  C_18
REMARK                            x       y       z     vdW  Elec       q    Type
REMARK                         _______ _______ _______ _____ _____    ______ ____
ROOT
ATOM      1  O   UNL     1      17.241   6.269  20.936  0.00  0.00    -0.364 OA
ATOM      2  O   UNL     1      19.498   8.246  22.850  0.00  0.00    -0.273 OA
ATOM      3  O   UNL     1      12.692   6.749  19.474  0.00  0.00    -0.270 OA
ATOM      5  N   UNL     1      17.945   8.939  21.261  0.00  0.00    -0.292 N 
ATOM      6  N   UNL     1      14.700   7.675  20.186  0.00  0.00    -0.293 N 
ATOM      8  C   UNL     1      16.883   8.571  20.334  0.00  0.00    +0.124 C 
ATOM     12  C   UNL     1      16.969   7.131  19.834  0.00  0.00    +0.158 C 
ATOM     13  C   UNL     1      15.491   8.622  20.971  0.00  0.00    +0.133 C 
ATOM     14  C   UNL     1      15.556   6.852  19.339  0.00  0.00    +0.141 C 
ATOM     15  C   UNL     1      18.686   7.988  21.960  0.00  0.00    +0.242 C 
ATOM     16  C   UNL     1      18.504   6.555  21.495  0.00  0.00    +0.256 C 
ATOM     17  C   UNL     1      13.319   7.563  20.151  0.00  0.00    +0.247 C 
ENDROOT
BRANCH  17  18
ATOM     18  C   UNL     1      12.539   8.499  20.976  0.00  0.00    +0.037 A 
ATOM     19  C   UNL     1      11.872   8.038  22.111  0.00  0.00    +0.016 A 
ATOM     20  C   UNL     1      12.465   9.846  20.622  0.00  0.00    +0.016 A 
ATOM     21  C   UNL     1      11.132   8.925  22.893  0.00  0.00    +0.046 A 
ATOM     22  C   UNL     1      11.725  10.732  21.404  0.00  0.00    +0.046 A 
ATOM     23  C   UNL     1      11.058  10.272  22.538  0.00  0.00    +0.120 A 
BRANCH  23   4
ATOM      4  O   UNL     1      10.335  11.137  23.302  0.00  0.00    -0.495 OA
ATOM     24  C   UNL     1      10.917  11.556  24.535  0.00  0.00    +0.277 C 
ENDBRANCH  23   4
ENDBRANCH  17  18
BRANCH   5  11
ATOM     11  C   UNL     1      18.099  10.355  21.560  0.00  0.00    +0.111 C 
BRANCH  11   7
ATOM      7  C   UNL     1      18.908  11.042  20.513  0.00  0.00    +0.006 C 
ATOM      9  C   UNL     1      19.553  12.359  20.832  0.00  0.00    +0.005 C 
ATOM     10  C   UNL     1      20.397  11.128  20.674  0.00  0.00    +0.005 C 
ENDBRANCH  11   7
ENDBRANCH   5  11
TORSDOF 4
ENDMDL
MODEL 10
REMARK VINA RESULT:      -5.2      2.878      6.397
REMARK  Name = 56775230
REMARK  5 active torsions:
REMARK  status: ('A' for Active; 'I' for Inactive)
REMARK    1  A    between atoms: O_4  and  C_23
REMARK    2  A    between atoms: O_4  and  C_24
REMARK    3  A    between atoms: N_5  and  C_11
REMARK    4  A    between atoms: C_7  and  C_11
REMARK    5  A    between atoms: C_17  and  C_18
REMARK                            x       y       z     vdW  Elec       q    Type
REMARK                         _______ _______ _______ _____ _____    ______ ____
ROOT
ATOM      1  O   UNL     1      12.054   6.927   1.189  0.00  0.00    -0.364 OA
ATOM      2  O   UNL     1      15.381   5.694   1.473  0.00  0.00    -0.273 OA
ATOM      3  O   UNL     1       8.401   7.599   4.232  0.00  0.00    -0.270 OA
ATOM      5  N   UNL     1      14.201   7.050   2.951  0.00  0.00    -0.292 N 
ATOM      6  N   UNL     1      10.675   7.371   3.815  0.00  0.00    -0.293 N 
ATOM      8  C   UNL     1      12.950   7.723   3.276  0.00  0.00    +0.124 C 
ATOM     12  C   UNL     1      12.093   8.056   2.057  0.00  0.00    +0.158 C 
ATOM     13  C   UNL     1      12.009   6.858   4.121  0.00  0.00    +0.133 C 
ATOM     14  C   UNL     1      10.705   8.254   2.654  0.00  0.00    +0.141 C 
ATOM     15  C   UNL     1      14.398   6.388   1.742  0.00  0.00    +0.242 C 
ATOM     16  C   UNL     1      13.339   6.641   0.684  0.00  0.00    +0.256 C 
ATOM     17  C   UNL     1       9.506   7.146   4.526  0.00  0.00    +0.247 C 
ENDROOT
BRANCH  17  18
ATOM     18  C   UNL     1       9.595   6.310   5.734  0.00  0.00    +0.037 A 
ATOM     19  C   UNL     1       9.711   4.926   5.618  0.00  0.00    +0.016 A 
ATOM     20  C   UNL     1       9.562   6.904   6.997  0.00  0.00    +0.016 A 
ATOM     21  C   UNL     1       9.795   4.134   6.763  0.00  0.00    +0.046 A 
ATOM     22  C   UNL     1       9.645   6.113   8.141  0.00  0.00    +0.046 A 
ATOM     23  C   UNL     1       9.761   4.728   8.025  0.00  0.00    +0.120 A 
BRANCH  23   4
ATOM      4  O   UNL     1       9.842   3.955   9.142  0.00  0.00    -0.495 OA
ATOM     24  C   UNL     1       9.181   4.434  10.312  0.00  0.00    +0.277 C 
ENDBRANCH  23   4
ENDBRANCH  17  18
BRANCH   5  11
ATOM     11  C   UNL     1      15.193   6.953   4.012  0.00  0.00    +0.111 C 
BRANCH  11   7
ATOM      7  C   UNL     1      15.408   8.273   4.671  0.00  0.00    +0.006 C 
ATOM      9  C   UNL     1      15.699   8.319   6.142  0.00  0.00    +0.005 C 
ATOM     10  C   UNL     1      16.781   8.638   5.152  0.00  0.00    +0.005 C 
ENDBRANCH  11   7
ENDBRANCH   5  11
TORSDOF 4
ENDMDL
