MODEL 1
REMARK VINA RESULT:      -6.9      0.000      0.000
REMARK  Name = 75411571
REMARK  5 active torsions:
REMARK  status: ('A' for Active; 'I' for Inactive)
REMARK    1  A    between atoms: O_6  and  C_10
REMARK    2  A    between atoms: O_6  and  C_16
REMARK    3  A    between atoms: N_7  and  C_13
REMARK    4  A    between atoms: C_13  and  C_15
REMARK    5  A    between atoms: C_24  and  C_26
REMARK                            x       y       z     vdW  Elec       q    Type
REMARK                         _______ _______ _______ _____ _____    ______ ____
ROOT
ATOM      5  O   UNL     1      12.384   9.687  17.414  0.00  0.00    -0.375 OA
ATOM      7  N   UNL     1      13.946   7.861  19.402  0.00  0.00    -0.292 NA
ATOM      9  C   UNL     1      13.891   9.085  20.210  0.00  0.00    +0.131 C 
ATOM     10  C   UNL     1      13.133  10.291  19.635  0.00  0.00    +0.215 C 
ATOM     11  C   UNL     1      12.720   7.577  18.654  0.00  0.00    +0.113 C 
ATOM     12  C   UNL     1      13.313  10.489  18.136  0.00  0.00    +0.205 C 
ATOM     14  C   UNL     1      12.742   8.316  17.315  0.00  0.00    +0.175 C 
ENDROOT
BRANCH  10   6
ATOM      6  O   UNL     1      13.605  11.467  20.295  0.00  0.00    -0.469 OA
BRANCH   6  16
ATOM      8  N   UNL     1      13.539  11.656  22.604  0.00  0.00    -0.221 NA
ATOM     16  C   UNL     1      12.924  11.852  21.417  0.00  0.00    +0.215 A 
ATOM     21  C   UNL     1      11.664  12.414  21.278  0.00  0.00    +0.068 A 
ATOM     23  C   UNL     1      10.993  12.798  22.433  0.00  0.00    +0.019 A 
ATOM     24  C   UNL     1      11.592  12.611  23.674  0.00  0.00    +0.073 A 
ATOM     25  C   UNL     1      12.856  12.041  23.705  0.00  0.00    +0.127 A 
BRANCH  24  26
ATOM      2  F   UNL     1      10.640  11.967  25.772  0.00  0.00    -0.166 F 
ATOM      3  F   UNL     1      11.604  13.909  25.684  0.00  0.00    -0.166 F 
ATOM      4  F   UNL     1       9.689  13.602  24.699  0.00  0.00    -0.166 F 
ATOM     26  C   UNL     1      10.900  13.011  24.928  0.00  0.00    +0.419 C 
ENDBRANCH  24  26
ENDBRANCH   6  16
ENDBRANCH  10   6
BRANCH   7  13
ATOM     13  C   UNL     1      14.341   6.725  20.235  0.00  0.00    +0.119 C 
BRANCH  13  15
ATOM      1  F   UNL     1      19.922   5.941  20.198  0.00  0.00    -0.205 F 
ATOM     15  C   UNL     1      15.833   6.515  20.224  0.00  0.00    -0.033 A 
ATOM     17  C   UNL     1      16.590   6.840  21.350  0.00  0.00    +0.008 A 
ATOM     18  C   UNL     1      16.457   5.996  19.090  0.00  0.00    +0.008 A 
ATOM     19  C   UNL     1      17.971   6.647  21.341  0.00  0.00    +0.038 A 
ATOM     20  C   UNL     1      17.838   5.803  19.081  0.00  0.00    +0.038 A 
ATOM     22  C   UNL     1      18.595   6.128  20.206  0.00  0.00    +0.123 A 
ENDBRANCH  13  15
ENDBRANCH   7  13
TORSDOF 5
ENDMDL
MODEL 2
REMARK VINA RESULT:      -6.5     14.265     17.209
REMARK  Name = 75411571
REMARK  5 active torsions:
REMARK  status: ('A' for Active; 'I' for Inactive)
REMARK    1  A    between atoms: O_6  and  C_10
REMARK    2  A    between atoms: O_6  and  C_16
REMARK    3  A    between atoms: N_7  and  C_13
REMARK    4  A    between atoms: C_13  and  C_15
REMARK    5  A    between atoms: C_24  and  C_26
REMARK                            x       y       z     vdW  Elec       q    Type
REMARK                         _______ _______ _______ _____ _____    ______ ____
ROOT
ATOM      5  O   UNL     1      10.068  10.216   2.908  0.00  0.00    -0.375 OA
ATOM      7  N   UNL     1      10.521   7.147   2.588  0.00  0.00    -0.292 NA
ATOM      9  C   UNL     1      10.639   7.244   4.048  0.00  0.00    +0.131 C 
ATOM     10  C   UNL     1      10.422   8.622   4.694  0.00  0.00    +0.215 C 
ATOM     11  C   UNL     1       9.475   7.992   2.009  0.00  0.00    +0.113 C 
ATOM     12  C   UNL     1      10.996   9.786   3.900  0.00  0.00    +0.205 C 
ATOM     14  C   UNL     1      10.023   9.396   1.749  0.00  0.00    +0.175 C 
ENDROOT
BRANCH  10   6
ATOM      6  O   UNL     1      11.048   8.612   5.978  0.00  0.00    -0.469 OA
BRANCH   6  16
ATOM      8  N   UNL     1      11.469   6.738   7.275  0.00  0.00    -0.221 NA
ATOM     16  C   UNL     1      10.593   7.685   6.874  0.00  0.00    +0.215 A 
ATOM     21  C   UNL     1       9.281   7.766   7.315  0.00  0.00    +0.068 A 
ATOM     23  C   UNL     1       8.841   6.811   8.225  0.00  0.00    +0.019 A 
ATOM     24  C   UNL     1       9.713   5.819   8.661  0.00  0.00    +0.073 A 
ATOM     25  C   UNL     1      11.006   5.826   8.160  0.00  0.00    +0.127 A 
BRANCH  24  26
ATOM      2  F   UNL     1       9.058   3.556   9.074  0.00  0.00    -0.166 F 
ATOM      3  F   UNL     1      10.170   4.560  10.644  0.00  0.00    -0.166 F 
ATOM      4  F   UNL     1       8.101   5.109  10.257  0.00  0.00    -0.166 F 
ATOM     26  C   UNL     1       9.274   4.785   9.634  0.00  0.00    +0.419 C 
ENDBRANCH  24  26
ENDBRANCH   6  16
ENDBRANCH  10   6
BRANCH   7  13
ATOM     13  C   UNL     1      10.362   5.748   2.188  0.00  0.00    +0.119 C 
BRANCH  13  15
ATOM      1  F   UNL     1      15.328   3.269   1.215  0.00  0.00    -0.205 F 
ATOM     15  C   UNL     1      11.690   5.086   1.928  0.00  0.00    -0.033 A 
ATOM     17  C   UNL     1      11.797   3.697   1.981  0.00  0.00    +0.008 A 
ATOM     18  C   UNL     1      12.811   5.862   1.634  0.00  0.00    +0.008 A 
ATOM     19  C   UNL     1      13.026   3.082   1.740  0.00  0.00    +0.038 A 
ATOM     20  C   UNL     1      14.040   5.248   1.394  0.00  0.00    +0.038 A 
ATOM     22  C   UNL     1      14.148   3.858   1.447  0.00  0.00    +0.123 A 
ENDBRANCH  13  15
ENDBRANCH   7  13
TORSDOF 5
ENDMDL
MODEL 3
REMARK VINA RESULT:      -6.4     27.405     30.773
REMARK  Name = 75411571
REMARK  5 active torsions:
REMARK  status: ('A' for Active; 'I' for Inactive)
REMARK    1  A    between atoms: O_6  and  C_10
REMARK    2  A    between atoms: O_6  and  C_16
REMARK    3  A    between atoms: N_7  and  C_13
REMARK    4  A    between atoms: C_13  and  C_15
REMARK    5  A    between atoms: C_24  and  C_26
REMARK                            x       y       z     vdW  Elec       q    Type
REMARK                         _______ _______ _______ _____ _____    ______ ____
ROOT
ATOM      5  O   UNL     1     -16.530   6.753  33.386  0.00  0.00    -0.375 OA
ATOM      7  N   UNL     1     -13.769   8.041  32.723  0.00  0.00    -0.292 NA
ATOM      9  C   UNL     1     -13.364   6.631  32.740  0.00  0.00    +0.131 C 
ATOM     10  C   UNL     1     -14.455   5.575  32.980  0.00  0.00    +0.215 C 
ATOM     11  C   UNL     1     -15.075   8.288  32.110  0.00  0.00    +0.113 C 
ATOM     12  C   UNL     1     -15.507   5.980  34.004  0.00  0.00    +0.205 C 
ATOM     14  C   UNL     1     -16.182   8.110  33.149  0.00  0.00    +0.175 C 
ENDROOT
BRANCH  10   6
ATOM      6  O   UNL     1     -13.822   4.382  33.445  0.00  0.00    -0.469 OA
BRANCH   6  16
ATOM      8  N   UNL     1     -13.499   3.302  31.420  0.00  0.00    -0.221 NA
ATOM     16  C   UNL     1     -13.990   3.262  32.679  0.00  0.00    +0.215 A 
ATOM     21  C   UNL     1     -14.641   2.167  33.224  0.00  0.00    +0.068 A 
ATOM     23  C   UNL     1     -14.800   1.040  32.424  0.00  0.00    +0.019 A 
ATOM     24  C   UNL     1     -14.309   1.043  31.123  0.00  0.00    +0.073 A 
ATOM     25  C   UNL     1     -13.672   2.189  30.672  0.00  0.00    +0.127 A 
BRANCH  24  26
ATOM      2  F   UNL     1     -15.325  -1.086  30.733  0.00  0.00    -0.166 F 
ATOM      3  F   UNL     1     -14.934   0.150  28.993  0.00  0.00    -0.166 F 
ATOM      4  F   UNL     1     -13.284  -0.808  30.038  0.00  0.00    -0.166 F 
ATOM     26  C   UNL     1     -14.462  -0.145  30.243  0.00  0.00    +0.419 C 
ENDBRANCH  24  26
ENDBRANCH   6  16
ENDBRANCH  10   6
BRANCH   7  13
ATOM     13  C   UNL     1     -12.723   8.857  32.105  0.00  0.00    +0.119 C 
BRANCH  13  15
ATOM      1  F   UNL     1      -8.716  10.286  35.800  0.00  0.00    -0.205 F 
ATOM     15  C   UNL     1     -11.653   9.239  33.093  0.00  0.00    -0.033 A 
ATOM     17  C   UNL     1     -10.384   9.602  32.640  0.00  0.00    +0.008 A 
ATOM     18  C   UNL     1     -11.928   9.229  34.460  0.00  0.00    +0.008 A 
ATOM     19  C   UNL     1      -9.392   9.956  33.554  0.00  0.00    +0.038 A 
ATOM     20  C   UNL     1     -10.937   9.582  35.374  0.00  0.00    +0.038 A 
ATOM     22  C   UNL     1      -9.669   9.945  34.921  0.00  0.00    +0.123 A 
ENDBRANCH  13  15
ENDBRANCH   7  13
TORSDOF 5
ENDMDL
MODEL 4
REMARK VINA RESULT:      -6.2     27.791     28.997
REMARK  Name = 75411571
REMARK  5 active torsions:
REMARK  status: ('A' for Active; 'I' for Inactive)
REMARK    1  A    between atoms: O_6  and  C_10
REMARK    2  A    between atoms: O_6  and  C_16
REMARK    3  A    between atoms: N_7  and  C_13
REMARK    4  A    between atoms: C_13  and  C_15
REMARK    5  A    between atoms: C_24  and  C_26
REMARK                            x       y       z     vdW  Elec       q    Type
REMARK                         _______ _______ _______ _____ _____    ______ ____
ROOT
ATOM      5  O   UNL     1      -3.584 -13.591  15.057  0.00  0.00    -0.375 OA
ATOM      7  N   UNL     1      -2.751 -11.415  12.985  0.00  0.00    -0.292 NA
ATOM      9  C   UNL     1      -2.688 -10.603  14.206  0.00  0.00    +0.131 C 
ATOM     10  C   UNL     1      -2.978 -11.299  15.545  0.00  0.00    +0.215 C 
ATOM     11  C   UNL     1      -2.250 -12.782  13.142  0.00  0.00    +0.113 C 
ATOM     12  C   UNL     1      -4.094 -12.333  15.487  0.00  0.00    +0.205 C 
ATOM     14  C   UNL     1      -3.366 -13.691  13.657  0.00  0.00    +0.175 C 
ENDROOT
BRANCH  10   6
ATOM      6  O   UNL     1      -3.352 -10.299  16.493  0.00  0.00    -0.469 OA
BRANCH   6  16
ATOM      8  N   UNL     1      -5.554  -9.646  16.179  0.00  0.00    -0.221 NA
ATOM     16  C   UNL     1      -4.650 -10.319  16.924  0.00  0.00    +0.215 A 
ATOM     21  C   UNL     1      -4.962 -11.017  18.080  0.00  0.00    +0.068 A 
ATOM     23  C   UNL     1      -6.289 -11.023  18.498  0.00  0.00    +0.019 A 
ATOM     24  C   UNL     1      -7.248 -10.341  17.758  0.00  0.00    +0.073 A 
ATOM     25  C   UNL     1      -6.833  -9.674  16.616  0.00  0.00    +0.127 A 
BRANCH  24  26
ATOM      2  F   UNL     1      -8.857 -10.533  19.518  0.00  0.00    -0.166 F 
ATOM      3  F   UNL     1      -9.319  -9.151  17.910  0.00  0.00    -0.166 F 
ATOM      4  F   UNL     1      -9.417 -11.296  17.560  0.00  0.00    -0.166 F 
ATOM     26  C   UNL     1      -8.674 -10.329  18.178  0.00  0.00    +0.419 C 
ENDBRANCH  24  26
ENDBRANCH   6  16
ENDBRANCH  10   6
BRANCH   7  13
ATOM     13  C   UNL     1      -2.079 -10.722  11.885  0.00  0.00    +0.119 C 
BRANCH  13  15
ATOM      1  F   UNL     1      -5.599  -9.677   7.609  0.00  0.00    -0.205 F 
ATOM     15  C   UNL     1      -3.020 -10.442  10.742  0.00  0.00    -0.033 A 
ATOM     17  C   UNL     1      -3.729 -11.488  10.152  0.00  0.00    +0.008 A 
ATOM     18  C   UNL     1      -3.182  -9.138  10.275  0.00  0.00    +0.008 A 
ATOM     19  C   UNL     1      -4.600 -11.230   9.093  0.00  0.00    +0.038 A 
ATOM     20  C   UNL     1      -4.052  -8.879   9.217  0.00  0.00    +0.038 A 
ATOM     22  C   UNL     1      -4.761  -9.925   8.626  0.00  0.00    +0.123 A 
ENDBRANCH  13  15
ENDBRANCH   7  13
TORSDOF 5
ENDMDL
MODEL 5
REMARK VINA RESULT:      -6.2     24.910     26.660
REMARK  Name = 75411571
REMARK  5 active torsions:
REMARK  status: ('A' for Active; 'I' for Inactive)
REMARK    1  A    between atoms: O_6  and  C_10
REMARK    2  A    between atoms: O_6  and  C_16
REMARK    3  A    between atoms: N_7  and  C_13
REMARK    4  A    between atoms: C_13  and  C_15
REMARK    5  A    between atoms: C_24  and  C_26
REMARK                            x       y       z     vdW  Elec       q    Type
REMARK                         _______ _______ _______ _____ _____    ______ ____
ROOT
ATOM      5  O   UNL     1     -16.639   8.140  21.450  0.00  0.00    -0.375 OA
ATOM      7  N   UNL     1     -13.606   7.748  20.843  0.00  0.00    -0.292 NA
ATOM      9  C   UNL     1     -13.497   8.753  21.906  0.00  0.00    +0.131 C 
ATOM     10  C   UNL     1     -14.795   9.228  22.579  0.00  0.00    +0.215 C 
ATOM     11  C   UNL     1     -14.641   6.738  21.070  0.00  0.00    +0.113 C 
ATOM     12  C   UNL     1     -15.974   9.386  21.629  0.00  0.00    +0.205 C 
ATOM     14  C   UNL     1     -15.988   7.247  20.557  0.00  0.00    +0.175 C 
ENDROOT
BRANCH  10   6
ATOM      6  O   UNL     1     -14.543  10.497  23.184  0.00  0.00    -0.469 OA
BRANCH   6  16
ATOM      8  N   UNL     1     -13.991   9.987  25.376  0.00  0.00    -0.221 NA
ATOM     16  C   UNL     1     -13.619  10.521  24.192  0.00  0.00    +0.215 A 
ATOM     21  C   UNL     1     -12.374  11.080  23.949  0.00  0.00    +0.068 A 
ATOM     23  C   UNL     1     -11.452  11.092  24.990  0.00  0.00    +0.019 A 
ATOM     24  C   UNL     1     -11.799  10.553  26.225  0.00  0.00    +0.073 A 
ATOM     25  C   UNL     1     -13.069  10.017  26.365  0.00  0.00    +0.127 A 
BRANCH  24  26
ATOM      2  F   UNL     1     -11.087   9.585  28.293  0.00  0.00    -0.166 F 
ATOM      3  F   UNL     1      -9.537  10.344  26.977  0.00  0.00    -0.166 F 
ATOM      4  F   UNL     1     -10.827  11.730  28.048  0.00  0.00    -0.166 F 
ATOM     26  C   UNL     1     -10.836  10.550  27.357  0.00  0.00    +0.419 C 
ENDBRANCH  24  26
ENDBRANCH   6  16
ENDBRANCH  10   6
BRANCH   7  13
ATOM     13  C   UNL     1     -12.301   7.132  20.598  0.00  0.00    +0.119 C 
BRANCH  13  15
ATOM      1  F   UNL     1      -9.390   9.896  16.643  0.00  0.00    -0.205 F 
ATOM     15  C   UNL     1     -11.523   7.871  19.541  0.00  0.00    -0.033 A 
ATOM     17  C   UNL     1     -10.805   9.018  19.878  0.00  0.00    +0.008 A 
ATOM     18  C   UNL     1     -11.521   7.408  18.225  0.00  0.00    +0.008 A 
ATOM     19  C   UNL     1     -10.084   9.703  18.899  0.00  0.00    +0.038 A 
ATOM     20  C   UNL     1     -10.800   8.092  17.247  0.00  0.00    +0.038 A 
ATOM     22  C   UNL     1     -10.082   9.239  17.584  0.00  0.00    +0.123 A 
ENDBRANCH  13  15
ENDBRANCH   7  13
TORSDOF 5
ENDMDL
MODEL 6
REMARK VINA RESULT:      -6.1     28.053     30.502
REMARK  Name = 75411571
REMARK  5 active torsions:
REMARK  status: ('A' for Active; 'I' for Inactive)
REMARK    1  A    between atoms: O_6  and  C_10
REMARK    2  A    between atoms: O_6  and  C_16
REMARK    3  A    between atoms: N_7  and  C_13
REMARK    4  A    between atoms: C_13  and  C_15
REMARK    5  A    between atoms: C_24  and  C_26
REMARK                            x       y       z     vdW  Elec       q    Type
REMARK                         _______ _______ _______ _____ _____    ______ ____
ROOT
ATOM      5  O   UNL     1     -18.221   3.142  23.661  0.00  0.00    -0.375 OA
ATOM      7  N   UNL     1     -17.353   3.265  26.653  0.00  0.00    -0.292 NA
ATOM      9  C   UNL     1     -16.140   3.820  26.041  0.00  0.00    +0.131 C 
ATOM     10  C   UNL     1     -16.130   4.010  24.516  0.00  0.00    +0.215 C 
ATOM     11  C   UNL     1     -18.601   3.714  26.034  0.00  0.00    +0.113 C 
ATOM     12  C   UNL     1     -16.821   2.897  23.739  0.00  0.00    +0.205 C 
ATOM     14  C   UNL     1     -18.943   2.819  24.841  0.00  0.00    +0.175 C 
ENDROOT
BRANCH  10   6
ATOM      6  O   UNL     1     -14.769   4.069  24.086  0.00  0.00    -0.469 OA
BRANCH   6  16
ATOM      8  N   UNL     1     -15.241   6.182  23.259  0.00  0.00    -0.221 NA
ATOM     16  C   UNL     1     -14.438   5.096  23.246  0.00  0.00    +0.215 A 
ATOM     21  C   UNL     1     -13.315   4.970  22.442  0.00  0.00    +0.068 A 
ATOM     23  C   UNL     1     -12.999   6.028  21.596  0.00  0.00    +0.019 A 
ATOM     24  C   UNL     1     -13.803   7.163  21.581  0.00  0.00    +0.073 A 
ATOM     25  C   UNL     1     -14.902   7.191  22.424  0.00  0.00    +0.127 A 
BRANCH  24  26
ATOM      2  F   UNL     1     -14.310   9.390  20.872  0.00  0.00    -0.166 F 
ATOM      3  F   UNL     1     -12.222   8.800  20.842  0.00  0.00    -0.166 F 
ATOM      4  F   UNL     1     -13.600   7.996  19.363  0.00  0.00    -0.166 F 
ATOM     26  C   UNL     1     -13.491   8.310  20.689  0.00  0.00    +0.419 C 
ENDBRANCH  24  26
ENDBRANCH   6  16
ENDBRANCH  10   6
BRANCH   7  13
ATOM     13  C   UNL     1     -17.349   3.518  28.095  0.00  0.00    +0.119 C 
BRANCH  13  15
ATOM      1  F   UNL     1     -13.309   0.598  30.723  0.00  0.00    -0.205 F 
ATOM     15  C   UNL     1     -16.270   2.737  28.797  0.00  0.00    -0.033 A 
ATOM     17  C   UNL     1     -15.257   3.409  29.481  0.00  0.00    +0.008 A 
ATOM     18  C   UNL     1     -16.282   1.343  28.764  0.00  0.00    +0.008 A 
ATOM     19  C   UNL     1     -14.256   2.687  30.132  0.00  0.00    +0.038 A 
ATOM     20  C   UNL     1     -15.283   0.620  29.414  0.00  0.00    +0.038 A 
ATOM     22  C   UNL     1     -14.270   1.292  30.098  0.00  0.00    +0.123 A 
ENDBRANCH  13  15
ENDBRANCH   7  13
TORSDOF 5
ENDMDL
MODEL 7
REMARK VINA RESULT:      -6.0     15.358     18.820
REMARK  Name = 75411571
REMARK  5 active torsions:
REMARK  status: ('A' for Active; 'I' for Inactive)
REMARK    1  A    between atoms: O_6  and  C_10
REMARK    2  A    between atoms: O_6  and  C_16
REMARK    3  A    between atoms: N_7  and  C_13
REMARK    4  A    between atoms: C_13  and  C_15
REMARK    5  A    between atoms: C_24  and  C_26
REMARK                            x       y       z     vdW  Elec       q    Type
REMARK                         _______ _______ _______ _____ _____    ______ ____
ROOT
ATOM      5  O   UNL     1       9.559  11.575   5.041  0.00  0.00    -0.375 OA
ATOM      7  N   UNL     1       6.977  10.493   3.667  0.00  0.00    -0.292 NA
ATOM      9  C   UNL     1       7.525   9.223   4.155  0.00  0.00    +0.131 C 
ATOM     10  C   UNL     1       8.823   9.270   4.979  0.00  0.00    +0.215 C 
ATOM     11  C   UNL     1       7.129  11.613   4.597  0.00  0.00    +0.113 C 
ATOM     12  C   UNL     1       9.840  10.292   4.490  0.00  0.00    +0.205 C 
ATOM     14  C   UNL     1       8.497  12.270   4.404  0.00  0.00    +0.175 C 
ENDROOT
BRANCH  10   6
ATOM      6  O   UNL     1       9.431   7.980   4.922  0.00  0.00    -0.469 OA
BRANCH   6  16
ATOM      8  N   UNL     1       9.928   5.996   6.013  0.00  0.00    -0.221 NA
ATOM     16  C   UNL     1       9.400   7.239   6.071  0.00  0.00    +0.215 A 
ATOM     21  C   UNL     1       8.840   7.792   7.212  0.00  0.00    +0.068 A 
ATOM     23  C   UNL     1       8.820   7.018   8.368  0.00  0.00    +0.019 A 
ATOM     24  C   UNL     1       9.353   5.734   8.347  0.00  0.00    +0.073 A 
ATOM     25  C   UNL     1       9.891   5.274   7.155  0.00  0.00    +0.127 A 
BRANCH  24  26
ATOM      2  F   UNL     1      10.437   5.066  10.372  0.00  0.00    -0.166 F 
ATOM      3  F   UNL     1       8.268   5.091  10.380  0.00  0.00    -0.166 F 
ATOM      4  F   UNL     1       9.332   3.546   9.279  0.00  0.00    -0.166 F 
ATOM     26  C   UNL     1       9.348   4.883   9.566  0.00  0.00    +0.419 C 
ENDBRANCH  24  26
ENDBRANCH   6  16
ENDBRANCH  10   6
BRANCH   7  13
ATOM     13  C   UNL     1       5.582  10.317   3.264  0.00  0.00    +0.119 C 
BRANCH  13  15
ATOM      1  F   UNL     1       5.132   8.913  -2.176  0.00  0.00    -0.205 F 
ATOM     15  C   UNL     1       5.462   9.942   1.810  0.00  0.00    -0.033 A 
ATOM     17  C   UNL     1       4.220   9.590   1.281  0.00  0.00    +0.008 A 
ATOM     18  C   UNL     1       6.592   9.946   0.993  0.00  0.00    +0.008 A 
ATOM     19  C   UNL     1       4.108   9.242  -0.065  0.00  0.00    +0.038 A 
ATOM     20  C   UNL     1       6.481   9.599  -0.353  0.00  0.00    +0.038 A 
ATOM     22  C   UNL     1       5.239   9.247  -0.882  0.00  0.00    +0.123 A 
ENDBRANCH  13  15
ENDBRANCH   7  13
TORSDOF 5
ENDMDL
MODEL 8
REMARK VINA RESULT:      -6.0     28.539     30.258
REMARK  Name = 75411571
REMARK  5 active torsions:
REMARK  status: ('A' for Active; 'I' for Inactive)
REMARK    1  A    between atoms: O_6  and  C_10
REMARK    2  A    between atoms: O_6  and  C_16
REMARK    3  A    between atoms: N_7  and  C_13
REMARK    4  A    between atoms: C_13  and  C_15
REMARK    5  A    between atoms: C_24  and  C_26
REMARK                            x       y       z     vdW  Elec       q    Type
REMARK                         _______ _______ _______ _____ _____    ______ ____
ROOT
ATOM      5  O   UNL     1      -8.186 -13.273  17.232  0.00  0.00    -0.375 OA
ATOM      7  N   UNL     1      -5.626 -11.492  17.217  0.00  0.00    -0.292 NA
ATOM      9  C   UNL     1      -6.603 -10.483  17.642  0.00  0.00    +0.131 C 
ATOM     10  C   UNL     1      -8.057 -10.936  17.850  0.00  0.00    +0.215 C 
ATOM     11  C   UNL     1      -5.828 -12.815  17.810  0.00  0.00    +0.113 C 
ATOM     12  C   UNL     1      -8.550 -11.955  16.833  0.00  0.00    +0.205 C 
ATOM     14  C   UNL     1      -6.831 -13.613  16.976  0.00  0.00    +0.175 C 
ENDROOT
BRANCH  10   6
ATOM      6  O   UNL     1      -8.897  -9.785  17.764  0.00  0.00    -0.469 OA
BRANCH   6  16
ATOM      8  N   UNL     1     -10.093 -10.400  19.652  0.00  0.00    -0.221 NA
ATOM     16  C   UNL     1     -10.097  -9.853  18.417  0.00  0.00    +0.215 A 
ATOM     21  C   UNL     1     -11.232  -9.365  17.787  0.00  0.00    +0.068 A 
ATOM     23  C   UNL     1     -12.440  -9.445  18.472  0.00  0.00    +0.019 A 
ATOM     24  C   UNL     1     -12.476 -10.003  19.745  0.00  0.00    +0.073 A 
ATOM     25  C   UNL     1     -11.285 -10.461  20.287  0.00  0.00    +0.127 A 
BRANCH  24  26
ATOM      2  F   UNL     1     -14.778 -10.650  19.784  0.00  0.00    -0.166 F 
ATOM      3  F   UNL     1     -13.664 -10.869  21.633  0.00  0.00    -0.166 F 
ATOM      4  F   UNL     1     -14.213  -8.888  20.924  0.00  0.00    -0.166 F 
ATOM     26  C   UNL     1     -13.751 -10.103  20.502  0.00  0.00    +0.419 C 
ENDBRANCH  24  26
ENDBRANCH   6  16
ENDBRANCH  10   6
BRANCH   7  13
ATOM     13  C   UNL     1      -4.266 -11.003  17.447  0.00  0.00    +0.119 C 
BRANCH  13  15
ATOM      1  F   UNL     1      -1.472 -10.223  12.616  0.00  0.00    -0.205 F 
ATOM     15  C   UNL     1      -3.520 -10.795  16.156  0.00  0.00    -0.033 A 
ATOM     17  C   UNL     1      -2.145 -10.564  16.176  0.00  0.00    +0.008 A 
ATOM     18  C   UNL     1      -4.203 -10.832  14.941  0.00  0.00    +0.008 A 
ATOM     19  C   UNL     1      -1.452 -10.370  14.980  0.00  0.00    +0.038 A 
ATOM     20  C   UNL     1      -3.512 -10.639  13.745  0.00  0.00    +0.038 A 
ATOM     22  C   UNL     1      -2.136 -10.408  13.765  0.00  0.00    +0.123 A 
ENDBRANCH  13  15
ENDBRANCH   7  13
TORSDOF 5
ENDMDL
MODEL 9
REMARK VINA RESULT:      -5.9     27.562     29.227
REMARK  Name = 75411571
REMARK  5 active torsions:
REMARK  status: ('A' for Active; 'I' for Inactive)
REMARK    1  A    between atoms: O_6  and  C_10
REMARK    2  A    between atoms: O_6  and  C_16
REMARK    3  A    between atoms: N_7  and  C_13
REMARK    4  A    between atoms: C_13  and  C_15
REMARK    5  A    between atoms: C_24  and  C_26
REMARK                            x       y       z     vdW  Elec       q    Type
REMARK                         _______ _______ _______ _____ _____    ______ ____
ROOT
ATOM      5  O   UNL     1      -3.383 -13.667  13.020  0.00  0.00    -0.375 OA
ATOM      7  N   UNL     1      -2.705 -11.517  15.175  0.00  0.00    -0.292 NA
ATOM      9  C   UNL     1      -2.860 -10.634  14.013  0.00  0.00    +0.131 C 
ATOM     10  C   UNL     1      -3.269 -11.274  12.676  0.00  0.00    +0.215 C 
ATOM     11  C   UNL     1      -3.675 -12.611  15.235  0.00  0.00    +0.113 C 
ATOM     12  C   UNL     1      -2.629 -12.628  12.405  0.00  0.00    +0.205 C 
ATOM     14  C   UNL     1      -3.170 -13.801  14.418  0.00  0.00    +0.175 C 
ENDROOT
BRANCH  10   6
ATOM      6  O   UNL     1      -2.887 -10.386  11.625  0.00  0.00    -0.469 OA
BRANCH   6  16
ATOM      8  N   UNL     1      -5.051  -9.557  11.590  0.00  0.00    -0.221 NA
ATOM     16  C   UNL     1      -3.902  -9.798  10.921  0.00  0.00    +0.215 A 
ATOM     21  C   UNL     1      -3.700  -9.487   9.586  0.00  0.00    +0.068 A 
ATOM     23  C   UNL     1      -4.747  -8.890   8.892  0.00  0.00    +0.019 A 
ATOM     24  C   UNL     1      -5.947  -8.627   9.545  0.00  0.00    +0.073 A 
ATOM     25  C   UNL     1      -6.047  -8.976  10.883  0.00  0.00    +0.127 A 
BRANCH  24  26
ATOM      2  F   UNL     1      -7.264  -8.451   7.557  0.00  0.00    -0.166 F 
ATOM      3  F   UNL     1      -8.293  -8.172   9.446  0.00  0.00    -0.166 F 
ATOM      4  F   UNL     1      -6.941  -6.636   8.709  0.00  0.00    -0.166 F 
ATOM     26  C   UNL     1      -7.084  -7.990   8.832  0.00  0.00    +0.419 C 
ENDBRANCH  24  26
ENDBRANCH   6  16
ENDBRANCH  10   6
BRANCH   7  13
ATOM     13  C   UNL     1      -2.708 -10.729  16.408  0.00  0.00    +0.119 C 
BRANCH  13  15
ATOM      1  F   UNL     1      -7.816 -10.578  18.784  0.00  0.00    -0.205 F 
ATOM     15  C   UNL     1      -4.073 -10.689  17.044  0.00  0.00    -0.033 A 
ATOM     17  C   UNL     1      -5.087  -9.922  16.469  0.00  0.00    +0.008 A 
ATOM     18  C   UNL     1      -4.324 -11.418  18.206  0.00  0.00    +0.008 A 
ATOM     19  C   UNL     1      -6.351  -9.884  17.057  0.00  0.00    +0.038 A 
ATOM     20  C   UNL     1      -5.588 -11.381  18.794  0.00  0.00    +0.038 A 
ATOM     22  C   UNL     1      -6.601 -10.614  18.220  0.00  0.00    +0.123 A 
ENDBRANCH  13  15
ENDBRANCH   7  13
TORSDOF 5
ENDMDL
MODEL 10
REMARK VINA RESULT:      -5.8     27.512     29.685
REMARK  Name = 75411571
REMARK  5 active torsions:
REMARK  status: ('A' for Active; 'I' for Inactive)
REMARK    1  A    between atoms: O_6  and  C_10
REMARK    2  A    between atoms: O_6  and  C_16
REMARK    3  A    between atoms: N_7  and  C_13
REMARK    4  A    between atoms: C_13  and  C_15
REMARK    5  A    between atoms: C_24  and  C_26
REMARK                            x       y       z     vdW  Elec       q    Type
REMARK                         _______ _______ _______ _____ _____    ______ ____
ROOT
ATOM      5  O   UNL     1      -4.845  -8.638   9.576  0.00  0.00    -0.375 OA
ATOM      7  N   UNL     1      -4.387 -11.578   8.642  0.00  0.00    -0.292 NA
ATOM      9  C   UNL     1      -3.714 -11.645   9.944  0.00  0.00    +0.131 C 
ATOM     10  C   UNL     1      -3.735 -10.388  10.828  0.00  0.00    +0.215 C 
ATOM     11  C   UNL     1      -5.620 -10.789   8.640  0.00  0.00    +0.113 C 
ATOM     12  C   UNL     1      -3.582  -9.080  10.064  0.00  0.00    +0.205 C 
ATOM     14  C   UNL     1      -5.294  -9.313   8.410  0.00  0.00    +0.175 C 
ENDROOT
BRANCH  10   6
ATOM      6  O   UNL     1      -2.658 -10.483  11.761  0.00  0.00    -0.469 OA
BRANCH   6  16
ATOM      8  N   UNL     1      -4.313 -10.773  13.357  0.00  0.00    -0.221 NA
ATOM     16  C   UNL     1      -3.000 -10.622  13.078  0.00  0.00    +0.215 A 
ATOM     21  C   UNL     1      -1.999 -10.602  14.036  0.00  0.00    +0.068 A 
ATOM     23  C   UNL     1      -2.372 -10.745  15.369  0.00  0.00    +0.019 A 
ATOM     24  C   UNL     1      -3.715 -10.901  15.696  0.00  0.00    +0.073 A 
ATOM     25  C   UNL     1      -4.638 -10.909  14.663  0.00  0.00    +0.127 A 
BRANCH  24  26
ATOM      2  F   UNL     1      -5.040 -12.072  17.306  0.00  0.00    -0.166 F 
ATOM      3  F   UNL     1      -3.117 -11.322  17.975  0.00  0.00    -0.166 F 
ATOM      4  F   UNL     1      -4.754  -9.938  17.606  0.00  0.00    -0.166 F 
ATOM     26  C   UNL     1      -4.145 -11.057  17.111  0.00  0.00    +0.419 C 
ENDBRANCH  24  26
ENDBRANCH   6  16
ENDBRANCH  10   6
BRANCH   7  13
ATOM     13  C   UNL     1      -4.613 -12.927   8.123  0.00  0.00    +0.119 C 
BRANCH  13  15
ATOM      1  F   UNL     1      -1.904 -13.780   3.256  0.00  0.00    -0.205 F 
ATOM     15  C   UNL     1      -3.889 -13.156   6.822  0.00  0.00    -0.033 A 
ATOM     17  C   UNL     1      -3.886 -12.163   5.843  0.00  0.00    +0.008 A 
ATOM     18  C   UNL     1      -3.222 -14.359   6.597  0.00  0.00    +0.008 A 
ATOM     19  C   UNL     1      -3.216 -12.373   4.638  0.00  0.00    +0.038 A 
ATOM     20  C   UNL     1      -2.552 -14.571   5.392  0.00  0.00    +0.038 A 
ATOM     22  C   UNL     1      -2.549 -13.577   4.413  0.00  0.00    +0.123 A 
ENDBRANCH  13  15
ENDBRANCH   7  13
TORSDOF 5
ENDMDL
