MODEL 1
REMARK VINA RESULT:      -7.2      0.000      0.000
REMARK  Name = 45361573
REMARK  8 active torsions:
REMARK  status: ('A' for Active; 'I' for Inactive)
REMARK    1  A    between atoms: O_1  and  C_10
REMARK    2  A    between atoms: N_4  and  C_14
REMARK    3  A    between atoms: C_7  and  C_17
REMARK    4  A    between atoms: C_9  and  C_19
REMARK    5  A    between atoms: C_12  and  C_18
REMARK    6  A    between atoms: C_18  and  C_20
REMARK    7  A    between atoms: C_18  and  C_21
REMARK    8  A    between atoms: C_22  and  C_27
REMARK                            x       y       z     vdW  Elec       q    Type
REMARK                         _______ _______ _______ _____ _____    ______ ____
ROOT
ATOM      7  C   UNL     1      -4.841 -11.344  17.318  0.00  0.00    -0.027 C 
ATOM      8  C   UNL     1      -5.815 -10.559  16.379  0.00  0.00    +0.028 C 
ATOM      9  C   UNL     1      -7.279 -10.580  16.947  0.00  0.00    +0.012 C 
ATOM     10  C   UNL     1      -5.665 -11.019  14.900  0.00  0.00    +0.122 C 
ATOM     11  C   UNL     1      -3.393 -11.209  16.792  0.00  0.00    +0.007 C 
ATOM     12  C   UNL     1      -4.198 -10.979  14.411  0.00  0.00    +0.029 C 
ATOM     13  C   UNL     1      -4.890 -10.718  18.732  0.00  0.00    +0.009 C 
ATOM     14  C   UNL     1      -7.303 -10.017  18.396  0.00  0.00    +0.076 C 
ATOM     15  C   UNL     1      -3.234 -11.695  15.358  0.00  0.00    +0.007 C 
ATOM     16  C   UNL     1      -6.291 -10.687  19.325  0.00  0.00    +0.023 C 
ATOM     17  C   UNL     1      -5.196 -12.850  17.417  0.00  0.00    +0.011 C 
ATOM     19  C   UNL     1      -8.285  -9.799  16.084  0.00  0.00    +0.010 C 
ENDROOT
BRANCH  14   4
ATOM      3  O   UNL     1      -8.589 -12.431  19.268  0.00  0.00    -0.270 OA
ATOM      4  N   UNL     1      -8.618 -10.129  18.993  0.00  0.00    -0.308 N 
ATOM     22  C   UNL     1      -9.153 -11.346  19.381  0.00  0.00    +0.244 C 
ATOM     32  H   UNL     1      -9.185  -9.289  19.014  0.00  0.00    +0.149 HD
BRANCH  22  27
ATOM      6  N   UNL     1     -13.100 -11.199  21.031  0.00  0.00    -0.263 NA
ATOM     27  C   UNL     1     -10.523 -11.296  19.952  0.00  0.00    +0.040 A 
ATOM     28  C   UNL     1     -11.209 -10.087  20.016  0.00  0.00    +0.033 A 
ATOM     29  C   UNL     1     -11.125 -12.456  20.428  0.00  0.00    +0.033 A 
ATOM     30  C   UNL     1     -12.483 -10.093  20.560  0.00  0.00    +0.111 A 
ATOM     31  C   UNL     1     -12.402 -12.355  20.953  0.00  0.00    +0.111 A 
ENDBRANCH  22  27
ENDBRANCH  14   4
BRANCH  10   1
ATOM      1  O   UNL     1      -6.402 -10.139  14.050  0.00  0.00    -0.391 OA
ATOM     33  H   UNL     1      -5.771  -9.672  13.478  0.00  0.00    +0.210 HD
ENDBRANCH  10   1
BRANCH  12  18
ATOM     18  C   UNL     1      -4.053 -11.559  12.999  0.00  0.00    +0.078 C 
ATOM     20  C   UNL     1      -3.397 -12.927  13.033  0.00  0.00    +0.017 C 
BRANCH  18  21
ATOM      2  O   UNL     1      -2.045 -10.402  12.451  0.00  0.00    -0.275 OA
ATOM      5  N   UNL     1      -3.887 -10.009  11.114  0.00  0.00    -0.301 N 
ATOM     21  C   UNL     1      -3.226 -10.608  12.170  0.00  0.00    +0.219 C 
ATOM     23  C   UNL     1      -3.231  -9.063  10.224  0.00  0.00    +0.108 C 
ATOM     24  C   UNL     1      -5.279 -10.213  10.726  0.00  0.00    +0.108 C 
ATOM     25  C   UNL     1      -4.189  -8.915   9.051  0.00  0.00    +0.020 C 
ATOM     26  C   UNL     1      -5.552  -9.122   9.701  0.00  0.00    +0.020 C 
ENDBRANCH  18  21
ENDBRANCH  12  18
TORSDOF 5
ENDMDL
MODEL 2
REMARK VINA RESULT:      -7.1     25.623     27.973
REMARK  Name = 45361573
REMARK  8 active torsions:
REMARK  status: ('A' for Active; 'I' for Inactive)
REMARK    1  A    between atoms: O_1  and  C_10
REMARK    2  A    between atoms: N_4  and  C_14
REMARK    3  A    between atoms: C_7  and  C_17
REMARK    4  A    between atoms: C_9  and  C_19
REMARK    5  A    between atoms: C_12  and  C_18
REMARK    6  A    between atoms: C_18  and  C_20
REMARK    7  A    between atoms: C_18  and  C_21
REMARK    8  A    between atoms: C_22  and  C_27
REMARK                            x       y       z     vdW  Elec       q    Type
REMARK                         _______ _______ _______ _____ _____    ______ ____
ROOT
ATOM      7  C   UNL     1       9.498   5.919   5.967  0.00  0.00    -0.027 C 
ATOM      8  C   UNL     1      10.485   7.038   5.498  0.00  0.00    +0.028 C 
ATOM      9  C   UNL     1       9.993   8.452   5.973  0.00  0.00    +0.012 C 
ATOM     10  C   UNL     1      10.797   6.915   3.979  0.00  0.00    +0.122 C 
ATOM     11  C   UNL     1      10.067   4.533   5.582  0.00  0.00    +0.007 C 
ATOM     12  C   UNL     1      11.269   5.496   3.582  0.00  0.00    +0.029 C 
ATOM     13  C   UNL     1       9.375   5.967   7.507  0.00  0.00    +0.009 C 
ATOM     14  C   UNL     1       9.802   8.466   7.516  0.00  0.00    +0.076 C 
ATOM     15  C   UNL     1      10.337   4.395   4.089  0.00  0.00    +0.007 C 
ATOM     16  C   UNL     1       8.926   7.324   8.030  0.00  0.00    +0.023 C 
ATOM     17  C   UNL     1       8.088   6.069   5.339  0.00  0.00    +0.011 C 
ATOM     19  C   UNL     1      10.935   9.599   5.570  0.00  0.00    +0.010 C 
ENDROOT
BRANCH  14   4
ATOM      3  O   UNL     1      11.161  10.517   8.996  0.00  0.00    -0.270 OA
ATOM      4  N   UNL     1       9.239   9.719   7.975  0.00  0.00    -0.308 N 
ATOM     22  C   UNL     1       9.980  10.647   8.687  0.00  0.00    +0.244 C 
ATOM     32  H   UNL     1       8.239   9.844   7.853  0.00  0.00    +0.149 HD
BRANCH  22  27
ATOM      6  N   UNL     1       7.870  14.168   9.901  0.00  0.00    -0.263 NA
ATOM     27  C   UNL     1       9.249  11.869   9.108  0.00  0.00    +0.040 A 
ATOM     28  C   UNL     1       8.513  11.870  10.289  0.00  0.00    +0.033 A 
ATOM     29  C   UNL     1       9.297  13.017   8.324  0.00  0.00    +0.033 A 
ATOM     30  C   UNL     1       7.847  13.035  10.636  0.00  0.00    +0.111 A 
ATOM     31  C   UNL     1       8.596  14.130   8.760  0.00  0.00    +0.111 A 
ENDBRANCH  22  27
ENDBRANCH  14   4
BRANCH  10   1
ATOM      1  O   UNL     1      11.858   7.808   3.636  0.00  0.00    -0.391 OA
ATOM     33  H   UNL     1      12.014   8.397   4.393  0.00  0.00    +0.210 HD
ENDBRANCH  10   1
BRANCH  12  18
ATOM     18  C   UNL     1      11.445   5.359   2.065  0.00  0.00    +0.078 C 
ATOM     20  C   UNL     1      10.158   4.900   1.403  0.00  0.00    +0.017 C 
BRANCH  18  21
ATOM      2  O   UNL     1      12.373   3.166   2.008  0.00  0.00    -0.275 OA
ATOM      5  N   UNL     1      13.729   4.904   1.316  0.00  0.00    -0.301 N 
ATOM     21  C   UNL     1      12.548   4.367   1.796  0.00  0.00    +0.219 C 
ATOM     23  C   UNL     1      14.890   4.081   1.013  0.00  0.00    +0.108 C 
ATOM     24  C   UNL     1      13.998   6.312   1.041  0.00  0.00    +0.108 C 
ATOM     25  C   UNL     1      15.813   5.000   0.226  0.00  0.00    +0.020 C 
ATOM     26  C   UNL     1      15.502   6.373   0.810  0.00  0.00    +0.020 C 
ENDBRANCH  18  21
ENDBRANCH  12  18
TORSDOF 5
ENDMDL
MODEL 3
REMARK VINA RESULT:      -6.9      4.185      5.955
REMARK  Name = 45361573
REMARK  8 active torsions:
REMARK  status: ('A' for Active; 'I' for Inactive)
REMARK    1  A    between atoms: O_1  and  C_10
REMARK    2  A    between atoms: N_4  and  C_14
REMARK    3  A    between atoms: C_7  and  C_17
REMARK    4  A    between atoms: C_9  and  C_19
REMARK    5  A    between atoms: C_12  and  C_18
REMARK    6  A    between atoms: C_18  and  C_20
REMARK    7  A    between atoms: C_18  and  C_21
REMARK    8  A    between atoms: C_22  and  C_27
REMARK                            x       y       z     vdW  Elec       q    Type
REMARK                         _______ _______ _______ _____ _____    ______ ____
ROOT
ATOM      7  C   UNL     1      -9.554 -10.824  18.386  0.00  0.00    -0.027 C 
ATOM      8  C   UNL     1      -8.878  -9.926  17.298  0.00  0.00    +0.028 C 
ATOM      9  C   UNL     1      -9.956  -9.291  16.348  0.00  0.00    +0.012 C 
ATOM     10  C   UNL     1      -7.720 -10.681  16.583  0.00  0.00    +0.122 C 
ATOM     11  C   UNL     1      -8.479 -11.342  19.370  0.00  0.00    +0.007 C 
ATOM     12  C   UNL     1      -6.702 -11.286  17.578  0.00  0.00    +0.029 C 
ATOM     13  C   UNL     1     -10.559  -9.969  19.192  0.00  0.00    +0.009 C 
ATOM     14  C   UNL     1     -11.003  -8.495  17.177  0.00  0.00    +0.076 C 
ATOM     15  C   UNL     1      -7.365 -12.116  18.679  0.00  0.00    +0.007 C 
ATOM     16  C   UNL     1     -11.615  -9.305  18.320  0.00  0.00    +0.023 C 
ATOM     17  C   UNL     1     -10.297 -12.040  17.775  0.00  0.00    +0.011 C 
ATOM     19  C   UNL     1      -9.360  -8.370  15.269  0.00  0.00    +0.010 C 
ENDROOT
BRANCH  14   4
ATOM      3  O   UNL     1     -11.399  -5.775  16.349  0.00  0.00    -0.270 OA
ATOM      4  N   UNL     1     -12.076  -7.992  16.345  0.00  0.00    -0.308 N 
ATOM     22  C   UNL     1     -12.181  -6.655  16.000  0.00  0.00    +0.244 C 
ATOM     32  H   UNL     1     -12.820  -8.643  16.114  0.00  0.00    +0.149 HD
BRANCH  22  27
ATOM      6  N   UNL     1     -15.561  -5.622  13.585  0.00  0.00    -0.263 NA
ATOM     27  C   UNL     1     -13.354  -6.296  15.163  0.00  0.00    +0.040 A 
ATOM     28  C   UNL     1     -14.598  -6.859  15.426  0.00  0.00    +0.033 A 
ATOM     29  C   UNL     1     -13.212  -5.395  14.112  0.00  0.00    +0.033 A 
ATOM     30  C   UNL     1     -15.660  -6.492  14.614  0.00  0.00    +0.111 A 
ATOM     31  C   UNL     1     -14.336  -5.095  13.359  0.00  0.00    +0.111 A 
ENDBRANCH  22  27
ENDBRANCH  14   4
BRANCH  10   1
ATOM      1  O   UNL     1      -6.993  -9.769  15.759  0.00  0.00    -0.391 OA
ATOM     33  H   UNL     1      -6.322  -9.333  16.310  0.00  0.00    +0.210 HD
ENDBRANCH  10   1
BRANCH  12  18
ATOM     18  C   UNL     1      -5.644 -12.135  16.864  0.00  0.00    +0.078 C 
ATOM     20  C   UNL     1      -5.755 -13.596  17.259  0.00  0.00    +0.017 C 
BRANCH  18  21
ATOM      2  O   UNL     1      -3.933 -11.513  18.400  0.00  0.00    -0.275 OA
ATOM      5  N   UNL     1      -3.483 -11.238  16.151  0.00  0.00    -0.301 N 
ATOM     21  C   UNL     1      -4.278 -11.604  17.221  0.00  0.00    +0.219 C 
ATOM     23  C   UNL     1      -2.141 -10.702  16.329  0.00  0.00    +0.108 C 
ATOM     24  C   UNL     1      -3.829 -11.325  14.736  0.00  0.00    +0.108 C 
ATOM     25  C   UNL     1      -1.525 -10.749  14.938  0.00  0.00    +0.020 C 
ATOM     26  C   UNL     1      -2.730 -10.545  14.028  0.00  0.00    +0.020 C 
ENDBRANCH  18  21
ENDBRANCH  12  18
TORSDOF 5
ENDMDL
MODEL 4
REMARK VINA RESULT:      -6.9     18.716     23.433
REMARK  Name = 45361573
REMARK  8 active torsions:
REMARK  status: ('A' for Active; 'I' for Inactive)
REMARK    1  A    between atoms: O_1  and  C_10
REMARK    2  A    between atoms: N_4  and  C_14
REMARK    3  A    between atoms: C_7  and  C_17
REMARK    4  A    between atoms: C_9  and  C_19
REMARK    5  A    between atoms: C_12  and  C_18
REMARK    6  A    between atoms: C_18  and  C_20
REMARK    7  A    between atoms: C_18  and  C_21
REMARK    8  A    between atoms: C_22  and  C_27
REMARK                            x       y       z     vdW  Elec       q    Type
REMARK                         _______ _______ _______ _____ _____    ______ ____
ROOT
ATOM      7  C   UNL     1     -14.921   1.647  31.238  0.00  0.00    -0.027 C 
ATOM      8  C   UNL     1     -15.762   2.926  30.916  0.00  0.00    +0.028 C 
ATOM      9  C   UNL     1     -15.895   3.132  29.365  0.00  0.00    +0.012 C 
ATOM     10  C   UNL     1     -15.241   4.159  31.710  0.00  0.00    +0.122 C 
ATOM     11  C   UNL     1     -14.904   1.411  32.766  0.00  0.00    +0.007 C 
ATOM     12  C   UNL     1     -15.128   3.883  33.229  0.00  0.00    +0.029 C 
ATOM     13  C   UNL     1     -15.596   0.421  30.579  0.00  0.00    +0.009 C 
ATOM     14  C   UNL     1     -16.506   1.864  28.704  0.00  0.00    +0.076 C 
ATOM     15  C   UNL     1     -14.357   2.600  33.545  0.00  0.00    +0.007 C 
ATOM     16  C   UNL     1     -15.776   0.574  29.076  0.00  0.00    +0.023 C 
ATOM     17  C   UNL     1     -13.459   1.755  30.734  0.00  0.00    +0.011 C 
ATOM     19  C   UNL     1     -16.737   4.360  28.976  0.00  0.00    +0.010 C 
ENDROOT
BRANCH  14   4
ATOM      3  O   UNL     1     -18.715   1.230  26.983  0.00  0.00    -0.270 OA
ATOM      4  N   UNL     1     -16.537   1.974  27.260  0.00  0.00    -0.308 N 
ATOM     22  C   UNL     1     -17.656   1.641  26.516  0.00  0.00    +0.244 C 
ATOM     32  H   UNL     1     -15.662   2.199  26.799  0.00  0.00    +0.149 HD
BRANCH  22  27
ATOM      6  N   UNL     1     -17.262   2.055  22.274  0.00  0.00    -0.263 NA
ATOM     27  C   UNL     1     -17.518   1.784  25.044  0.00  0.00    +0.040 A 
ATOM     28  C   UNL     1     -16.781   2.836  24.510  0.00  0.00    +0.033 A 
ATOM     29  C   UNL     1     -18.127   0.867  24.193  0.00  0.00    +0.033 A 
ATOM     30  C   UNL     1     -16.685   2.926  23.131  0.00  0.00    +0.111 A 
ATOM     31  C   UNL     1     -17.970   1.045  22.828  0.00  0.00    +0.111 A 
ENDBRANCH  22  27
ENDBRANCH  14   4
BRANCH  10   1
ATOM      1  O   UNL     1     -16.156   5.244  31.561  0.00  0.00    -0.391 OA
ATOM     33  H   UNL     1     -15.887   5.953  32.168  0.00  0.00    +0.210 HD
ENDBRANCH  10   1
BRANCH  12  18
ATOM     18  C   UNL     1     -14.490   5.061  33.975  0.00  0.00    +0.078 C 
ATOM     20  C   UNL     1     -14.223   4.709  35.427  0.00  0.00    +0.017 C 
BRANCH  18  21
ATOM      2  O   UNL     1     -16.605   6.131  34.212  0.00  0.00    -0.275 OA
ATOM      5  N   UNL     1     -14.852   7.419  33.435  0.00  0.00    -0.301 N 
ATOM     21  C   UNL     1     -15.421   6.244  33.892  0.00  0.00    +0.219 C 
ATOM     23  C   UNL     1     -15.617   8.648  33.291  0.00  0.00    +0.108 C 
ATOM     24  C   UNL     1     -13.460   7.620  33.044  0.00  0.00    +0.108 C 
ATOM     25  C   UNL     1     -14.567   9.730  33.091  0.00  0.00    +0.020 C 
ATOM     26  C   UNL     1     -13.448   8.986  32.372  0.00  0.00    +0.020 C 
ENDBRANCH  18  21
ENDBRANCH  12  18
TORSDOF 5
ENDMDL
MODEL 5
REMARK VINA RESULT:      -6.5      3.340      9.569
REMARK  Name = 45361573
REMARK  8 active torsions:
REMARK  status: ('A' for Active; 'I' for Inactive)
REMARK    1  A    between atoms: O_1  and  C_10
REMARK    2  A    between atoms: N_4  and  C_14
REMARK    3  A    between atoms: C_7  and  C_17
REMARK    4  A    between atoms: C_9  and  C_19
REMARK    5  A    between atoms: C_12  and  C_18
REMARK    6  A    between atoms: C_18  and  C_20
REMARK    7  A    between atoms: C_18  and  C_21
REMARK    8  A    between atoms: C_22  and  C_27
REMARK                            x       y       z     vdW  Elec       q    Type
REMARK                         _______ _______ _______ _____ _____    ______ ____
ROOT
ATOM      7  C   UNL     1      -3.585 -11.178  11.183  0.00  0.00    -0.027 C 
ATOM      8  C   UNL     1      -5.019 -10.843  11.709  0.00  0.00    +0.028 C 
ATOM      9  C   UNL     1      -5.789  -9.928  10.690  0.00  0.00    +0.012 C 
ATOM     10  C   UNL     1      -4.975 -10.321  13.174  0.00  0.00    +0.122 C 
ATOM     11  C   UNL     1      -2.897 -12.168  12.151  0.00  0.00    +0.007 C 
ATOM     12  C   UNL     1      -4.195 -11.266  14.119  0.00  0.00    +0.029 C 
ATOM     13  C   UNL     1      -3.702 -11.871   9.805  0.00  0.00    +0.009 C 
ATOM     14  C   UNL     1      -5.836 -10.602   9.290  0.00  0.00    +0.076 C 
ATOM     15  C   UNL     1      -2.816 -11.644  13.579  0.00  0.00    +0.007 C 
ATOM     16  C   UNL     1      -4.464 -11.041   8.781  0.00  0.00    +0.023 C 
ATOM     17  C   UNL     1      -2.693  -9.918  11.044  0.00  0.00    +0.011 C 
ATOM     19  C   UNL     1      -7.221  -9.582  11.134  0.00  0.00    +0.010 C 
ENDROOT
BRANCH  14   4
ATOM      3  O   UNL     1      -7.455 -11.411   7.062  0.00  0.00    -0.270 OA
ATOM      4  N   UNL     1      -6.438  -9.735   8.298  0.00  0.00    -0.308 N 
ATOM     22  C   UNL     1      -7.205 -10.225   7.255  0.00  0.00    +0.244 C 
ATOM     32  H   UNL     1      -6.181  -8.754   8.331  0.00  0.00    +0.149 HD
BRANCH  22  27
ATOM      6  N   UNL     1      -8.717  -7.298   4.521  0.00  0.00    -0.263 NA
ATOM     27  C   UNL     1      -7.728  -9.209   6.307  0.00  0.00    +0.040 A 
ATOM     28  C   UNL     1      -8.599  -8.220   6.753  0.00  0.00    +0.033 A 
ATOM     29  C   UNL     1      -7.352  -9.243   4.968  0.00  0.00    +0.033 A 
ATOM     30  C   UNL     1      -9.061  -7.297   5.828  0.00  0.00    +0.111 A 
ATOM     31  C   UNL     1      -7.869  -8.274   4.124  0.00  0.00    +0.111 A 
ENDBRANCH  22  27
ENDBRANCH  14   4
BRANCH  10   1
ATOM      1  O   UNL     1      -6.303 -10.233  13.690  0.00  0.00    -0.391 OA
ATOM     33  H   UNL     1      -6.298 -10.575  14.599  0.00  0.00    +0.210 HD
ENDBRANCH  10   1
BRANCH  12  18
ATOM     18  C   UNL     1      -4.050 -10.673  15.525  0.00  0.00    +0.078 C 
ATOM     20  C   UNL     1      -2.592 -10.593  15.938  0.00  0.00    +0.017 C 
BRANCH  18  21
ATOM      2  O   UNL     1      -4.457 -12.694  16.717  0.00  0.00    -0.275 OA
ATOM      5  N   UNL     1      -5.917 -10.941  17.082  0.00  0.00    -0.301 N 
ATOM     21  C   UNL     1      -4.816 -11.537  16.495  0.00  0.00    +0.219 C 
ATOM     23  C   UNL     1      -6.764 -11.644  18.034  0.00  0.00    +0.108 C 
ATOM     24  C   UNL     1      -6.392  -9.578  16.865  0.00  0.00    +0.108 C 
ATOM     25  C   UNL     1      -7.622 -10.553  18.658  0.00  0.00    +0.020 C 
ATOM     26  C   UNL     1      -7.763  -9.544  17.525  0.00  0.00    +0.020 C 
ENDBRANCH  18  21
ENDBRANCH  12  18
TORSDOF 5
ENDMDL
MODEL 6
REMARK VINA RESULT:      -6.3     25.369     28.431
REMARK  Name = 45361573
REMARK  8 active torsions:
REMARK  status: ('A' for Active; 'I' for Inactive)
REMARK    1  A    between atoms: O_1  and  C_10
REMARK    2  A    between atoms: N_4  and  C_14
REMARK    3  A    between atoms: C_7  and  C_17
REMARK    4  A    between atoms: C_9  and  C_19
REMARK    5  A    between atoms: C_12  and  C_18
REMARK    6  A    between atoms: C_18  and  C_20
REMARK    7  A    between atoms: C_18  and  C_21
REMARK    8  A    between atoms: C_22  and  C_27
REMARK                            x       y       z     vdW  Elec       q    Type
REMARK                         _______ _______ _______ _____ _____    ______ ____
ROOT
ATOM      7  C   UNL     1      13.092   4.674   0.888  0.00  0.00    -0.027 C 
ATOM      8  C   UNL     1      11.729   5.318   0.470  0.00  0.00    +0.028 C 
ATOM      9  C   UNL     1      10.920   5.784   1.732  0.00  0.00    +0.012 C 
ATOM     10  C   UNL     1      10.953   4.402  -0.520  0.00  0.00    +0.122 C 
ATOM     11  C   UNL     1      13.911   4.330  -0.378  0.00  0.00    +0.007 C 
ATOM     12  C   UNL     1      11.812   3.976  -1.734  0.00  0.00    +0.029 C 
ATOM     13  C   UNL     1      13.904   5.702   1.709  0.00  0.00    +0.009 C 
ATOM     14  C   UNL     1      11.774   6.760   2.590  0.00  0.00    +0.076 C 
ATOM     15  C   UNL     1      13.170   3.401  -1.331  0.00  0.00    +0.007 C 
ATOM     16  C   UNL     1      13.159   6.211   2.935  0.00  0.00    +0.023 C 
ATOM     17  C   UNL     1      12.907   3.384   1.727  0.00  0.00    +0.011 C 
ATOM     19  C   UNL     1       9.578   6.454   1.391  0.00  0.00    +0.010 C 
ENDROOT
BRANCH  14   4
ATOM      3  O   UNL     1      10.832   4.958   4.617  0.00  0.00    -0.270 OA
ATOM      4  N   UNL     1      11.103   7.119   3.822  0.00  0.00    -0.308 N 
ATOM     22  C   UNL     1      10.684   6.171   4.740  0.00  0.00    +0.244 C 
ATOM     32  H   UNL     1      10.848   8.094   3.937  0.00  0.00    +0.149 HD
BRANCH  22  27
ATOM      6  N   UNL     1       8.672   7.692   8.199  0.00  0.00    -0.263 NA
ATOM     27  C   UNL     1       9.988   6.699   5.940  0.00  0.00    +0.040 A 
ATOM     28  C   UNL     1       9.866   5.911   7.081  0.00  0.00    +0.033 A 
ATOM     29  C   UNL     1       9.453   7.983   5.929  0.00  0.00    +0.033 A 
ATOM     30  C   UNL     1       9.204   6.450   8.173  0.00  0.00    +0.111 A 
ATOM     31  C   UNL     1       8.810   8.428   7.073  0.00  0.00    +0.111 A 
ENDBRANCH  22  27
ENDBRANCH  14   4
BRANCH  10   1
ATOM      1  O   UNL     1       9.829   5.110  -1.044  0.00  0.00    -0.391 OA
ATOM     33  H   UNL     1       9.082   4.491  -1.102  0.00  0.00    +0.210 HD
ENDBRANCH  10   1
BRANCH  12  18
ATOM     18  C   UNL     1      11.075   2.971  -2.628  0.00  0.00    +0.078 C 
ATOM     20  C   UNL     1      11.581   1.559  -2.396  0.00  0.00    +0.017 C 
BRANCH  18  21
ATOM      2  O   UNL     1      12.368   3.174  -4.618  0.00  0.00    -0.275 OA
ATOM      5  N   UNL     1      10.191   3.943  -4.691  0.00  0.00    -0.301 N 
ATOM     21  C   UNL     1      11.283   3.365  -4.069  0.00  0.00    +0.219 C 
ATOM     23  C   UNL     1      10.231   4.384  -6.077  0.00  0.00    +0.108 C 
ATOM     24  C   UNL     1       8.880   4.192  -4.100  0.00  0.00    +0.108 C 
ATOM     25  C   UNL     1       8.775   4.638  -6.438  0.00  0.00    +0.020 C 
ATOM     26  C   UNL     1       8.170   5.080  -5.111  0.00  0.00    +0.020 C 
ENDBRANCH  18  21
ENDBRANCH  12  18
TORSDOF 5
ENDMDL
MODEL 7
REMARK VINA RESULT:      -6.3      2.593     10.225
REMARK  Name = 45361573
REMARK  8 active torsions:
REMARK  status: ('A' for Active; 'I' for Inactive)
REMARK    1  A    between atoms: O_1  and  C_10
REMARK    2  A    between atoms: N_4  and  C_14
REMARK    3  A    between atoms: C_7  and  C_17
REMARK    4  A    between atoms: C_9  and  C_19
REMARK    5  A    between atoms: C_12  and  C_18
REMARK    6  A    between atoms: C_18  and  C_20
REMARK    7  A    between atoms: C_18  and  C_21
REMARK    8  A    between atoms: C_22  and  C_27
REMARK                            x       y       z     vdW  Elec       q    Type
REMARK                         _______ _______ _______ _____ _____    ______ ____
ROOT
ATOM      7  C   UNL     1     -10.394  -9.799  17.730  0.00  0.00    -0.027 C 
ATOM      8  C   UNL     1      -9.541 -10.875  18.479  0.00  0.00    +0.028 C 
ATOM      9  C   UNL     1      -8.274 -11.268  17.639  0.00  0.00    +0.012 C 
ATOM     10  C   UNL     1     -10.424 -12.066  18.952  0.00  0.00    +0.122 C 
ATOM     11  C   UNL     1     -11.570  -9.353  18.630  0.00  0.00    +0.007 C 
ATOM     12  C   UNL     1     -11.657 -11.606  19.766  0.00  0.00    +0.029 C 
ATOM     13  C   UNL     1      -9.513  -8.559  17.456  0.00  0.00    +0.009 C 
ATOM     14  C   UNL     1      -7.434 -10.003  17.307  0.00  0.00    +0.076 C 
ATOM     15  C   UNL     1     -12.460 -10.511  19.063  0.00  0.00    +0.007 C 
ATOM     16  C   UNL     1      -8.253  -8.882  16.666  0.00  0.00    +0.023 C 
ATOM     17  C   UNL     1     -10.966 -10.323  16.388  0.00  0.00    +0.011 C 
ATOM     19  C   UNL     1      -7.372 -12.304  18.333  0.00  0.00    +0.010 C 
ENDROOT
BRANCH  14   4
ATOM      3  O   UNL     1      -4.657 -10.062  18.031  0.00  0.00    -0.270 OA
ATOM      4  N   UNL     1      -6.320 -10.312  16.435  0.00  0.00    -0.308 N 
ATOM     22  C   UNL     1      -5.009 -10.313  16.882  0.00  0.00    +0.244 C 
ATOM     32  H   UNL     1      -6.526 -10.419  15.448  0.00  0.00    +0.149 HD
BRANCH  22  27
ATOM      6  N   UNL     1      -2.039 -11.207  13.932  0.00  0.00    -0.263 NA
ATOM     27  C   UNL     1      -3.979 -10.625  15.859  0.00  0.00    +0.040 A 
ATOM     28  C   UNL     1      -2.677 -10.925  16.246  0.00  0.00    +0.033 A 
ATOM     29  C   UNL     1      -4.312 -10.617  14.508  0.00  0.00    +0.033 A 
ATOM     30  C   UNL     1      -1.753 -11.205  15.252  0.00  0.00    +0.111 A 
ATOM     31  C   UNL     1      -3.315 -10.911  13.592  0.00  0.00    +0.111 A 
ENDBRANCH  22  27
ENDBRANCH  14   4
BRANCH  10   1
ATOM      1  O   UNL     1      -9.661 -12.914  19.812  0.00  0.00    -0.391 OA
ATOM     33  H   UNL     1     -10.021 -12.835  20.711  0.00  0.00    +0.210 HD
ENDBRANCH  10   1
BRANCH  12  18
ATOM     18  C   UNL     1     -12.582 -12.779  20.110  0.00  0.00    +0.078 C 
ATOM     20  C   UNL     1     -13.723 -12.887  19.115  0.00  0.00    +0.017 C 
BRANCH  18  21
ATOM      2  O   UNL     1     -13.986 -11.716  21.713  0.00  0.00    -0.275 OA
ATOM      5  N   UNL     1     -12.591 -13.391  22.478  0.00  0.00    -0.301 N 
ATOM     21  C   UNL     1     -13.127 -12.572  21.501  0.00  0.00    +0.219 C 
ATOM     23  C   UNL     1     -13.006 -13.311  23.871  0.00  0.00    +0.108 C 
ATOM     24  C   UNL     1     -11.577 -14.424  22.292  0.00  0.00    +0.108 C 
ATOM     25  C   UNL     1     -12.434 -14.567  24.512  0.00  0.00    +0.020 C 
ATOM     26  C   UNL     1     -11.163 -14.808  23.706  0.00  0.00    +0.020 C 
ENDBRANCH  18  21
ENDBRANCH  12  18
TORSDOF 5
ENDMDL
MODEL 8
REMARK VINA RESULT:      -6.2     29.648     31.647
REMARK  Name = 45361573
REMARK  8 active torsions:
REMARK  status: ('A' for Active; 'I' for Inactive)
REMARK    1  A    between atoms: O_1  and  C_10
REMARK    2  A    between atoms: N_4  and  C_14
REMARK    3  A    between atoms: C_7  and  C_17
REMARK    4  A    between atoms: C_9  and  C_19
REMARK    5  A    between atoms: C_12  and  C_18
REMARK    6  A    between atoms: C_18  and  C_20
REMARK    7  A    between atoms: C_18  and  C_21
REMARK    8  A    between atoms: C_22  and  C_27
REMARK                            x       y       z     vdW  Elec       q    Type
REMARK                         _______ _______ _______ _____ _____    ______ ____
ROOT
ATOM      7  C   UNL     1      21.163  -5.574   0.611  0.00  0.00    -0.027 C 
ATOM      8  C   UNL     1      20.290  -6.871   0.638  0.00  0.00    +0.028 C 
ATOM      9  C   UNL     1      21.038  -8.034   1.383  0.00  0.00    +0.012 C 
ATOM     10  C   UNL     1      19.758  -7.222  -0.782  0.00  0.00    +0.122 C 
ATOM     11  C   UNL     1      20.355  -4.420  -0.028  0.00  0.00    +0.007 C 
ATOM     12  C   UNL     1      19.040  -6.030  -1.459  0.00  0.00    +0.029 C 
ATOM     13  C   UNL     1      21.501  -5.164   2.064  0.00  0.00    +0.009 C 
ATOM     14  C   UNL     1      21.438  -7.585   2.816  0.00  0.00    +0.076 C 
ATOM     15  C   UNL     1      19.866  -4.744  -1.433  0.00  0.00    +0.007 C 
ATOM     16  C   UNL     1      22.206  -6.263   2.846  0.00  0.00    +0.023 C 
ATOM     17  C   UNL     1      22.480  -5.760  -0.184  0.00  0.00    +0.011 C 
ATOM     19  C   UNL     1      20.221  -9.335   1.471  0.00  0.00    +0.010 C 
ENDROOT
BRANCH  14   4
ATOM      3  O   UNL     1      21.585  -8.036   5.648  0.00  0.00    -0.270 OA
ATOM      4  N   UNL     1      22.231  -8.591   3.491  0.00  0.00    -0.308 N 
ATOM     22  C   UNL     1      22.235  -8.729   4.869  0.00  0.00    +0.244 C 
ATOM     32  H   UNL     1      22.878  -9.124   2.920  0.00  0.00    +0.149 HD
BRANCH  22  27
ATOM      6  N   UNL     1      24.792 -11.791   6.420  0.00  0.00    -0.263 NA
ATOM     27  C   UNL     1      23.121  -9.791   5.409  0.00  0.00    +0.040 A 
ATOM     28  C   UNL     1      24.499  -9.601   5.440  0.00  0.00    +0.033 A 
ATOM     29  C   UNL     1      22.578 -10.980   5.884  0.00  0.00    +0.033 A 
ATOM     30  C   UNL     1      25.283 -10.624   5.950  0.00  0.00    +0.111 A 
ATOM     31  C   UNL     1      23.448 -11.940   6.374  0.00  0.00    +0.111 A 
ENDBRANCH  22  27
ENDBRANCH  14   4
BRANCH  10   1
ATOM      1  O   UNL     1      18.798  -8.275  -0.685  0.00  0.00    -0.391 OA
ATOM     33  H   UNL     1      17.913  -7.874  -0.638  0.00  0.00    +0.210 HD
ENDBRANCH  10   1
BRANCH  12  18
ATOM     18  C   UNL     1      18.640  -6.353  -2.904  0.00  0.00    +0.078 C 
ATOM     20  C   UNL     1      19.663  -5.818  -3.888  0.00  0.00    +0.017 C 
BRANCH  18  21
ATOM      2  O   UNL     1      17.158  -4.517  -3.236  0.00  0.00    -0.275 OA
ATOM      5  N   UNL     1      16.251  -6.639  -3.344  0.00  0.00    -0.301 N 
ATOM     21  C   UNL     1      17.289  -5.741  -3.178  0.00  0.00    +0.219 C 
ATOM     23  C   UNL     1      14.886  -6.208  -3.608  0.00  0.00    +0.108 C 
ATOM     24  C   UNL     1      16.339  -8.095  -3.291  0.00  0.00    +0.108 C 
ATOM     25  C   UNL     1      14.163  -7.475  -4.039  0.00  0.00    +0.020 C 
ATOM     26  C   UNL     1      14.891  -8.563  -3.258  0.00  0.00    +0.020 C 
ENDBRANCH  18  21
ENDBRANCH  12  18
TORSDOF 5
ENDMDL
MODEL 9
REMARK VINA RESULT:      -6.2      3.764     10.349
REMARK  Name = 45361573
REMARK  8 active torsions:
REMARK  status: ('A' for Active; 'I' for Inactive)
REMARK    1  A    between atoms: O_1  and  C_10
REMARK    2  A    between atoms: N_4  and  C_14
REMARK    3  A    between atoms: C_7  and  C_17
REMARK    4  A    between atoms: C_9  and  C_19
REMARK    5  A    between atoms: C_12  and  C_18
REMARK    6  A    between atoms: C_18  and  C_20
REMARK    7  A    between atoms: C_18  and  C_21
REMARK    8  A    between atoms: C_22  and  C_27
REMARK                            x       y       z     vdW  Elec       q    Type
REMARK                         _______ _______ _______ _____ _____    ______ ____
ROOT
ATOM      7  C   UNL     1      -3.740 -13.970  12.653  0.00  0.00    -0.027 C 
ATOM      8  C   UNL     1      -4.062 -12.528  12.141  0.00  0.00    +0.028 C 
ATOM      9  C   UNL     1      -3.549 -12.329  10.670  0.00  0.00    +0.012 C 
ATOM     10  C   UNL     1      -3.597 -11.450  13.162  0.00  0.00    +0.122 C 
ATOM     11  C   UNL     1      -4.355 -14.170  14.058  0.00  0.00    +0.007 C 
ATOM     12  C   UNL     1      -4.133 -11.713  14.589  0.00  0.00    +0.029 C 
ATOM     13  C   UNL     1      -4.392 -15.001  11.702  0.00  0.00    +0.009 C 
ATOM     14  C   UNL     1      -4.154 -13.416   9.737  0.00  0.00    +0.076 C 
ATOM     15  C   UNL     1      -3.872 -13.140  15.071  0.00  0.00    +0.007 C 
ATOM     16  C   UNL     1      -3.952 -14.840  10.254  0.00  0.00    +0.023 C 
ATOM     17  C   UNL     1      -2.217 -14.245  12.734  0.00  0.00    +0.011 C 
ATOM     19  C   UNL     1      -3.860 -10.938  10.092  0.00  0.00    +0.010 C 
ENDROOT
BRANCH  14   4
ATOM      3  O   UNL     1      -5.641 -13.067   7.306  0.00  0.00    -0.270 OA
ATOM      4  N   UNL     1      -3.612 -13.334   8.396  0.00  0.00    -0.308 N 
ATOM     22  C   UNL     1      -4.417 -13.165   7.282  0.00  0.00    +0.244 C 
ATOM     32  H   UNL     1      -2.620 -13.518   8.291  0.00  0.00    +0.149 HD
BRANCH  22  27
ATOM      6  N   UNL     1      -2.384 -13.057   3.517  0.00  0.00    -0.263 NA
ATOM     27  C   UNL     1      -3.711 -13.126   5.977  0.00  0.00    +0.040 A 
ATOM     28  C   UNL     1      -4.205 -12.345   4.937  0.00  0.00    +0.033 A 
ATOM     29  C   UNL     1      -2.552 -13.872   5.786  0.00  0.00    +0.033 A 
ATOM     30  C   UNL     1      -3.511 -12.345   3.738  0.00  0.00    +0.111 A 
ATOM     31  C   UNL     1      -1.932 -13.804   4.549  0.00  0.00    +0.111 A 
ENDBRANCH  22  27
ENDBRANCH  14   4
BRANCH  10   1
ATOM      1  O   UNL     1      -4.098 -10.172  12.767  0.00  0.00    -0.391 OA
ATOM     33  H   UNL     1      -3.986 -10.087  11.806  0.00  0.00    +0.210 HD
ENDBRANCH  10   1
BRANCH  12  18
ATOM     18  C   UNL     1      -3.559 -10.717  15.605  0.00  0.00    +0.078 C 
ATOM     20  C   UNL     1      -2.075 -10.950  15.821  0.00  0.00    +0.017 C 
BRANCH  18  21
ATOM      2  O   UNL     1      -3.761 -11.409  17.875  0.00  0.00    -0.275 OA
ATOM      5  N   UNL     1      -5.598 -10.389  16.915  0.00  0.00    -0.301 N 
ATOM     21  C   UNL     1      -4.303 -10.874  16.907  0.00  0.00    +0.219 C 
ATOM     23  C   UNL     1      -6.450 -10.470  18.092  0.00  0.00    +0.108 C 
ATOM     24  C   UNL     1      -6.295  -9.742  15.807  0.00  0.00    +0.108 C 
ATOM     25  C   UNL     1      -7.622  -9.552  17.777  0.00  0.00    +0.020 C 
ATOM     26  C   UNL     1      -7.745  -9.668  16.262  0.00  0.00    +0.020 C 
ENDBRANCH  18  21
ENDBRANCH  12  18
TORSDOF 5
ENDMDL
MODEL 10
REMARK VINA RESULT:      -6.2      1.585      2.002
REMARK  Name = 45361573
REMARK  8 active torsions:
REMARK  status: ('A' for Active; 'I' for Inactive)
REMARK    1  A    between atoms: O_1  and  C_10
REMARK    2  A    between atoms: N_4  and  C_14
REMARK    3  A    between atoms: C_7  and  C_17
REMARK    4  A    between atoms: C_9  and  C_19
REMARK    5  A    between atoms: C_12  and  C_18
REMARK    6  A    between atoms: C_18  and  C_20
REMARK    7  A    between atoms: C_18  and  C_21
REMARK    8  A    between atoms: C_22  and  C_27
REMARK                            x       y       z     vdW  Elec       q    Type
REMARK                         _______ _______ _______ _____ _____    ______ ____
ROOT
ATOM      7  C   UNL     1      -5.279 -10.828  15.929  0.00  0.00    -0.027 C 
ATOM      8  C   UNL     1      -6.406  -9.953  15.288  0.00  0.00    +0.028 C 
ATOM      9  C   UNL     1      -7.739 -10.067  16.110  0.00  0.00    +0.012 C 
ATOM     10  C   UNL     1      -6.536 -10.230  13.762  0.00  0.00    +0.122 C 
ATOM     11  C   UNL     1      -3.953 -10.606  15.165  0.00  0.00    +0.007 C 
ATOM     12  C   UNL     1      -5.184 -10.108  13.019  0.00  0.00    +0.029 C 
ATOM     13  C   UNL     1      -5.061 -10.377  17.392  0.00  0.00    +0.009 C 
ATOM     14  C   UNL     1      -7.491  -9.682  17.595  0.00  0.00    +0.076 C 
ATOM     15  C   UNL     1      -4.066 -10.915  13.678  0.00  0.00    +0.007 C 
ATOM     16  C   UNL     1      -6.328 -10.441  18.234  0.00  0.00    +0.023 C 
ATOM     17  C   UNL     1      -5.618 -12.341  15.909  0.00  0.00    +0.011 C 
ATOM     19  C   UNL     1      -8.884  -9.206  15.549  0.00  0.00    +0.010 C 
ENDROOT
BRANCH  14   4
ATOM      3  O   UNL     1      -8.782 -12.188  18.141  0.00  0.00    -0.270 OA
ATOM      4  N   UNL     1      -8.673  -9.887  18.407  0.00  0.00    -0.308 N 
ATOM     22  C   UNL     1      -9.222 -11.142  18.610  0.00  0.00    +0.244 C 
ATOM     32  H   UNL     1      -9.155  -9.056  18.733  0.00  0.00    +0.149 HD
BRANCH  22  27
ATOM      6  N   UNL     1     -12.757 -11.253  21.022  0.00  0.00    -0.263 NA
ATOM     27  C   UNL     1     -10.449 -11.181  19.445  0.00  0.00    +0.040 A 
ATOM     28  C   UNL     1     -11.190 -10.022  19.654  0.00  0.00    +0.033 A 
ATOM     29  C   UNL     1     -10.863 -12.377  20.025  0.00  0.00    +0.033 A 
ATOM     30  C   UNL     1     -12.325 -10.111  20.443  0.00  0.00    +0.111 A 
ATOM     31  C   UNL     1     -12.012 -12.360  20.797  0.00  0.00    +0.111 A 
ENDBRANCH  22  27
ENDBRANCH  14   4
BRANCH  10   1
ATOM      1  O   UNL     1      -7.413  -9.268  13.176  0.00  0.00    -0.391 OA
ATOM     33  H   UNL     1      -6.871  -8.554  12.801  0.00  0.00    +0.210 HD
ENDBRANCH  10   1
BRANCH  12  18
ATOM     18  C   UNL     1      -5.308 -10.512  11.545  0.00  0.00    +0.078 C 
ATOM     20  C   UNL     1      -4.083 -11.279  11.083  0.00  0.00    +0.017 C 
BRANCH  18  21
ATOM      2  O   UNL     1      -4.689  -8.326  10.829  0.00  0.00    -0.275 OA
ATOM      5  N   UNL     1      -6.563  -9.263   9.857  0.00  0.00    -0.301 N 
ATOM     21  C   UNL     1      -5.479  -9.264  10.716  0.00  0.00    +0.219 C 
ATOM     23  C   UNL     1      -6.871  -8.132   8.995  0.00  0.00    +0.108 C 
ATOM     24  C   UNL     1      -7.532 -10.340   9.673  0.00  0.00    +0.108 C 
ATOM     25  C   UNL     1      -7.903  -8.669   8.015  0.00  0.00    +0.020 C 
ATOM     26  C   UNL     1      -8.643  -9.714   8.843  0.00  0.00    +0.020 C 
ENDBRANCH  18  21
ENDBRANCH  12  18
TORSDOF 5
ENDMDL
