MODEL 1
REMARK VINA RESULT:      -6.7      0.000      0.000
REMARK  Name = 7049356
REMARK  13 active torsions:
REMARK  status: ('A' for Active; 'I' for Inactive)
REMARK    1  A    between atoms: O_1  and  C_10
REMARK    2  A    between atoms: O_2  and  C_12
REMARK    3  A    between atoms: N_6  and  C_11
REMARK    4  A    between atoms: N_7  and  C_16
REMARK    5  A    between atoms: N_9  and  C_25
REMARK    6  A    between atoms: C_14  and  C_17
REMARK    7  A    between atoms: C_16  and  C_18
REMARK    8  A    between atoms: C_16  and  C_23
REMARK    9  A    between atoms: C_18  and  C_19
REMARK   10  A    between atoms: C_19  and  C_21
REMARK   11  A    between atoms: C_19  and  C_22
REMARK   12  A    between atoms: C_20  and  C_24
REMARK   13  A    between atoms: C_24  and  C_25
REMARK                            x       y       z     vdW  Elec       q    Type
REMARK                         _______ _______ _______ _____ _____    ______ ____
ROOT
ATOM     10  C   UNL     1      13.108   7.323   7.059  0.00  0.00    +0.167 C 
ATOM     11  C   UNL     1      11.773   6.858   6.448  0.00  0.00    +0.127 C 
ATOM     12  C   UNL     1      13.838   8.305   6.134  0.00  0.00    +0.149 C 
ATOM     13  C   UNL     1      14.070   7.717   4.732  0.00  0.00    +0.074 C 
ATOM     14  C   UNL     1      12.916   6.896   4.232  0.00  0.00    +0.015 C 
ATOM     15  C   UNL     1      11.876   6.510   4.987  0.00  0.00    +0.006 C 
ENDROOT
BRANCH  14  17
ATOM      3  O   UNL     1      12.422   7.238   1.968  0.00  0.00    -0.271 OA
ATOM      7  N   UNL     1      13.491   5.266   2.604  0.00  0.00    -0.300 N 
ATOM     17  C   UNL     1      12.910   6.502   2.820  0.00  0.00    +0.241 C 
ATOM     27  H   UNL     1      13.926   4.777   3.383  0.00  0.00    +0.150 HD
BRANCH   7  16
ATOM     16  C   UNL     1      13.599   4.666   1.300  0.00  0.00    +0.159 C 
BRANCH  16  23
ATOM      5  O   UNL     1      15.645   3.952   0.198  0.00  0.00    -0.274 OA
ATOM      8  N   UNL     1      15.402   3.527   2.442  0.00  0.00    -0.328 N 
ATOM     23  C   UNL     1      14.971   4.009   1.223  0.00  0.00    +0.231 C 
ATOM     30  H   UNL     1      16.307   3.078   2.533  0.00  0.00    +0.145 HD
ATOM     31  H   UNL     1      14.843   3.602   3.286  0.00  0.00    +0.145 HD
ENDBRANCH  16  23
BRANCH  16  18
ATOM     18  C   UNL     1      12.499   3.630   1.043  0.00  0.00    +0.034 C 
BRANCH  18  19
ATOM     19  C   UNL     1      11.364   4.107   0.114  0.00  0.00    -0.015 C 
ATOM     21  C   UNL     1      11.907   5.140  -0.877  0.00  0.00    +0.007 C 
ATOM     22  C   UNL     1      10.189   4.705   0.888  0.00  0.00    +0.007 C 
ENDBRANCH  18  19
ENDBRANCH  16  18
ENDBRANCH   7  16
ENDBRANCH  14  17
BRANCH  11   6
ATOM      4  O   UNL     1       9.244   6.749   7.791  0.00  0.00    -0.276 OA
ATOM      6  N   UNL     1      11.229   5.726   7.158  0.00  0.00    -0.306 N 
ATOM     20  C   UNL     1       9.989   5.772   7.779  0.00  0.00    +0.215 C 
ATOM     26  H   UNL     1      11.792   4.884   7.240  0.00  0.00    +0.149 HD
BRANCH  20  24
ATOM     24  C   UNL     1       9.649   4.455   8.453  0.00  0.00    +0.110 C 
BRANCH  24  25
ATOM     25  C   UNL     1       9.133   4.649   9.875  0.00  0.00    +0.087 C 
BRANCH  25   9
ATOM      9  N   UNL     1      10.163   4.289  10.842  0.00  0.00    -0.330 NA
ATOM     32  H   UNL     1      10.769   5.093  11.006  0.00  0.00    +0.118 HD
ATOM     33  H   UNL     1       9.731   4.070  11.738  0.00  0.00    +0.118 HD
ENDBRANCH  25   9
ENDBRANCH  24  25
ENDBRANCH  20  24
ENDBRANCH  11   6
BRANCH  10   1
ATOM      1  O   UNL     1      13.953   6.193   7.285  0.00  0.00    -0.387 OA
ATOM     28  H   UNL     1      13.411   5.394   7.173  0.00  0.00    +0.210 HD
ENDBRANCH  10   1
BRANCH  12   2
ATOM      2  O   UNL     1      13.105   9.525   6.037  0.00  0.00    -0.389 OA
ATOM     29  H   UNL     1      13.447  10.129   6.718  0.00  0.00    +0.210 HD
ENDBRANCH  12   2
TORSDOF 11
ENDMDL
MODEL 2
REMARK VINA RESULT:      -6.1     15.789     19.011
REMARK  Name = 7049356
REMARK  13 active torsions:
REMARK  status: ('A' for Active; 'I' for Inactive)
REMARK    1  A    between atoms: O_1  and  C_10
REMARK    2  A    between atoms: O_2  and  C_12
REMARK    3  A    between atoms: N_6  and  C_11
REMARK    4  A    between atoms: N_7  and  C_16
REMARK    5  A    between atoms: N_9  and  C_25
REMARK    6  A    between atoms: C_14  and  C_17
REMARK    7  A    between atoms: C_16  and  C_18
REMARK    8  A    between atoms: C_16  and  C_23
REMARK    9  A    between atoms: C_18  and  C_19
REMARK   10  A    between atoms: C_19  and  C_21
REMARK   11  A    between atoms: C_19  and  C_22
REMARK   12  A    between atoms: C_20  and  C_24
REMARK   13  A    between atoms: C_24  and  C_25
REMARK                            x       y       z     vdW  Elec       q    Type
REMARK                         _______ _______ _______ _____ _____    ______ ____
ROOT
ATOM     10  C   UNL     1      12.122   7.342  20.647  0.00  0.00    +0.167 C 
ATOM     11  C   UNL     1      13.358   8.202  20.325  0.00  0.00    +0.127 C 
ATOM     12  C   UNL     1      10.825   8.150  20.519  0.00  0.00    +0.149 C 
ATOM     13  C   UNL     1      10.839   9.412  21.399  0.00  0.00    +0.074 C 
ATOM     14  C   UNL     1      12.176  10.095  21.438  0.00  0.00    +0.015 C 
ATOM     15  C   UNL     1      13.311   9.569  20.954  0.00  0.00    +0.006 C 
ENDROOT
BRANCH  14  17
ATOM      3  O   UNL     1      13.313  11.875  22.451  0.00  0.00    -0.271 OA
ATOM      7  N   UNL     1      11.028  12.086  22.035  0.00  0.00    -0.300 N 
ATOM     17  C   UNL     1      12.249  11.436  22.027  0.00  0.00    +0.241 C 
ATOM     27  H   UNL     1      10.227  11.645  21.590  0.00  0.00    +0.150 HD
BRANCH   7  16
ATOM     16  C   UNL     1      10.850  13.412  22.566  0.00  0.00    +0.159 C 
BRANCH  16  23
ATOM      5  O   UNL     1      10.700  14.540  20.417  0.00  0.00    -0.274 OA
ATOM      8  N   UNL     1       8.867  14.569  21.801  0.00  0.00    -0.328 N 
ATOM     23  C   UNL     1      10.168  14.238  21.482  0.00  0.00    +0.231 C 
ATOM     30  H   UNL     1       8.295  15.106  21.158  0.00  0.00    +0.145 HD
ATOM     31  H   UNL     1       8.433  14.292  22.675  0.00  0.00    +0.145 HD
ENDBRANCH  16  23
BRANCH  16  18
ATOM     18  C   UNL     1      10.007  13.419  23.846  0.00  0.00    +0.034 C 
BRANCH  18  19
ATOM     19  C   UNL     1      10.801  13.174  25.145  0.00  0.00    -0.015 C 
ATOM     21  C   UNL     1      12.114  13.961  25.104  0.00  0.00    +0.007 C 
ATOM     22  C   UNL     1      11.096  11.692  25.378  0.00  0.00    +0.007 C 
ENDBRANCH  18  19
ENDBRANCH  16  18
ENDBRANCH   7  16
ENDBRANCH  14  17
BRANCH  11   6
ATOM      4  O   UNL     1      15.220   6.877  18.597  0.00  0.00    -0.276 OA
ATOM      6  N   UNL     1      14.580   7.547  20.724  0.00  0.00    -0.306 N 
ATOM     20  C   UNL     1      15.419   6.931  19.807  0.00  0.00    +0.215 C 
ATOM     26  H   UNL     1      14.809   7.502  21.714  0.00  0.00    +0.149 HD
BRANCH  20  24
ATOM     24  C   UNL     1      16.635   6.320  20.481  0.00  0.00    +0.110 C 
BRANCH  24  25
ATOM     25  C   UNL     1      17.870   6.353  19.587  0.00  0.00    +0.087 C 
BRANCH  25   9
ATOM      9  N   UNL     1      17.780   5.326  18.557  0.00  0.00    -0.330 NA
ATOM     32  H   UNL     1      17.121   4.606  18.854  0.00  0.00    +0.118 HD
ATOM     33  H   UNL     1      17.396   5.729  17.704  0.00  0.00    +0.118 HD
ENDBRANCH  25   9
ENDBRANCH  24  25
ENDBRANCH  20  24
ENDBRANCH  11   6
BRANCH  10   1
ATOM      1  O   UNL     1      12.219   6.840  21.982  0.00  0.00    -0.387 OA
ATOM     28  H   UNL     1      11.537   7.284  22.512  0.00  0.00    +0.210 HD
ENDBRANCH  10   1
BRANCH  12   2
ATOM      2  O   UNL     1      10.602   8.507  19.157  0.00  0.00    -0.389 OA
ATOM     29  H   UNL     1      10.460   7.686  18.656  0.00  0.00    +0.210 HD
ENDBRANCH  12   2
TORSDOF 11
ENDMDL
MODEL 3
REMARK VINA RESULT:      -6.1     14.996     19.073
REMARK  Name = 7049356
REMARK  13 active torsions:
REMARK  status: ('A' for Active; 'I' for Inactive)
REMARK    1  A    between atoms: O_1  and  C_10
REMARK    2  A    between atoms: O_2  and  C_12
REMARK    3  A    between atoms: N_6  and  C_11
REMARK    4  A    between atoms: N_7  and  C_16
REMARK    5  A    between atoms: N_9  and  C_25
REMARK    6  A    between atoms: C_14  and  C_17
REMARK    7  A    between atoms: C_16  and  C_18
REMARK    8  A    between atoms: C_16  and  C_23
REMARK    9  A    between atoms: C_18  and  C_19
REMARK   10  A    between atoms: C_19  and  C_21
REMARK   11  A    between atoms: C_19  and  C_22
REMARK   12  A    between atoms: C_20  and  C_24
REMARK   13  A    between atoms: C_24  and  C_25
REMARK                            x       y       z     vdW  Elec       q    Type
REMARK                         _______ _______ _______ _____ _____    ______ ____
ROOT
ATOM     10  C   UNL     1      12.950   7.437  18.933  0.00  0.00    +0.167 C 
ATOM     11  C   UNL     1      13.996   8.110  19.841  0.00  0.00    +0.127 C 
ATOM     12  C   UNL     1      11.727   8.339  18.721  0.00  0.00    +0.149 C 
ATOM     13  C   UNL     1      11.083   8.764  20.052  0.00  0.00    +0.074 C 
ATOM     14  C   UNL     1      12.085   9.061  21.130  0.00  0.00    +0.015 C 
ATOM     15  C   UNL     1      13.395   8.781  21.046  0.00  0.00    +0.006 C 
ENDROOT
BRANCH  14  17
ATOM      3  O   UNL     1      10.503   9.460  22.810  0.00  0.00    -0.271 OA
ATOM      7  N   UNL     1      12.529  10.613  22.871  0.00  0.00    -0.300 N 
ATOM     17  C   UNL     1      11.611   9.719  22.351  0.00  0.00    +0.241 C 
ATOM     27  H   UNL     1      13.446  10.692  22.440  0.00  0.00    +0.150 HD
BRANCH   7  16
ATOM     16  C   UNL     1      12.286  11.382  24.064  0.00  0.00    +0.159 C 
BRANCH  16  23
ATOM      5  O   UNL     1      13.707  11.899  25.968  0.00  0.00    -0.274 OA
ATOM      8  N   UNL     1      14.636  10.815  24.170  0.00  0.00    -0.328 N 
ATOM     23  C   UNL     1      13.595  11.421  24.843  0.00  0.00    +0.231 C 
ATOM     30  H   UNL     1      15.560  10.759  24.584  0.00  0.00    +0.145 HD
ATOM     31  H   UNL     1      14.523  10.403  23.249  0.00  0.00    +0.145 HD
ENDBRANCH  16  23
BRANCH  16  18
ATOM     18  C   UNL     1      11.811  12.806  23.753  0.00  0.00    +0.034 C 
BRANCH  18  19
ATOM     19  C   UNL     1      10.442  13.177  24.358  0.00  0.00    -0.015 C 
ATOM     21  C   UNL     1       9.758  14.231  23.482  0.00  0.00    +0.007 C 
ATOM     22  C   UNL     1      10.559  13.697  25.791  0.00  0.00    +0.007 C 
ENDBRANCH  18  19
ENDBRANCH  16  18
ENDBRANCH   7  16
ENDBRANCH  14  17
BRANCH  11   6
ATOM      4  O   UNL     1      16.766   8.674  20.311  0.00  0.00    -0.276 OA
ATOM      6  N   UNL     1      14.999   7.171  20.283  0.00  0.00    -0.306 N 
ATOM     20  C   UNL     1      16.320   7.543  20.482  0.00  0.00    +0.215 C 
ATOM     26  H   UNL     1      14.734   6.197  20.410  0.00  0.00    +0.149 HD
BRANCH  20  24
ATOM     24  C   UNL     1      17.169   6.373  20.947  0.00  0.00    +0.110 C 
BRANCH  24  25
ATOM     25  C   UNL     1      18.349   6.108  20.018  0.00  0.00    +0.087 C 
BRANCH  25   9
ATOM      9  N   UNL     1      17.910   5.375  18.837  0.00  0.00    -0.330 NA
ATOM     32  H   UNL     1      17.706   6.034  18.086  0.00  0.00    +0.118 HD
ATOM     33  H   UNL     1      18.668   4.784  18.499  0.00  0.00    +0.118 HD
ENDBRANCH  25   9
ENDBRANCH  24  25
ENDBRANCH  20  24
ENDBRANCH  11   6
BRANCH  10   1
ATOM      1  O   UNL     1      12.517   6.210  19.525  0.00  0.00    -0.387 OA
ATOM     28  H   UNL     1      13.247   5.874  20.070  0.00  0.00    +0.210 HD
ENDBRANCH  10   1
BRANCH  12   2
ATOM      2  O   UNL     1      12.092   9.491  17.964  0.00  0.00    -0.389 OA
ATOM     29  H   UNL     1      11.363   9.683  17.350  0.00  0.00    +0.210 HD
ENDBRANCH  12   2
TORSDOF 11
ENDMDL
MODEL 4
REMARK VINA RESULT:      -5.9      2.224      3.141
REMARK  Name = 7049356
REMARK  13 active torsions:
REMARK  status: ('A' for Active; 'I' for Inactive)
REMARK    1  A    between atoms: O_1  and  C_10
REMARK    2  A    between atoms: O_2  and  C_12
REMARK    3  A    between atoms: N_6  and  C_11
REMARK    4  A    between atoms: N_7  and  C_16
REMARK    5  A    between atoms: N_9  and  C_25
REMARK    6  A    between atoms: C_14  and  C_17
REMARK    7  A    between atoms: C_16  and  C_18
REMARK    8  A    between atoms: C_16  and  C_23
REMARK    9  A    between atoms: C_18  and  C_19
REMARK   10  A    between atoms: C_19  and  C_21
REMARK   11  A    between atoms: C_19  and  C_22
REMARK   12  A    between atoms: C_20  and  C_24
REMARK   13  A    between atoms: C_24  and  C_25
REMARK                            x       y       z     vdW  Elec       q    Type
REMARK                         _______ _______ _______ _____ _____    ______ ____
ROOT
ATOM     10  C   UNL     1      11.330   6.713   5.649  0.00  0.00    +0.167 C 
ATOM     11  C   UNL     1      10.280   5.598   5.493  0.00  0.00    +0.127 C 
ATOM     12  C   UNL     1      11.654   7.373   4.302  0.00  0.00    +0.149 C 
ATOM     13  C   UNL     1      12.117   6.349   3.252  0.00  0.00    +0.074 C 
ATOM     14  C   UNL     1      11.366   5.049   3.316  0.00  0.00    +0.015 C 
ATOM     15  C   UNL     1      10.534   4.703   4.309  0.00  0.00    +0.006 C 
ENDROOT
BRANCH  14  17
ATOM      3  O   UNL     1      11.473   2.892   2.413  0.00  0.00    -0.271 OA
ATOM      7  N   UNL     1      11.761   4.723   0.998  0.00  0.00    -0.300 N 
ATOM     17  C   UNL     1      11.535   4.100   2.212  0.00  0.00    +0.241 C 
ATOM     27  H   UNL     1      11.721   5.737   0.944  0.00  0.00    +0.150 HD
BRANCH   7  16
ATOM     16  C   UNL     1      11.960   3.998  -0.230  0.00  0.00    +0.159 C 
BRANCH  16  23
ATOM      5  O   UNL     1      11.470   5.910  -1.650  0.00  0.00    -0.274 OA
ATOM      8  N   UNL     1      10.246   3.988  -1.938  0.00  0.00    -0.328 N 
ATOM     23  C   UNL     1      11.213   4.755  -1.321  0.00  0.00    +0.231 C 
ATOM     30  H   UNL     1       9.685   4.368  -2.693  0.00  0.00    +0.145 HD
ATOM     31  H   UNL     1      10.061   3.027  -1.671  0.00  0.00    +0.145 HD
ENDBRANCH  16  23
BRANCH  16  18
ATOM     18  C   UNL     1      13.443   3.867  -0.595  0.00  0.00    +0.034 C 
BRANCH  18  19
ATOM     19  C   UNL     1      14.413   4.570   0.376  0.00  0.00    -0.015 C 
ATOM     21  C   UNL     1      15.482   5.325  -0.417  0.00  0.00    +0.007 C 
ATOM     22  C   UNL     1      15.082   3.591   1.342  0.00  0.00    +0.007 C 
ENDBRANCH  18  19
ENDBRANCH  16  18
ENDBRANCH   7  16
ENDBRANCH  14  17
BRANCH  11   6
ATOM      4  O   UNL     1       9.042   6.337   7.969  0.00  0.00    -0.276 OA
ATOM      6  N   UNL     1      10.188   4.784   6.681  0.00  0.00    -0.306 N 
ATOM     20  C   UNL     1       9.566   5.234   7.836  0.00  0.00    +0.215 C 
ATOM     26  H   UNL     1      10.631   3.869   6.681  0.00  0.00    +0.149 HD
BRANCH  20  24
ATOM     24  C   UNL     1       9.603   4.189   8.938  0.00  0.00    +0.110 C 
BRANCH  24  25
ATOM     25  C   UNL     1       9.548   4.812  10.328  0.00  0.00    +0.087 C 
BRANCH  25   9
ATOM      9  N   UNL     1       8.190   4.756  10.856  0.00  0.00    -0.330 NA
ATOM     32  H   UNL     1       7.533   4.630  10.087  0.00  0.00    +0.118 HD
ATOM     33  H   UNL     1       8.089   3.939  11.455  0.00  0.00    +0.118 HD
ENDBRANCH  25   9
ENDBRANCH  24  25
ENDBRANCH  20  24
ENDBRANCH  11   6
BRANCH  10   1
ATOM      1  O   UNL     1      12.534   6.168   6.193  0.00  0.00    -0.387 OA
ATOM     28  H   UNL     1      12.295   5.369   6.692  0.00  0.00    +0.210 HD
ENDBRANCH  10   1
BRANCH  12   2
ATOM      2  O   UNL     1      10.519   8.088   3.821  0.00  0.00    -0.389 OA
ATOM     29  H   UNL     1       9.864   7.435   3.522  0.00  0.00    +0.210 HD
ENDBRANCH  12   2
TORSDOF 11
ENDMDL
MODEL 5
REMARK VINA RESULT:      -5.9     15.853     19.583
REMARK  Name = 7049356
REMARK  13 active torsions:
REMARK  status: ('A' for Active; 'I' for Inactive)
REMARK    1  A    between atoms: O_1  and  C_10
REMARK    2  A    between atoms: O_2  and  C_12
REMARK    3  A    between atoms: N_6  and  C_11
REMARK    4  A    between atoms: N_7  and  C_16
REMARK    5  A    between atoms: N_9  and  C_25
REMARK    6  A    between atoms: C_14  and  C_17
REMARK    7  A    between atoms: C_16  and  C_18
REMARK    8  A    between atoms: C_16  and  C_23
REMARK    9  A    between atoms: C_18  and  C_19
REMARK   10  A    between atoms: C_19  and  C_21
REMARK   11  A    between atoms: C_19  and  C_22
REMARK   12  A    between atoms: C_20  and  C_24
REMARK   13  A    between atoms: C_24  and  C_25
REMARK                            x       y       z     vdW  Elec       q    Type
REMARK                         _______ _______ _______ _____ _____    ______ ____
ROOT
ATOM     10  C   UNL     1      12.644   6.966  20.306  0.00  0.00    +0.167 C 
ATOM     11  C   UNL     1      13.780   8.005  20.281  0.00  0.00    +0.127 C 
ATOM     12  C   UNL     1      11.279   7.619  20.053  0.00  0.00    +0.149 C 
ATOM     13  C   UNL     1      10.986   8.753  21.051  0.00  0.00    +0.074 C 
ATOM     14  C   UNL     1      12.193   9.585  21.378  0.00  0.00    +0.015 C 
ATOM     15  C   UNL     1      13.450   9.266  21.033  0.00  0.00    +0.006 C 
ENDROOT
BRANCH  14  17
ATOM      3  O   UNL     1      11.402  11.780  21.580  0.00  0.00    -0.271 OA
ATOM      7  N   UNL     1      12.520  10.813  23.383  0.00  0.00    -0.300 N 
ATOM     17  C   UNL     1      11.989  10.841  22.107  0.00  0.00    +0.241 C 
ATOM     27  H   UNL     1      12.925   9.949  23.736  0.00  0.00    +0.150 HD
BRANCH   7  16
ATOM     16  C   UNL     1      12.446  11.931  24.288  0.00  0.00    +0.159 C 
BRANCH  16  23
ATOM      5  O   UNL     1      10.225  12.713  24.894  0.00  0.00    -0.274 OA
ATOM      8  N   UNL     1      10.928  10.679  25.695  0.00  0.00    -0.328 N 
ATOM     23  C   UNL     1      11.094  11.851  24.986  0.00  0.00    +0.231 C 
ATOM     30  H   UNL     1      10.065  10.492  26.195  0.00  0.00    +0.145 HD
ATOM     31  H   UNL     1      11.646   9.964  25.743  0.00  0.00    +0.145 HD
ENDBRANCH  16  23
BRANCH  16  18
ATOM     18  C   UNL     1      13.578  11.920  25.321  0.00  0.00    +0.034 C 
BRANCH  18  19
ATOM     19  C   UNL     1      14.408  13.218  25.386  0.00  0.00    -0.015 C 
ATOM     21  C   UNL     1      14.379  13.779  26.810  0.00  0.00    +0.007 C 
ATOM     22  C   UNL     1      13.909  14.279  24.404  0.00  0.00    +0.007 C 
ENDBRANCH  18  19
ENDBRANCH  16  18
ENDBRANCH   7  16
ENDBRANCH  14  17
BRANCH  11   6
ATOM      4  O   UNL     1      15.808   6.642  18.783  0.00  0.00    -0.276 OA
ATOM      6  N   UNL     1      15.010   7.460  20.803  0.00  0.00    -0.306 N 
ATOM     20  C   UNL     1      15.933   6.814  19.993  0.00  0.00    +0.215 C 
ATOM     26  H   UNL     1      15.183   7.517  21.803  0.00  0.00    +0.149 HD
BRANCH  20  24
ATOM     24  C   UNL     1      17.138   6.337  20.784  0.00  0.00    +0.110 C 
BRANCH  24  25
ATOM     25  C   UNL     1      18.394   6.245  19.925  0.00  0.00    +0.087 C 
BRANCH  25   9
ATOM      9  N   UNL     1      18.254   5.187  18.933  0.00  0.00    -0.330 NA
ATOM     32  H   UNL     1      18.745   5.455  18.080  0.00  0.00    +0.118 HD
ATOM     33  H   UNL     1      18.708   4.339  19.269  0.00  0.00    +0.118 HD
ENDBRANCH  25   9
ENDBRANCH  24  25
ENDBRANCH  20  24
ENDBRANCH  11   6
BRANCH  10   1
ATOM      1  O   UNL     1      12.612   6.318  21.579  0.00  0.00    -0.387 OA
ATOM     28  H   UNL     1      12.499   7.006  22.256  0.00  0.00    +0.210 HD
ENDBRANCH  10   1
BRANCH  12   2
ATOM      2  O   UNL     1      11.211   8.114  18.717  0.00  0.00    -0.389 OA
ATOM     29  H   UNL     1      10.614   8.881  18.717  0.00  0.00    +0.210 HD
ENDBRANCH  12   2
TORSDOF 11
ENDMDL
MODEL 6
REMARK VINA RESULT:      -5.8     12.438     15.024
REMARK  Name = 7049356
REMARK  13 active torsions:
REMARK  status: ('A' for Active; 'I' for Inactive)
REMARK    1  A    between atoms: O_1  and  C_10
REMARK    2  A    between atoms: O_2  and  C_12
REMARK    3  A    between atoms: N_6  and  C_11
REMARK    4  A    between atoms: N_7  and  C_16
REMARK    5  A    between atoms: N_9  and  C_25
REMARK    6  A    between atoms: C_14  and  C_17
REMARK    7  A    between atoms: C_16  and  C_18
REMARK    8  A    between atoms: C_16  and  C_23
REMARK    9  A    between atoms: C_18  and  C_19
REMARK   10  A    between atoms: C_19  and  C_21
REMARK   11  A    between atoms: C_19  and  C_22
REMARK   12  A    between atoms: C_20  and  C_24
REMARK   13  A    between atoms: C_24  and  C_25
REMARK                            x       y       z     vdW  Elec       q    Type
REMARK                         _______ _______ _______ _____ _____    ______ ____
ROOT
ATOM     10  C   UNL     1      11.817   8.158  20.007  0.00  0.00    +0.167 C 
ATOM     11  C   UNL     1      12.695   9.422  19.958  0.00  0.00    +0.127 C 
ATOM     12  C   UNL     1      12.457   6.998  19.234  0.00  0.00    +0.149 C 
ATOM     13  C   UNL     1      12.768   7.376  17.775  0.00  0.00    +0.074 C 
ATOM     14  C   UNL     1      13.272   8.782  17.618  0.00  0.00    +0.015 C 
ATOM     15  C   UNL     1      13.253   9.707  18.590  0.00  0.00    +0.006 C 
ENDROOT
BRANCH  14  17
ATOM      3  O   UNL     1      13.814   8.398  15.373  0.00  0.00    -0.271 OA
ATOM      7  N   UNL     1      14.379  10.445  16.336  0.00  0.00    -0.300 N 
ATOM     17  C   UNL     1      13.842   9.170  16.325  0.00  0.00    +0.241 C 
ATOM     27  H   UNL     1      14.280  11.020  17.168  0.00  0.00    +0.150 HD
BRANCH   7  16
ATOM     16  C   UNL     1      14.998  11.044  15.182  0.00  0.00    +0.159 C 
BRANCH  16  23
ATOM      5  O   UNL     1      13.439  11.685  13.430  0.00  0.00    -0.274 OA
ATOM      8  N   UNL     1      13.588  13.007  15.302  0.00  0.00    -0.328 N 
ATOM     23  C   UNL     1      13.948  11.927  14.521  0.00  0.00    +0.231 C 
ATOM     30  H   UNL     1      12.887  13.667  14.985  0.00  0.00    +0.145 HD
ATOM     31  H   UNL     1      14.001  13.182  16.212  0.00  0.00    +0.145 HD
ENDBRANCH  16  23
BRANCH  16  18
ATOM     18  C   UNL     1      16.234  11.874  15.550  0.00  0.00    +0.034 C 
BRANCH  18  19
ATOM     19  C   UNL     1      17.130  12.265  14.357  0.00  0.00    -0.015 C 
ATOM     21  C   UNL     1      18.534  11.687  14.554  0.00  0.00    +0.007 C 
ATOM     22  C   UNL     1      17.218  13.779  14.165  0.00  0.00    +0.007 C 
ENDBRANCH  18  19
ENDBRANCH  16  18
ENDBRANCH   7  16
ENDBRANCH  14  17
BRANCH  11   6
ATOM      4  O   UNL     1      12.799  10.551  22.590  0.00  0.00    -0.276 OA
ATOM      6  N   UNL     1      11.978  10.586  20.420  0.00  0.00    -0.306 N 
ATOM     20  C   UNL     1      12.095  11.057  21.720  0.00  0.00    +0.215 C 
ATOM     26  H   UNL     1      11.335  11.048  19.782  0.00  0.00    +0.149 HD
BRANCH  20  24
ATOM     24  C   UNL     1      11.241  12.291  21.950  0.00  0.00    +0.110 C 
BRANCH  24  25
ATOM     25  C   UNL     1      11.075  12.612  23.431  0.00  0.00    +0.087 C 
BRANCH  25   9
ATOM      9  N   UNL     1      10.265  11.591  24.084  0.00  0.00    -0.330 NA
ATOM     32  H   UNL     1      10.867  10.829  24.396  0.00  0.00    +0.118 HD
ATOM     33  H   UNL     1       9.837  11.978  24.923  0.00  0.00    +0.118 HD
ENDBRANCH  25   9
ENDBRANCH  24  25
ENDBRANCH  20  24
ENDBRANCH  11   6
BRANCH  10   1
ATOM      1  O   UNL     1      10.538   8.439  19.434  0.00  0.00    -0.387 OA
ATOM     28  H   UNL     1      10.019   7.618  19.460  0.00  0.00    +0.210 HD
ENDBRANCH  10   1
BRANCH  12   2
ATOM      2  O   UNL     1      13.647   6.569  19.891  0.00  0.00    -0.389 OA
ATOM     29  H   UNL     1      13.883   7.247  20.546  0.00  0.00    +0.210 HD
ENDBRANCH  12   2
TORSDOF 11
ENDMDL
MODEL 7
REMARK VINA RESULT:      -5.7     35.782     38.872
REMARK  Name = 7049356
REMARK  13 active torsions:
REMARK  status: ('A' for Active; 'I' for Inactive)
REMARK    1  A    between atoms: O_1  and  C_10
REMARK    2  A    between atoms: O_2  and  C_12
REMARK    3  A    between atoms: N_6  and  C_11
REMARK    4  A    between atoms: N_7  and  C_16
REMARK    5  A    between atoms: N_9  and  C_25
REMARK    6  A    between atoms: C_14  and  C_17
REMARK    7  A    between atoms: C_16  and  C_18
REMARK    8  A    between atoms: C_16  and  C_23
REMARK    9  A    between atoms: C_18  and  C_19
REMARK   10  A    between atoms: C_19  and  C_21
REMARK   11  A    between atoms: C_19  and  C_22
REMARK   12  A    between atoms: C_20  and  C_24
REMARK   13  A    between atoms: C_24  and  C_25
REMARK                            x       y       z     vdW  Elec       q    Type
REMARK                         _______ _______ _______ _____ _____    ______ ____
ROOT
ATOM     10  C   UNL     1     -14.574   3.344  32.905  0.00  0.00    +0.167 C 
ATOM     11  C   UNL     1     -15.462   4.028  31.849  0.00  0.00    +0.127 C 
ATOM     12  C   UNL     1     -13.543   2.413  32.256  0.00  0.00    +0.149 C 
ATOM     13  C   UNL     1     -14.204   1.358  31.352  0.00  0.00    +0.074 C 
ATOM     14  C   UNL     1     -15.368   1.892  30.566  0.00  0.00    +0.015 C 
ATOM     15  C   UNL     1     -15.937   3.089  30.773  0.00  0.00    +0.006 C 
ENDROOT
BRANCH  14  17
ATOM      3  O   UNL     1     -15.744  -0.153  29.490  0.00  0.00    -0.271 OA
ATOM      7  N   UNL     1     -16.589   1.797  28.533  0.00  0.00    -0.300 N 
ATOM     17  C   UNL     1     -15.911   1.061  29.487  0.00  0.00    +0.241 C 
ATOM     27  H   UNL     1     -16.723   2.795  28.676  0.00  0.00    +0.150 HD
BRANCH   7  16
ATOM     16  C   UNL     1     -17.207   1.202  27.377  0.00  0.00    +0.159 C 
BRANCH  16  23
ATOM      5  O   UNL     1     -19.455   1.587  28.219  0.00  0.00    -0.274 OA
ATOM      8  N   UNL     1     -18.880  -0.537  27.561  0.00  0.00    -0.328 N 
ATOM     23  C   UNL     1     -18.620   0.800  27.783  0.00  0.00    +0.231 C 
ATOM     30  H   UNL     1     -19.789  -0.931  27.776  0.00  0.00    +0.145 HD
ATOM     31  H   UNL     1     -18.186  -1.171  27.178  0.00  0.00    +0.145 HD
ENDBRANCH  16  23
BRANCH  16  18
ATOM     18  C   UNL     1     -17.251   2.161  26.181  0.00  0.00    +0.034 C 
BRANCH  18  19
ATOM     19  C   UNL     1     -16.252   3.333  26.255  0.00  0.00    -0.015 C 
ATOM     21  C   UNL     1     -16.992   4.619  26.633  0.00  0.00    +0.007 C 
ATOM     22  C   UNL     1     -15.498   3.540  24.942  0.00  0.00    +0.007 C 
ENDBRANCH  18  19
ENDBRANCH  16  18
ENDBRANCH   7  16
ENDBRANCH  14  17
BRANCH  11   6
ATOM      4  O   UNL     1     -15.524   6.619  33.071  0.00  0.00    -0.276 OA
ATOM      6  N   UNL     1     -16.609   4.665  32.451  0.00  0.00    -0.306 N 
ATOM     20  C   UNL     1     -16.537   5.928  33.020  0.00  0.00    +0.215 C 
ATOM     26  H   UNL     1     -17.486   4.151  32.494  0.00  0.00    +0.149 HD
BRANCH  20  24
ATOM     24  C   UNL     1     -17.878   6.369  33.579  0.00  0.00    +0.110 C 
BRANCH  24  25
ATOM     25  C   UNL     1     -18.284   5.566  34.810  0.00  0.00    +0.087 C 
BRANCH  25   9
ATOM      9  N   UNL     1     -17.112   4.962  35.431  0.00  0.00    -0.330 NA
ATOM     32  H   UNL     1     -17.271   4.868  36.434  0.00  0.00    +0.118 HD
ATOM     33  H   UNL     1     -16.983   4.017  35.074  0.00  0.00    +0.118 HD
ENDBRANCH  25   9
ENDBRANCH  24  25
ENDBRANCH  20  24
ENDBRANCH  11   6
BRANCH  10   1
ATOM      1  O   UNL     1     -15.388   2.577  33.795  0.00  0.00    -0.387 OA
ATOM     28  H   UNL     1     -14.807   2.211  34.482  0.00  0.00    +0.210 HD
ENDBRANCH  10   1
BRANCH  12   2
ATOM      2  O   UNL     1     -12.597   3.174  31.508  0.00  0.00    -0.389 OA
ATOM     29  H   UNL     1     -11.771   2.663  31.472  0.00  0.00    +0.210 HD
ENDBRANCH  12   2
TORSDOF 11
ENDMDL
MODEL 8
REMARK VINA RESULT:      -5.7     12.234     16.043
REMARK  Name = 7049356
REMARK  13 active torsions:
REMARK  status: ('A' for Active; 'I' for Inactive)
REMARK    1  A    between atoms: O_1  and  C_10
REMARK    2  A    between atoms: O_2  and  C_12
REMARK    3  A    between atoms: N_6  and  C_11
REMARK    4  A    between atoms: N_7  and  C_16
REMARK    5  A    between atoms: N_9  and  C_25
REMARK    6  A    between atoms: C_14  and  C_17
REMARK    7  A    between atoms: C_16  and  C_18
REMARK    8  A    between atoms: C_16  and  C_23
REMARK    9  A    between atoms: C_18  and  C_19
REMARK   10  A    between atoms: C_19  and  C_21
REMARK   11  A    between atoms: C_19  and  C_22
REMARK   12  A    between atoms: C_20  and  C_24
REMARK   13  A    between atoms: C_24  and  C_25
REMARK                            x       y       z     vdW  Elec       q    Type
REMARK                         _______ _______ _______ _____ _____    ______ ____
ROOT
ATOM     10  C   UNL     1      11.659   8.204  21.756  0.00  0.00    +0.167 C 
ATOM     11  C   UNL     1      12.371   9.500  21.325  0.00  0.00    +0.127 C 
ATOM     12  C   UNL     1      12.426   6.960  21.293  0.00  0.00    +0.149 C 
ATOM     13  C   UNL     1      12.663   6.957  19.773  0.00  0.00    +0.074 C 
ATOM     14  C   UNL     1      12.985   8.316  19.218  0.00  0.00    +0.015 C 
ATOM     15  C   UNL     1      12.866   9.462  19.905  0.00  0.00    +0.006 C 
ENDROOT
BRANCH  14  17
ATOM      3  O   UNL     1      13.704   7.381  17.196  0.00  0.00    -0.271 OA
ATOM      7  N   UNL     1      13.650   9.702  17.410  0.00  0.00    -0.300 N 
ATOM     17  C   UNL     1      13.481   8.399  17.842  0.00  0.00    +0.241 C 
ATOM     27  H   UNL     1      13.364  10.468  18.014  0.00  0.00    +0.150 HD
BRANCH   7  16
ATOM     16  C   UNL     1      14.130  10.036  16.094  0.00  0.00    +0.159 C 
BRANCH  16  23
ATOM      5  O   UNL     1      12.059   9.282  15.066  0.00  0.00    -0.274 OA
ATOM      8  N   UNL     1      12.828  11.388  14.567  0.00  0.00    -0.328 N 
ATOM     23  C   UNL     1      12.908  10.160  15.192  0.00  0.00    +0.231 C 
ATOM     30  H   UNL     1      12.054  11.606  13.949  0.00  0.00    +0.145 HD
ATOM     31  H   UNL     1      13.526  12.113  14.698  0.00  0.00    +0.145 HD
ENDBRANCH  16  23
BRANCH  16  18
ATOM     18  C   UNL     1      14.934  11.341  16.081  0.00  0.00    +0.034 C 
BRANCH  18  19
ATOM     19  C   UNL     1      14.857  12.161  17.384  0.00  0.00    -0.015 C 
ATOM     21  C   UNL     1      14.239  13.532  17.096  0.00  0.00    +0.007 C 
ATOM     22  C   UNL     1      16.225  12.341  18.042  0.00  0.00    +0.007 C 
ENDBRANCH  18  19
ENDBRANCH  16  18
ENDBRANCH   7  16
ENDBRANCH  14  17
BRANCH  11   6
ATOM      4  O   UNL     1      13.198  12.114  22.160  0.00  0.00    -0.276 OA
ATOM      6  N   UNL     1      11.522  10.655  21.492  0.00  0.00    -0.306 N 
ATOM     20  C   UNL     1      12.019  11.883  21.903  0.00  0.00    +0.215 C 
ATOM     26  H   UNL     1      10.521  10.550  21.344  0.00  0.00    +0.149 HD
BRANCH  20  24
ATOM     24  C   UNL     1      10.923  12.930  21.998  0.00  0.00    +0.110 C 
BRANCH  24  25
ATOM     25  C   UNL     1      10.526  13.222  23.441  0.00  0.00    +0.087 C 
BRANCH  25   9
ATOM      9  N   UNL     1      10.160  11.989  24.126  0.00  0.00    -0.330 NA
ATOM     32  H   UNL     1      10.548  11.998  25.069  0.00  0.00    +0.118 HD
ATOM     33  H   UNL     1       9.148  11.946  24.235  0.00  0.00    +0.118 HD
ENDBRANCH  25   9
ENDBRANCH  24  25
ENDBRANCH  20  24
ENDBRANCH  11   6
BRANCH  10   1
ATOM      1  O   UNL     1      10.345   8.168  21.194  0.00  0.00    -0.387 OA
ATOM     28  H   UNL     1      10.141   9.060  20.868  0.00  0.00    +0.210 HD
ENDBRANCH  10   1
BRANCH  12   2
ATOM      2  O   UNL     1      13.671   6.867  21.982  0.00  0.00    -0.389 OA
ATOM     29  H   UNL     1      14.351   7.273  21.418  0.00  0.00    +0.210 HD
ENDBRANCH  12   2
TORSDOF 11
ENDMDL
MODEL 9
REMARK VINA RESULT:      -5.7     15.199     18.148
REMARK  Name = 7049356
REMARK  13 active torsions:
REMARK  status: ('A' for Active; 'I' for Inactive)
REMARK    1  A    between atoms: O_1  and  C_10
REMARK    2  A    between atoms: O_2  and  C_12
REMARK    3  A    between atoms: N_6  and  C_11
REMARK    4  A    between atoms: N_7  and  C_16
REMARK    5  A    between atoms: N_9  and  C_25
REMARK    6  A    between atoms: C_14  and  C_17
REMARK    7  A    between atoms: C_16  and  C_18
REMARK    8  A    between atoms: C_16  and  C_23
REMARK    9  A    between atoms: C_18  and  C_19
REMARK   10  A    between atoms: C_19  and  C_21
REMARK   11  A    between atoms: C_19  and  C_22
REMARK   12  A    between atoms: C_20  and  C_24
REMARK   13  A    between atoms: C_24  and  C_25
REMARK                            x       y       z     vdW  Elec       q    Type
REMARK                         _______ _______ _______ _____ _____    ______ ____
ROOT
ATOM     10  C   UNL     1      13.699   6.588  19.649  0.00  0.00    +0.167 C 
ATOM     11  C   UNL     1      14.802   7.551  19.171  0.00  0.00    +0.127 C 
ATOM     12  C   UNL     1      12.308   7.064  19.212  0.00  0.00    +0.149 C 
ATOM     13  C   UNL     1      12.009   8.496  19.688  0.00  0.00    +0.074 C 
ATOM     14  C   UNL     1      13.199   9.409  19.612  0.00  0.00    +0.015 C 
ATOM     15  C   UNL     1      14.454   9.001  19.373  0.00  0.00    +0.006 C 
ENDROOT
BRANCH  14  17
ATOM      3  O   UNL     1      13.195  11.631  18.873  0.00  0.00    -0.271 OA
ATOM      7  N   UNL     1      12.521  11.167  21.056  0.00  0.00    -0.300 N 
ATOM     17  C   UNL     1      12.977  10.847  19.790  0.00  0.00    +0.241 C 
ATOM     27  H   UNL     1      12.311  10.421  21.713  0.00  0.00    +0.150 HD
BRANCH   7  16
ATOM     16  C   UNL     1      12.235  12.517  21.469  0.00  0.00    +0.159 C 
BRANCH  16  23
ATOM      5  O   UNL     1      10.844  11.592  23.235  0.00  0.00    -0.274 OA
ATOM      8  N   UNL     1      10.144  13.506  22.177  0.00  0.00    -0.328 N 
ATOM     23  C   UNL     1      11.016  12.456  22.380  0.00  0.00    +0.231 C 
ATOM     30  H   UNL     1       9.297  13.592  22.728  0.00  0.00    +0.145 HD
ATOM     31  H   UNL     1      10.310  14.226  21.481  0.00  0.00    +0.145 HD
ENDBRANCH  16  23
BRANCH  16  18
ATOM     18  C   UNL     1      13.415  13.163  22.204  0.00  0.00    +0.034 C 
BRANCH  18  19
ATOM     19  C   UNL     1      14.361  12.170  22.909  0.00  0.00    -0.015 C 
ATOM     21  C   UNL     1      14.219  12.309  24.427  0.00  0.00    +0.007 C 
ATOM     22  C   UNL     1      15.822  12.371  22.507  0.00  0.00    +0.007 C 
ENDBRANCH  18  19
ENDBRANCH  16  18
ENDBRANCH   7  16
ENDBRANCH  14  17
BRANCH  11   6
ATOM      4  O   UNL     1      16.699   5.538  18.423  0.00  0.00    -0.276 OA
ATOM      6  N   UNL     1      16.062   7.279  19.818  0.00  0.00    -0.306 N 
ATOM     20  C   UNL     1      16.916   6.278  19.379  0.00  0.00    +0.215 C 
ATOM     26  H   UNL     1      16.310   7.813  20.647  0.00  0.00    +0.149 HD
BRANCH  20  24
ATOM     24  C   UNL     1      18.173   6.199  20.227  0.00  0.00    +0.110 C 
BRANCH  24  25
ATOM     25  C   UNL     1      18.351   7.426  21.114  0.00  0.00    +0.087 C 
BRANCH  25   9
ATOM      9  N   UNL     1      18.885   7.041  22.414  0.00  0.00    -0.330 NA
ATOM     32  H   UNL     1      19.514   7.769  22.751  0.00  0.00    +0.118 HD
ATOM     33  H   UNL     1      18.127   6.983  23.092  0.00  0.00    +0.118 HD
ENDBRANCH  25   9
ENDBRANCH  24  25
ENDBRANCH  20  24
ENDBRANCH  11   6
BRANCH  10   1
ATOM      1  O   UNL     1      13.724   6.499  21.076  0.00  0.00    -0.387 OA
ATOM     28  H   UNL     1      14.244   5.712  21.311  0.00  0.00    +0.210 HD
ENDBRANCH  10   1
BRANCH  12   2
ATOM      2  O   UNL     1      12.187   6.985  17.793  0.00  0.00    -0.389 OA
ATOM     29  H   UNL     1      11.849   6.100  17.575  0.00  0.00    +0.210 HD
ENDBRANCH  12   2
TORSDOF 11
ENDMDL
MODEL 10
REMARK VINA RESULT:      -5.7     24.808     27.116
REMARK  Name = 7049356
REMARK  13 active torsions:
REMARK  status: ('A' for Active; 'I' for Inactive)
REMARK    1  A    between atoms: O_1  and  C_10
REMARK    2  A    between atoms: O_2  and  C_12
REMARK    3  A    between atoms: N_6  and  C_11
REMARK    4  A    between atoms: N_7  and  C_16
REMARK    5  A    between atoms: N_9  and  C_25
REMARK    6  A    between atoms: C_14  and  C_17
REMARK    7  A    between atoms: C_16  and  C_18
REMARK    8  A    between atoms: C_16  and  C_23
REMARK    9  A    between atoms: C_18  and  C_19
REMARK   10  A    between atoms: C_19  and  C_21
REMARK   11  A    between atoms: C_19  and  C_22
REMARK   12  A    between atoms: C_20  and  C_24
REMARK   13  A    between atoms: C_24  and  C_25
REMARK                            x       y       z     vdW  Elec       q    Type
REMARK                         _______ _______ _______ _____ _____    ______ ____
ROOT
ATOM     10  C   UNL     1      -7.999 -10.443  18.127  0.00  0.00    +0.167 C 
ATOM     11  C   UNL     1      -7.582  -9.295  17.189  0.00  0.00    +0.127 C 
ATOM     12  C   UNL     1      -6.823 -10.921  18.989  0.00  0.00    +0.149 C 
ATOM     13  C   UNL     1      -5.614 -11.342  18.137  0.00  0.00    +0.074 C 
ATOM     14  C   UNL     1      -5.389 -10.457  16.943  0.00  0.00    +0.015 C 
ATOM     15  C   UNL     1      -6.258  -9.531  16.512  0.00  0.00    +0.006 C 
ENDROOT
BRANCH  14  17
ATOM      3  O   UNL     1      -3.059 -10.651  16.806  0.00  0.00    -0.271 OA
ATOM      7  N   UNL     1      -4.310 -10.654  14.838  0.00  0.00    -0.300 N 
ATOM     17  C   UNL     1      -4.129 -10.598  16.208  0.00  0.00    +0.241 C 
ATOM     27  H   UNL     1      -5.254 -10.669  14.461  0.00  0.00    +0.150 HD
BRANCH   7  16
ATOM     16  C   UNL     1      -3.219 -10.787  13.908  0.00  0.00    +0.159 C 
BRANCH  16  23
ATOM      5  O   UNL     1      -3.363 -13.164  13.416  0.00  0.00    -0.274 OA
ATOM      8  N   UNL     1      -1.575 -12.404  14.642  0.00  0.00    -0.328 N 
ATOM     23  C   UNL     1      -2.764 -12.240  13.960  0.00  0.00    +0.231 C 
ATOM     30  H   UNL     1      -1.154 -13.321  14.738  0.00  0.00    +0.145 HD
ATOM     31  H   UNL     1      -1.079 -11.627  15.066  0.00  0.00    +0.145 HD
ENDBRANCH  16  23
BRANCH  16  18
ATOM     18  C   UNL     1      -3.623 -10.408  12.478  0.00  0.00    +0.034 C 
BRANCH  18  19
ATOM     19  C   UNL     1      -5.138 -10.216  12.264  0.00  0.00    -0.015 C 
ATOM     21  C   UNL     1      -5.717 -11.437  11.545  0.00  0.00    +0.007 C 
ATOM     22  C   UNL     1      -5.458  -8.950  11.468  0.00  0.00    +0.007 C 
ENDBRANCH  18  19
ENDBRANCH  16  18
ENDBRANCH   7  16
ENDBRANCH  14  17
BRANCH  11   6
ATOM      4  O   UNL     1      -9.955  -7.721  17.504  0.00  0.00    -0.276 OA
ATOM      6  N   UNL     1      -8.582  -9.042  16.180  0.00  0.00    -0.306 N 
ATOM     20  C   UNL     1      -9.702  -8.263  16.431  0.00  0.00    +0.215 C 
ATOM     26  H   UNL     1      -8.481  -9.485  15.271  0.00  0.00    +0.149 HD
BRANCH  20  24
ATOM     24  C   UNL     1     -10.595  -8.151  15.208  0.00  0.00    +0.110 C 
BRANCH  24  25
ATOM     25  C   UNL     1     -11.366  -6.837  15.173  0.00  0.00    +0.087 C 
BRANCH  25   9
ATOM      9  N   UNL     1     -10.504  -5.730  15.568  0.00  0.00    -0.330 NA
ATOM     32  H   UNL     1      -9.807  -6.065  16.233  0.00  0.00    +0.118 HD
ATOM     33  H   UNL     1      -9.986  -5.394  14.758  0.00  0.00    +0.118 HD
ENDBRANCH  25   9
ENDBRANCH  24  25
ENDBRANCH  20  24
ENDBRANCH  11   6
BRANCH  10   1
ATOM      1  O   UNL     1      -8.477 -11.546  17.353  0.00  0.00    -0.387 OA
ATOM     28  H   UNL     1      -8.549 -11.249  16.431  0.00  0.00    +0.210 HD
ENDBRANCH  10   1
BRANCH  12   2
ATOM      2  O   UNL     1      -6.442  -9.900  19.908  0.00  0.00    -0.389 OA
ATOM     29  H   UNL     1      -6.032 -10.332  20.676  0.00  0.00    +0.210 HD
ENDBRANCH  12   2
TORSDOF 11
ENDMDL
