MODEL 1
REMARK VINA RESULT:      -7.4      0.000      0.000
REMARK  Name = 11939797
REMARK  7 active torsions:
REMARK  status: ('A' for Active; 'I' for Inactive)
REMARK    1  A    between atoms: N_4  and  C_12
REMARK    2  A    between atoms: N_5  and  C_13
REMARK    3  A    between atoms: N_6  and  C_16
REMARK    4  A    between atoms: N_9  and  C_32
REMARK    5  A    between atoms: N_9  and  C_33
REMARK    6  A    between atoms: N_9  and  C_34
REMARK    7  A    between atoms: C_24  and  C_27
REMARK                            x       y       z     vdW  Elec       q    Type
REMARK                         _______ _______ _______ _____ _____    ______ ____
ROOT
ATOM      1  O   UNL     1      14.118  12.291  23.840  0.00  0.00    -0.370 OA
ATOM      2  O   UNL     1      11.270  13.551  24.016  0.00  0.00    -0.370 OA
ATOM     10  C   UNL     1      12.013  12.675  24.879  0.00  0.00    +0.171 C 
ATOM     11  C   UNL     1      12.802  11.732  23.991  0.00  0.00    +0.171 C 
ATOM     12  C   UNL     1      13.073  13.450  25.628  0.00  0.00    +0.131 C 
ATOM     13  C   UNL     1      12.066  11.761  22.673  0.00  0.00    +0.130 C 
ATOM     14  C   UNL     1      14.215  13.486  24.629  0.00  0.00    +0.185 C 
ATOM     15  C   UNL     1      11.479  13.161  22.651  0.00  0.00    +0.185 C 
ENDROOT
BRANCH  13   5
ATOM      5  N   UNL     1      11.008  10.775  22.675  0.00  0.00    -0.306 N 
ATOM      7  N   UNL     1      12.432   9.109  21.906  0.00  0.00    -0.214 NA
ATOM      8  N   UNL     1      10.107   8.659  22.353  0.00  0.00    -0.223 NA
ATOM     23  C   UNL     1      11.190   9.456  22.295  0.00  0.00    +0.216 A 
ATOM     24  C   UNL     1      12.573   7.818  21.542  0.00  0.00    +0.076 A 
ATOM     25  C   UNL     1      10.320   7.381  21.976  0.00  0.00    +0.116 A 
ATOM     26  C   UNL     1      11.543   6.900  21.557  0.00  0.00    +0.048 A 
ATOM     36  H   UNL     1      10.089  11.031  23.019  0.00  0.00    +0.149 HD
BRANCH  24  27
ATOM     27  C   UNL     1      13.903   7.441  21.125  0.00  0.00    +0.001 A 
ATOM     28  C   UNL     1      14.123   6.983  19.826  0.00  0.00    +0.012 A 
ATOM     29  C   UNL     1      14.967   7.532  22.022  0.00  0.00    +0.012 A 
ATOM     30  C   UNL     1      15.407   6.617  19.424  0.00  0.00    +0.024 A 
ATOM     31  C   UNL     1      16.252   7.167  21.620  0.00  0.00    +0.024 A 
ATOM     32  C   UNL     1      16.472   6.710  20.321  0.00  0.00    +0.029 A 
BRANCH  32   9
ATOM      9  N   UNL     1      17.770   6.340  19.913  0.00  0.00    -0.336 N 
ATOM     33  C   UNL     1      17.961   5.498  18.749  0.00  0.00    +0.129 C 
ATOM     34  C   UNL     1      18.930   6.784  20.661  0.00  0.00    +0.129 C 
ENDBRANCH  32   9
ENDBRANCH  24  27
ENDBRANCH  13   5
BRANCH  12   4
ATOM      3  O   UNL     1      14.381  14.608  27.913  0.00  0.00    -0.253 OA
ATOM      4  N   UNL     1      13.458  12.767  26.840  0.00  0.00    -0.292 N 
ATOM      6  N   UNL     1      14.353  12.528  28.946  0.00  0.00    -0.297 N 
ATOM     19  C   UNL     1      14.091  13.412  27.902  0.00  0.00    +0.300 C 
ATOM     35  H   UNL     1      13.323  11.763  26.899  0.00  0.00    +0.151 HD
ATOM     37  H   UNL     1      14.137  11.547  28.803  0.00  0.00    +0.151 HD
BRANCH   6  16
ATOM     16  C   UNL     1      15.003  12.927  30.175  0.00  0.00    +0.074 C 
ATOM     17  C   UNL     1      13.998  13.545  31.152  0.00  0.00    +0.022 C 
ATOM     18  C   UNL     1      15.745  11.747  30.813  0.00  0.00    +0.022 C 
ATOM     20  C   UNL     1      13.049  12.507  31.752  0.00  0.00    +0.002 C 
ATOM     21  C   UNL     1      14.792  10.712  31.412  0.00  0.00    +0.002 C 
ATOM     22  C   UNL     1      13.810  11.350  32.390  0.00  0.00    +0.000 C 
ENDBRANCH   6  16
ENDBRANCH  12   4
TORSDOF 5
ENDMDL
MODEL 2
REMARK VINA RESULT:      -7.4     28.129     33.051
REMARK  Name = 11939797
REMARK  7 active torsions:
REMARK  status: ('A' for Active; 'I' for Inactive)
REMARK    1  A    between atoms: N_4  and  C_12
REMARK    2  A    between atoms: N_5  and  C_13
REMARK    3  A    between atoms: N_6  and  C_16
REMARK    4  A    between atoms: N_9  and  C_32
REMARK    5  A    between atoms: N_9  and  C_33
REMARK    6  A    between atoms: N_9  and  C_34
REMARK    7  A    between atoms: C_24  and  C_27
REMARK                            x       y       z     vdW  Elec       q    Type
REMARK                         _______ _______ _______ _____ _____    ______ ____
ROOT
ATOM      1  O   UNL     1      -5.813 -11.828  10.092  0.00  0.00    -0.370 OA
ATOM      2  O   UNL     1      -4.782  -8.884  10.046  0.00  0.00    -0.370 OA
ATOM     10  C   UNL     1      -4.329 -10.095   9.417  0.00  0.00    +0.171 C 
ATOM     11  C   UNL     1      -4.547 -11.223  10.407  0.00  0.00    +0.171 C 
ATOM     12  C   UNL     1      -5.225 -10.449   8.252  0.00  0.00    +0.131 C 
ATOM     13  C   UNL     1      -4.616 -10.532  11.748  0.00  0.00    +0.130 C 
ATOM     14  C   UNL     1      -6.364 -11.189   8.931  0.00  0.00    +0.185 C 
ATOM     15  C   UNL     1      -5.188  -9.172  11.391  0.00  0.00    +0.185 C 
ENDROOT
BRANCH  13   5
ATOM      5  N   UNL     1      -3.287 -10.388  12.299  0.00  0.00    -0.306 N 
ATOM      7  N   UNL     1      -4.049 -10.711  14.469  0.00  0.00    -0.214 NA
ATOM      8  N   UNL     1      -1.716 -10.323  14.008  0.00  0.00    -0.223 NA
ATOM     23  C   UNL     1      -3.005 -10.478  13.651  0.00  0.00    +0.216 A 
ATOM     24  C   UNL     1      -3.738 -10.793  15.779  0.00  0.00    +0.076 A 
ATOM     25  C   UNL     1      -1.476 -10.417  15.332  0.00  0.00    +0.116 A 
ATOM     26  C   UNL     1      -2.458 -10.653  16.274  0.00  0.00    +0.048 A 
ATOM     36  H   UNL     1      -2.499 -10.265  11.673  0.00  0.00    +0.149 HD
BRANCH  24  27
ATOM     27  C   UNL     1      -4.855 -11.043  16.659  0.00  0.00    +0.001 A 
ATOM     28  C   UNL     1      -4.658 -11.092  18.039  0.00  0.00    +0.012 A 
ATOM     29  C   UNL     1      -6.130 -11.237  16.129  0.00  0.00    +0.012 A 
ATOM     30  C   UNL     1      -5.737 -11.335  18.889  0.00  0.00    +0.024 A 
ATOM     31  C   UNL     1      -7.210 -11.481  16.978  0.00  0.00    +0.024 A 
ATOM     32  C   UNL     1      -7.013 -11.529  18.358  0.00  0.00    +0.029 A 
BRANCH  32   9
ATOM      9  N   UNL     1      -8.103 -11.775  19.218  0.00  0.00    -0.336 N 
ATOM     33  C   UNL     1      -9.168 -10.800  19.350  0.00  0.00    +0.129 C 
ATOM     34  C   UNL     1      -8.167 -12.999  19.993  0.00  0.00    +0.129 C 
ENDBRANCH  32   9
ENDBRANCH  24  27
ENDBRANCH  13   5
BRANCH  12   4
ATOM      3  O   UNL     1      -5.744 -10.650   5.431  0.00  0.00    -0.253 OA
ATOM      4  N   UNL     1      -4.540 -11.297   7.307  0.00  0.00    -0.292 N 
ATOM      6  N   UNL     1      -4.050 -12.229   5.261  0.00  0.00    -0.297 N 
ATOM     19  C   UNL     1      -4.860 -11.329   5.950  0.00  0.00    +0.300 C 
ATOM     35  H   UNL     1      -3.839 -11.946   7.651  0.00  0.00    +0.151 HD
ATOM     37  H   UNL     1      -3.400 -12.792   5.801  0.00  0.00    +0.151 HD
BRANCH   6  16
ATOM     16  C   UNL     1      -4.162 -12.465   3.839  0.00  0.00    +0.074 C 
ATOM     17  C   UNL     1      -2.785 -12.441   3.167  0.00  0.00    +0.022 C 
ATOM     18  C   UNL     1      -4.896 -13.781   3.556  0.00  0.00    +0.022 C 
ATOM     20  C   UNL     1      -1.944 -13.671   3.512  0.00  0.00    +0.002 C 
ATOM     21  C   UNL     1      -4.051 -15.007   3.900  0.00  0.00    +0.002 C 
ATOM     22  C   UNL     1      -2.691 -14.967   3.210  0.00  0.00    +0.000 C 
ENDBRANCH   6  16
ENDBRANCH  12   4
TORSDOF 5
ENDMDL
MODEL 3
REMARK VINA RESULT:      -7.1     27.687     31.135
REMARK  Name = 11939797
REMARK  7 active torsions:
REMARK  status: ('A' for Active; 'I' for Inactive)
REMARK    1  A    between atoms: N_4  and  C_12
REMARK    2  A    between atoms: N_5  and  C_13
REMARK    3  A    between atoms: N_6  and  C_16
REMARK    4  A    between atoms: N_9  and  C_32
REMARK    5  A    between atoms: N_9  and  C_33
REMARK    6  A    between atoms: N_9  and  C_34
REMARK    7  A    between atoms: C_24  and  C_27
REMARK                            x       y       z     vdW  Elec       q    Type
REMARK                         _______ _______ _______ _____ _____    ______ ____
ROOT
ATOM      1  O   UNL     1      -6.930 -12.356  15.469  0.00  0.00    -0.370 OA
ATOM      2  O   UNL     1      -5.986 -12.354  18.442  0.00  0.00    -0.370 OA
ATOM     10  C   UNL     1      -6.449 -11.321  17.556  0.00  0.00    +0.171 C 
ATOM     11  C   UNL     1      -5.906 -11.635  16.176  0.00  0.00    +0.171 C 
ATOM     12  C   UNL     1      -7.949 -11.405  17.390  0.00  0.00    +0.131 C 
ATOM     13  C   UNL     1      -4.722 -12.535  16.440  0.00  0.00    +0.130 C 
ATOM     14  C   UNL     1      -8.097 -12.451  16.299  0.00  0.00    +0.185 C 
ATOM     15  C   UNL     1      -5.121 -13.243  17.721  0.00  0.00    +0.185 C 
ENDROOT
BRANCH  13   5
ATOM      5  N   UNL     1      -3.535 -11.738  16.657  0.00  0.00    -0.306 N 
ATOM      7  N   UNL     1      -3.303 -11.293  14.390  0.00  0.00    -0.214 NA
ATOM      8  N   UNL     1      -1.745 -10.411  16.003  0.00  0.00    -0.223 NA
ATOM     23  C   UNL     1      -2.830 -11.120  15.639  0.00  0.00    +0.216 A 
ATOM     24  C   UNL     1      -2.592 -10.677  13.423  0.00  0.00    +0.076 A 
ATOM     25  C   UNL     1      -1.082  -9.822  14.986  0.00  0.00    +0.116 A 
ATOM     26  C   UNL     1      -1.463  -9.922  13.663  0.00  0.00    +0.048 A 
ATOM     36  H   UNL     1      -3.215 -11.569  17.604  0.00  0.00    +0.149 HD
BRANCH  24  27
ATOM     27  C   UNL     1      -3.096 -10.860  12.082  0.00  0.00    +0.001 A 
ATOM     28  C   UNL     1      -3.365 -12.143  11.606  0.00  0.00    +0.012 A 
ATOM     29  C   UNL     1      -3.311  -9.752  11.261  0.00  0.00    +0.012 A 
ATOM     30  C   UNL     1      -3.850 -12.319  10.311  0.00  0.00    +0.024 A 
ATOM     31  C   UNL     1      -3.796  -9.928   9.965  0.00  0.00    +0.024 A 
ATOM     32  C   UNL     1      -4.066 -11.211   9.490  0.00  0.00    +0.029 A 
BRANCH  32   9
ATOM      9  N   UNL     1      -4.556 -11.390   8.180  0.00  0.00    -0.336 N 
ATOM     33  C   UNL     1      -4.402 -12.664   7.507  0.00  0.00    +0.129 C 
ATOM     34  C   UNL     1      -5.207 -10.298   7.484  0.00  0.00    +0.129 C 
ENDBRANCH  32   9
ENDBRANCH  24  27
ENDBRANCH  13   5
BRANCH  12   4
ATOM      3  O   UNL     1     -10.526 -10.337  18.092  0.00  0.00    -0.253 OA
ATOM      4  N   UNL     1      -8.500 -10.136  16.977  0.00  0.00    -0.292 N 
ATOM      6  N   UNL     1     -10.052  -8.444  16.833  0.00  0.00    -0.297 N 
ATOM     19  C   UNL     1      -9.764  -9.698  17.368  0.00  0.00    +0.300 C 
ATOM     35  H   UNL     1      -7.974  -9.566  16.322  0.00  0.00    +0.151 HD
ATOM     37  H   UNL     1      -9.381  -8.038  16.189  0.00  0.00    +0.151 HD
BRANCH   6  16
ATOM     16  C   UNL     1     -11.296  -7.748  17.075  0.00  0.00    +0.074 C 
ATOM     17  C   UNL     1     -11.175  -6.265  16.714  0.00  0.00    +0.022 C 
ATOM     18  C   UNL     1     -12.454  -8.412  16.320  0.00  0.00    +0.022 C 
ATOM     20  C   UNL     1     -11.104  -6.033  15.204  0.00  0.00    +0.002 C 
ATOM     21  C   UNL     1     -12.378  -8.177  14.811  0.00  0.00    +0.002 C 
ATOM     22  C   UNL     1     -12.272  -6.693  14.477  0.00  0.00    +0.000 C 
ENDBRANCH   6  16
ENDBRANCH  12   4
TORSDOF 5
ENDMDL
MODEL 4
REMARK VINA RESULT:      -6.9     24.006     29.046
REMARK  Name = 11939797
REMARK  7 active torsions:
REMARK  status: ('A' for Active; 'I' for Inactive)
REMARK    1  A    between atoms: N_4  and  C_12
REMARK    2  A    between atoms: N_5  and  C_13
REMARK    3  A    between atoms: N_6  and  C_16
REMARK    4  A    between atoms: N_9  and  C_32
REMARK    5  A    between atoms: N_9  and  C_33
REMARK    6  A    between atoms: N_9  and  C_34
REMARK    7  A    between atoms: C_24  and  C_27
REMARK                            x       y       z     vdW  Elec       q    Type
REMARK                         _______ _______ _______ _____ _____    ______ ____
ROOT
ATOM      1  O   UNL     1       6.945   6.585  -2.750  0.00  0.00    -0.370 OA
ATOM      2  O   UNL     1       8.722   6.890  -5.296  0.00  0.00    -0.370 OA
ATOM     10  C   UNL     1       7.791   5.886  -4.861  0.00  0.00    +0.171 C 
ATOM     11  C   UNL     1       7.945   5.750  -3.358  0.00  0.00    +0.171 C 
ATOM     12  C   UNL     1       6.370   6.371  -5.043  0.00  0.00    +0.131 C 
ATOM     13  C   UNL     1       9.325   6.296  -3.077  0.00  0.00    +0.130 C 
ATOM     14  C   UNL     1       6.139   7.179  -3.779  0.00  0.00    +0.185 C 
ATOM     15  C   UNL     1       9.504   7.328  -4.176  0.00  0.00    +0.185 C 
ENDROOT
BRANCH  13   5
ATOM      5  N   UNL     1      10.309   5.246  -3.210  0.00  0.00    -0.306 N 
ATOM      7  N   UNL     1      10.557   5.055  -0.909  0.00  0.00    -0.214 NA
ATOM      8  N   UNL     1      11.816   3.665  -2.422  0.00  0.00    -0.223 NA
ATOM     23  C   UNL     1      10.921   4.628  -2.133  0.00  0.00    +0.216 A 
ATOM     24  C   UNL     1      11.173   4.433   0.116  0.00  0.00    +0.076 A 
ATOM     25  C   UNL     1      12.394   3.084  -1.349  0.00  0.00    +0.116 A 
ATOM     26  C   UNL     1      12.108   3.431  -0.044  0.00  0.00    +0.048 A 
ATOM     36  H   UNL     1      10.539   4.893  -4.133  0.00  0.00    +0.149 HD
BRANCH  24  27
ATOM     27  C   UNL     1      10.786   4.888   1.431  0.00  0.00    +0.001 A 
ATOM     28  C   UNL     1      10.190   6.138   1.589  0.00  0.00    +0.012 A 
ATOM     29  C   UNL     1      11.011   4.076   2.543  0.00  0.00    +0.012 A 
ATOM     30  C   UNL     1       9.818   6.578   2.859  0.00  0.00    +0.024 A 
ATOM     31  C   UNL     1      10.639   4.515   3.814  0.00  0.00    +0.024 A 
ATOM     32  C   UNL     1      10.042   5.766   3.972  0.00  0.00    +0.029 A 
BRANCH  32   9
ATOM      9  N   UNL     1       9.665   6.211   5.255  0.00  0.00    -0.336 N 
ATOM     33  C   UNL     1      10.642   6.281   6.324  0.00  0.00    +0.129 C 
ATOM     34  C   UNL     1       8.293   6.592   5.528  0.00  0.00    +0.129 C 
ENDBRANCH  32   9
ENDBRANCH  24  27
ENDBRANCH  13   5
BRANCH  12   4
ATOM      3  O   UNL     1       3.863   6.331  -6.451  0.00  0.00    -0.253 OA
ATOM      4  N   UNL     1       5.449   5.264  -5.134  0.00  0.00    -0.292 N 
ATOM      6  N   UNL     1       3.550   4.133  -5.771  0.00  0.00    -0.297 N 
ATOM     19  C   UNL     1       4.251   5.335  -5.842  0.00  0.00    +0.300 C 
ATOM     35  H   UNL     1       5.648   4.419  -4.607  0.00  0.00    +0.151 HD
ATOM     37  H   UNL     1       3.926   3.398  -5.180  0.00  0.00    +0.151 HD
BRANCH   6  16
ATOM     16  C   UNL     1       2.272   3.923  -6.415  0.00  0.00    +0.074 C 
ATOM     17  C   UNL     1       2.032   2.435  -6.689  0.00  0.00    +0.022 C 
ATOM     18  C   UNL     1       1.132   4.527  -5.587  0.00  0.00    +0.022 C 
ATOM     20  C   UNL     1       1.748   1.643  -5.412  0.00  0.00    +0.002 C 
ATOM     21  C   UNL     1       0.851   3.731  -4.312  0.00  0.00    +0.002 C 
ATOM     22  C   UNL     1       0.603   2.256  -4.612  0.00  0.00    +0.000 C 
ENDBRANCH   6  16
ENDBRANCH  12   4
TORSDOF 5
ENDMDL
MODEL 5
REMARK VINA RESULT:      -6.9     29.074     31.485
REMARK  Name = 11939797
REMARK  7 active torsions:
REMARK  status: ('A' for Active; 'I' for Inactive)
REMARK    1  A    between atoms: N_4  and  C_12
REMARK    2  A    between atoms: N_5  and  C_13
REMARK    3  A    between atoms: N_6  and  C_16
REMARK    4  A    between atoms: N_9  and  C_32
REMARK    5  A    between atoms: N_9  and  C_33
REMARK    6  A    between atoms: N_9  and  C_34
REMARK    7  A    between atoms: C_24  and  C_27
REMARK                            x       y       z     vdW  Elec       q    Type
REMARK                         _______ _______ _______ _____ _____    ______ ____
ROOT
ATOM      1  O   UNL     1      -3.012 -13.003  13.043  0.00  0.00    -0.370 OA
ATOM      2  O   UNL     1      -1.869 -10.109  13.272  0.00  0.00    -0.370 OA
ATOM     10  C   UNL     1      -2.962 -10.789  13.912  0.00  0.00    +0.171 C 
ATOM     11  C   UNL     1      -3.595 -11.698  12.877  0.00  0.00    +0.171 C 
ATOM     12  C   UNL     1      -2.444 -11.738  14.969  0.00  0.00    +0.131 C 
ATOM     13  C   UNL     1      -3.174 -11.103  11.554  0.00  0.00    +0.130 C 
ATOM     14  C   UNL     1      -2.108 -12.976  14.157  0.00  0.00    +0.185 C 
ATOM     15  C   UNL     1      -1.833 -10.473  11.884  0.00  0.00    +0.185 C 
ENDROOT
BRANCH  13   5
ATOM      5  N   UNL     1      -4.119 -10.086  11.147  0.00  0.00    -0.306 N 
ATOM      7  N   UNL     1      -4.291 -10.968   9.006  0.00  0.00    -0.214 NA
ATOM      8  N   UNL     1      -5.541  -9.014   9.657  0.00  0.00    -0.223 NA
ATOM     23  C   UNL     1      -4.675 -10.020   9.881  0.00  0.00    +0.216 A 
ATOM     24  C   UNL     1      -4.851 -10.873   7.783  0.00  0.00    +0.076 A 
ATOM     25  C   UNL     1      -6.063  -8.979   8.414  0.00  0.00    +0.116 A 
ATOM     26  C   UNL     1      -5.752  -9.890   7.426  0.00  0.00    +0.048 A 
ATOM     36  H   UNL     1      -4.443  -9.407  11.827  0.00  0.00    +0.149 HD
BRANCH  24  27
ATOM     27  C   UNL     1      -4.442 -11.888   6.841  0.00  0.00    +0.001 A 
ATOM     28  C   UNL     1      -3.925 -13.099   7.300  0.00  0.00    +0.012 A 
ATOM     29  C   UNL     1      -4.561 -11.655   5.470  0.00  0.00    +0.012 A 
ATOM     30  C   UNL     1      -3.529 -14.078   6.390  0.00  0.00    +0.024 A 
ATOM     31  C   UNL     1      -4.165 -12.634   4.559  0.00  0.00    +0.024 A 
ATOM     32  C   UNL     1      -3.649 -13.846   5.019  0.00  0.00    +0.029 A 
BRANCH  32   9
ATOM      9  N   UNL     1      -3.248 -14.836   4.099  0.00  0.00    -0.336 N 
ATOM     33  C   UNL     1      -3.130 -16.220   4.516  0.00  0.00    +0.129 C 
ATOM     34  C   UNL     1      -2.935 -14.483   2.728  0.00  0.00    +0.129 C 
ENDBRANCH  32   9
ENDBRANCH  24  27
ENDBRANCH  13   5
BRANCH  12   4
ATOM      3  O   UNL     1      -3.692  -9.845  16.738  0.00  0.00    -0.253 OA
ATOM      4  N   UNL     1      -3.456 -12.019  15.958  0.00  0.00    -0.292 N 
ATOM      6  N   UNL     1      -4.960 -11.569  17.640  0.00  0.00    -0.297 N 
ATOM     19  C   UNL     1      -4.008 -11.034  16.776  0.00  0.00    +0.300 C 
ATOM     35  H   UNL     1      -3.734 -12.983  16.113  0.00  0.00    +0.151 HD
ATOM     37  H   UNL     1      -5.090 -12.576  17.638  0.00  0.00    +0.151 HD
BRANCH   6  16
ATOM     16  C   UNL     1      -5.692 -10.774  18.600  0.00  0.00    +0.074 C 
ATOM     17  C   UNL     1      -6.865 -10.049  17.933  0.00  0.00    +0.022 C 
ATOM     18  C   UNL     1      -6.167 -11.632  19.779  0.00  0.00    +0.022 C 
ATOM     20  C   UNL     1      -7.999 -11.000  17.549  0.00  0.00    +0.002 C 
ATOM     21  C   UNL     1      -7.302 -12.580  19.391  0.00  0.00    +0.002 C 
ATOM     22  C   UNL     1      -8.462 -11.834  18.740  0.00  0.00    +0.000 C 
ENDBRANCH   6  16
ENDBRANCH  12   4
TORSDOF 5
ENDMDL
MODEL 6
REMARK VINA RESULT:      -6.9     27.131     30.448
REMARK  Name = 11939797
REMARK  7 active torsions:
REMARK  status: ('A' for Active; 'I' for Inactive)
REMARK    1  A    between atoms: N_4  and  C_12
REMARK    2  A    between atoms: N_5  and  C_13
REMARK    3  A    between atoms: N_6  and  C_16
REMARK    4  A    between atoms: N_9  and  C_32
REMARK    5  A    between atoms: N_9  and  C_33
REMARK    6  A    between atoms: N_9  and  C_34
REMARK    7  A    between atoms: C_24  and  C_27
REMARK                            x       y       z     vdW  Elec       q    Type
REMARK                         _______ _______ _______ _____ _____    ______ ____
ROOT
ATOM      1  O   UNL     1     -14.942   7.601  22.506  0.00  0.00    -0.370 OA
ATOM      2  O   UNL     1     -13.163   5.044  22.332  0.00  0.00    -0.370 OA
ATOM     10  C   UNL     1     -13.845   5.837  21.346  0.00  0.00    +0.171 C 
ATOM     11  C   UNL     1     -15.157   6.288  21.960  0.00  0.00    +0.171 C 
ATOM     12  C   UNL     1     -13.094   7.125  21.096  0.00  0.00    +0.131 C 
ATOM     13  C   UNL     1     -15.407   5.294  23.070  0.00  0.00    +0.130 C 
ATOM     14  C   UNL     1     -13.601   8.019  22.212  0.00  0.00    +0.185 C 
ATOM     15  C   UNL     1     -14.002   4.902  23.488  0.00  0.00    +0.185 C 
ENDROOT
BRANCH  13   5
ATOM      5  N   UNL     1     -16.116   4.145  22.553  0.00  0.00    -0.306 N 
ATOM      7  N   UNL     1     -16.283   3.182  24.660  0.00  0.00    -0.214 NA
ATOM      8  N   UNL     1     -17.200   2.097  22.714  0.00  0.00    -0.223 NA
ATOM     23  C   UNL     1     -16.552   3.095  23.343  0.00  0.00    +0.216 A 
ATOM     24  C   UNL     1     -16.721   2.143  25.399  0.00  0.00    +0.076 A 
ATOM     25  C   UNL     1     -17.611   1.091  23.513  0.00  0.00    +0.116 A 
ATOM     26  C   UNL     1     -17.397   1.060  24.876  0.00  0.00    +0.048 A 
ATOM     36  H   UNL     1     -16.361   4.111  21.570  0.00  0.00    +0.149 HD
BRANCH  24  27
ATOM     27  C   UNL     1     -16.434   2.232  26.812  0.00  0.00    +0.001 A 
ATOM     28  C   UNL     1     -16.069   3.454  27.375  0.00  0.00    +0.012 A 
ATOM     29  C   UNL     1     -16.520   1.093  27.613  0.00  0.00    +0.012 A 
ATOM     30  C   UNL     1     -15.791   3.539  28.738  0.00  0.00    +0.024 A 
ATOM     31  C   UNL     1     -16.242   1.177  28.977  0.00  0.00    +0.024 A 
ATOM     32  C   UNL     1     -15.877   2.400  29.540  0.00  0.00    +0.029 A 
BRANCH  32   9
ATOM      9  N   UNL     1     -15.596   2.487  30.919  0.00  0.00    -0.336 N 
ATOM     33  C   UNL     1     -14.957   1.383  31.608  0.00  0.00    +0.129 C 
ATOM     34  C   UNL     1     -15.954   3.675  31.669  0.00  0.00    +0.129 C 
ENDBRANCH  32   9
ENDBRANCH  24  27
ENDBRANCH  13   5
BRANCH  12   4
ATOM      3  O   UNL     1     -11.349   7.281  18.815  0.00  0.00    -0.253 OA
ATOM      4  N   UNL     1     -13.414   7.672  19.800  0.00  0.00    -0.292 N 
ATOM      6  N   UNL     1     -13.062   8.283  17.610  0.00  0.00    -0.297 N 
ATOM     19  C   UNL     1     -12.501   7.706  18.747  0.00  0.00    +0.300 C 
ATOM     35  H   UNL     1     -14.321   8.109  19.665  0.00  0.00    +0.151 HD
ATOM     37  H   UNL     1     -13.999   8.667  17.685  0.00  0.00    +0.151 HD
BRANCH   6  16
ATOM     16  C   UNL     1     -12.340   8.447  16.368  0.00  0.00    +0.074 C 
ATOM     17  C   UNL     1     -13.300   8.498  15.176  0.00  0.00    +0.022 C 
ATOM     18  C   UNL     1     -11.443   9.691  16.413  0.00  0.00    +0.022 C 
ATOM     20  C   UNL     1     -14.097   9.802  15.121  0.00  0.00    +0.002 C 
ATOM     21  C   UNL     1     -12.244  10.991  16.357  0.00  0.00    +0.002 C 
ATOM     22  C   UNL     1     -13.183  11.023  15.155  0.00  0.00    +0.000 C 
ENDBRANCH   6  16
ENDBRANCH  12   4
TORSDOF 5
ENDMDL
MODEL 7
REMARK VINA RESULT:      -6.8     27.014     29.683
REMARK  Name = 11939797
REMARK  7 active torsions:
REMARK  status: ('A' for Active; 'I' for Inactive)
REMARK    1  A    between atoms: N_4  and  C_12
REMARK    2  A    between atoms: N_5  and  C_13
REMARK    3  A    between atoms: N_6  and  C_16
REMARK    4  A    between atoms: N_9  and  C_32
REMARK    5  A    between atoms: N_9  and  C_33
REMARK    6  A    between atoms: N_9  and  C_34
REMARK    7  A    between atoms: C_24  and  C_27
REMARK                            x       y       z     vdW  Elec       q    Type
REMARK                         _______ _______ _______ _____ _____    ______ ____
ROOT
ATOM      1  O   UNL     1     -16.624   5.710  24.734  0.00  0.00    -0.370 OA
ATOM      2  O   UNL     1     -16.417   3.077  23.073  0.00  0.00    -0.370 OA
ATOM     10  C   UNL     1     -15.698   3.582  24.211  0.00  0.00    +0.171 C 
ATOM     11  C   UNL     1     -15.546   5.079  24.020  0.00  0.00    +0.171 C 
ATOM     12  C   UNL     1     -16.537   3.453  25.462  0.00  0.00    +0.131 C 
ATOM     13  C   UNL     1     -15.715   5.281  22.533  0.00  0.00    +0.130 C 
ATOM     14  C   UNL     1     -17.394   4.705  25.408  0.00  0.00    +0.185 C 
ATOM     15  C   UNL     1     -16.649   4.148  22.147  0.00  0.00    +0.185 C 
ENDROOT
BRANCH  13   5
ATOM      5  N   UNL     1     -14.441   5.130  21.866  0.00  0.00    -0.306 N 
ATOM      7  N   UNL     1     -14.015   7.411  21.955  0.00  0.00    -0.214 NA
ATOM      8  N   UNL     1     -12.442   5.884  20.956  0.00  0.00    -0.223 NA
ATOM     23  C   UNL     1     -13.596   6.188  21.580  0.00  0.00    +0.216 A 
ATOM     24  C   UNL     1     -13.168   8.418  21.661  0.00  0.00    +0.076 A 
ATOM     25  C   UNL     1     -11.643   6.938  20.692  0.00  0.00    +0.116 A 
ATOM     26  C   UNL     1     -11.957   8.240  21.025  0.00  0.00    +0.048 A 
ATOM     36  H   UNL     1     -14.108   4.200  21.633  0.00  0.00    +0.149 HD
BRANCH  24  27
ATOM     27  C   UNL     1     -13.615   9.731  22.062  0.00  0.00    +0.001 A 
ATOM     28  C   UNL     1     -14.944  10.106  21.871  0.00  0.00    +0.012 A 
ATOM     29  C   UNL     1     -12.714  10.627  22.640  0.00  0.00    +0.012 A 
ATOM     30  C   UNL     1     -15.374  11.374  22.257  0.00  0.00    +0.024 A 
ATOM     31  C   UNL     1     -13.143  11.896  23.026  0.00  0.00    +0.024 A 
ATOM     32  C   UNL     1     -14.474  12.270  22.835  0.00  0.00    +0.029 A 
BRANCH  32   9
ATOM      9  N   UNL     1     -14.909  13.553  23.225  0.00  0.00    -0.336 N 
ATOM     33  C   UNL     1     -13.948  14.574  23.594  0.00  0.00    +0.129 C 
ATOM     34  C   UNL     1     -16.324  13.864  23.278  0.00  0.00    +0.129 C 
ENDBRANCH  32   9
ENDBRANCH  24  27
ENDBRANCH  13   5
BRANCH  12   4
ATOM      3  O   UNL     1     -17.111   2.114  27.942  0.00  0.00    -0.253 OA
ATOM      4  N   UNL     1     -15.710   3.435  26.645  0.00  0.00    -0.292 N 
ATOM      6  N   UNL     1     -15.099   2.898  28.796  0.00  0.00    -0.297 N 
ATOM     19  C   UNL     1     -16.069   2.756  27.808  0.00  0.00    +0.300 C 
ATOM     35  H   UNL     1     -14.862   3.993  26.656  0.00  0.00    +0.151 HD
ATOM     37  H   UNL     1     -14.312   3.510  28.605  0.00  0.00    +0.151 HD
BRANCH   6  16
ATOM     16  C   UNL     1     -15.211   2.297  30.107  0.00  0.00    +0.074 C 
ATOM     17  C   UNL     1     -13.830   1.959  30.677  0.00  0.00    +0.022 C 
ATOM     18  C   UNL     1     -16.000   3.202  31.061  0.00  0.00    +0.022 C 
ATOM     20  C   UNL     1     -13.046   3.204  31.091  0.00  0.00    +0.002 C 
ATOM     21  C   UNL     1     -15.211   4.445  31.473  0.00  0.00    +0.002 C 
ATOM     22  C   UNL     1     -13.846   4.081  32.049  0.00  0.00    +0.000 C 
ENDBRANCH   6  16
ENDBRANCH  12   4
TORSDOF 5
ENDMDL
MODEL 8
REMARK VINA RESULT:      -6.8     27.741     30.342
REMARK  Name = 11939797
REMARK  7 active torsions:
REMARK  status: ('A' for Active; 'I' for Inactive)
REMARK    1  A    between atoms: N_4  and  C_12
REMARK    2  A    between atoms: N_5  and  C_13
REMARK    3  A    between atoms: N_6  and  C_16
REMARK    4  A    between atoms: N_9  and  C_32
REMARK    5  A    between atoms: N_9  and  C_33
REMARK    6  A    between atoms: N_9  and  C_34
REMARK    7  A    between atoms: C_24  and  C_27
REMARK                            x       y       z     vdW  Elec       q    Type
REMARK                         _______ _______ _______ _____ _____    ______ ____
ROOT
ATOM      1  O   UNL     1     -17.208   4.968  25.494  0.00  0.00    -0.370 OA
ATOM      2  O   UNL     1     -16.379   2.160  24.415  0.00  0.00    -0.370 OA
ATOM     10  C   UNL     1     -15.805   3.049  25.388  0.00  0.00    +0.171 C 
ATOM     11  C   UNL     1     -16.008   4.464  24.880  0.00  0.00    +0.171 C 
ATOM     12  C   UNL     1     -16.597   3.002  26.675  0.00  0.00    +0.131 C 
ATOM     13  C   UNL     1     -16.212   4.298  23.393  0.00  0.00    +0.130 C 
ATOM     14  C   UNL     1     -17.724   3.981  26.398  0.00  0.00    +0.185 C 
ATOM     15  C   UNL     1     -16.851   2.924  23.296  0.00  0.00    +0.185 C 
ENDROOT
BRANCH  13   5
ATOM      5  N   UNL     1     -14.935   4.305  22.715  0.00  0.00    -0.306 N 
ATOM      7  N   UNL     1     -14.982   6.611  22.447  0.00  0.00    -0.214 NA
ATOM      8  N   UNL     1     -13.132   5.296  21.638  0.00  0.00    -0.223 NA
ATOM     23  C   UNL     1     -14.323   5.455  22.246  0.00  0.00    +0.216 A 
ATOM     24  C   UNL     1     -14.359   7.710  21.977  0.00  0.00    +0.076 A 
ATOM     25  C   UNL     1     -12.565   6.436  21.193  0.00  0.00    +0.116 A 
ATOM     26  C   UNL     1     -13.137   7.684  21.335  0.00  0.00    +0.048 A 
ATOM     36  H   UNL     1     -14.419   3.437  22.615  0.00  0.00    +0.149 HD
BRANCH  24  27
ATOM     27  C   UNL     1     -15.062   8.953  22.190  0.00  0.00    +0.001 A 
ATOM     28  C   UNL     1     -14.450   9.991  22.891  0.00  0.00    +0.012 A 
ATOM     29  C   UNL     1     -16.358   9.113  21.696  0.00  0.00    +0.012 A 
ATOM     30  C   UNL     1     -15.131  11.190  23.097  0.00  0.00    +0.024 A 
ATOM     31  C   UNL     1     -17.039  10.312  21.903  0.00  0.00    +0.024 A 
ATOM     32  C   UNL     1     -16.426  11.351  22.603  0.00  0.00    +0.029 A 
BRANCH  32   9
ATOM      9  N   UNL     1     -17.114  12.564  22.812  0.00  0.00    -0.336 N 
ATOM     33  C   UNL     1     -16.709  13.463  23.875  0.00  0.00    +0.129 C 
ATOM     34  C   UNL     1     -18.244  12.922  21.978  0.00  0.00    +0.129 C 
ENDBRANCH  32   9
ENDBRANCH  24  27
ENDBRANCH  13   5
BRANCH  12   4
ATOM      3  O   UNL     1     -15.506   1.331  28.745  0.00  0.00    -0.253 OA
ATOM      4  N   UNL     1     -15.796   3.429  27.796  0.00  0.00    -0.292 N 
ATOM      6  N   UNL     1     -14.565   3.213  29.728  0.00  0.00    -0.297 N 
ATOM     19  C   UNL     1     -15.306   2.545  28.756  0.00  0.00    +0.300 C 
ATOM     35  H   UNL     1     -15.633   4.423  27.930  0.00  0.00    +0.151 HD
ATOM     37  H   UNL     1     -14.524   4.226  29.681  0.00  0.00    +0.151 HD
BRANCH   6  16
ATOM     16  C   UNL     1     -13.939   2.541  30.845  0.00  0.00    +0.074 C 
ATOM     17  C   UNL     1     -12.952   3.469  31.561  0.00  0.00    +0.022 C 
ATOM     18  C   UNL     1     -14.990   1.991  31.816  0.00  0.00    +0.022 C 
ATOM     20  C   UNL     1     -13.655   4.571  32.355  0.00  0.00    +0.002 C 
ATOM     21  C   UNL     1     -15.689   3.097  32.607  0.00  0.00    +0.002 C 
ATOM     22  C   UNL     1     -14.687   3.998  33.321  0.00  0.00    +0.000 C 
ENDBRANCH   6  16
ENDBRANCH  12   4
TORSDOF 5
ENDMDL
MODEL 9
REMARK VINA RESULT:      -6.7     28.399     33.014
REMARK  Name = 11939797
REMARK  7 active torsions:
REMARK  status: ('A' for Active; 'I' for Inactive)
REMARK    1  A    between atoms: N_4  and  C_12
REMARK    2  A    between atoms: N_5  and  C_13
REMARK    3  A    between atoms: N_6  and  C_16
REMARK    4  A    between atoms: N_9  and  C_32
REMARK    5  A    between atoms: N_9  and  C_33
REMARK    6  A    between atoms: N_9  and  C_34
REMARK    7  A    between atoms: C_24  and  C_27
REMARK                            x       y       z     vdW  Elec       q    Type
REMARK                         _______ _______ _______ _____ _____    ______ ____
ROOT
ATOM      1  O   UNL     1      -5.846 -12.058  10.475  0.00  0.00    -0.370 OA
ATOM      2  O   UNL     1      -4.005  -9.595   9.950  0.00  0.00    -0.370 OA
ATOM     10  C   UNL     1      -3.833 -11.009   9.764  0.00  0.00    +0.171 C 
ATOM     11  C   UNL     1      -4.525 -11.704  10.921  0.00  0.00    +0.171 C 
ATOM     12  C   UNL     1      -4.595 -11.476   8.544  0.00  0.00    +0.131 C 
ATOM     13  C   UNL     1      -4.602 -10.645  11.995  0.00  0.00    +0.130 C 
ATOM     14  C   UNL     1      -5.994 -11.687   9.097  0.00  0.00    +0.185 C 
ATOM     15  C   UNL     1      -4.687  -9.361  11.191  0.00  0.00    +0.185 C 
ENDROOT
BRANCH  13   5
ATOM      5  N   UNL     1      -3.395 -10.660  12.791  0.00  0.00    -0.306 N 
ATOM      7  N   UNL     1      -4.589 -10.552  14.779  0.00  0.00    -0.214 NA
ATOM      8  N   UNL     1      -2.181 -10.638  14.770  0.00  0.00    -0.223 NA
ATOM     23  C   UNL     1      -3.388 -10.615  14.174  0.00  0.00    +0.216 A 
ATOM     24  C   UNL     1      -4.546 -10.509  16.126  0.00  0.00    +0.076 A 
ATOM     25  C   UNL     1      -2.212 -10.593  16.119  0.00  0.00    +0.116 A 
ATOM     26  C   UNL     1      -3.376 -10.527  16.857  0.00  0.00    +0.048 A 
ATOM     36  H   UNL     1      -2.496 -10.760  12.331  0.00  0.00    +0.149 HD
BRANCH  24  27
ATOM     27  C   UNL     1      -5.832 -10.442  16.779  0.00  0.00    +0.001 A 
ATOM     28  C   UNL     1      -6.970 -10.106  16.047  0.00  0.00    +0.012 A 
ATOM     29  C   UNL     1      -5.935 -10.712  18.144  0.00  0.00    +0.012 A 
ATOM     30  C   UNL     1      -8.211 -10.040  16.678  0.00  0.00    +0.024 A 
ATOM     31  C   UNL     1      -7.177 -10.646  18.776  0.00  0.00    +0.024 A 
ATOM     32  C   UNL     1      -8.315 -10.310  18.043  0.00  0.00    +0.029 A 
BRANCH  32   9
ATOM      9  N   UNL     1      -9.571 -10.243  18.680  0.00  0.00    -0.336 N 
ATOM     33  C   UNL     1      -9.822 -11.004  19.888  0.00  0.00    +0.129 C 
ATOM     34  C   UNL     1     -10.632  -9.423  18.129  0.00  0.00    +0.129 C 
ENDBRANCH  32   9
ENDBRANCH  24  27
ENDBRANCH  13   5
BRANCH  12   4
ATOM      3  O   UNL     1      -3.917 -12.034   5.806  0.00  0.00    -0.253 OA
ATOM      4  N   UNL     1      -4.046 -12.705   8.025  0.00  0.00    -0.292 N 
ATOM      6  N   UNL     1      -3.230 -14.160   6.441  0.00  0.00    -0.297 N 
ATOM     19  C   UNL     1      -3.746 -12.888   6.676  0.00  0.00    +0.300 C 
ATOM     35  H   UNL     1      -3.933 -13.494   8.654  0.00  0.00    +0.151 HD
ATOM     37  H   UNL     1      -3.199 -14.811   7.219  0.00  0.00    +0.151 HD
BRANCH   6  16
ATOM     16  C   UNL     1      -2.832 -14.622   5.130  0.00  0.00    +0.074 C 
ATOM     17  C   UNL     1      -1.484 -14.020   4.721  0.00  0.00    +0.022 C 
ATOM     18  C   UNL     1      -2.797 -16.154   5.073  0.00  0.00    +0.022 C 
ATOM     20  C   UNL     1      -0.315 -14.612   5.508  0.00  0.00    +0.002 C 
ATOM     21  C   UNL     1      -1.626 -16.741   5.861  0.00  0.00    +0.002 C 
ATOM     22  C   UNL     1      -0.294 -16.135   5.427  0.00  0.00    +0.000 C 
ENDBRANCH   6  16
ENDBRANCH  12   4
TORSDOF 5
ENDMDL
MODEL 10
REMARK VINA RESULT:      -6.6     18.575     22.627
REMARK  Name = 11939797
REMARK  7 active torsions:
REMARK  status: ('A' for Active; 'I' for Inactive)
REMARK    1  A    between atoms: N_4  and  C_12
REMARK    2  A    between atoms: N_5  and  C_13
REMARK    3  A    between atoms: N_6  and  C_16
REMARK    4  A    between atoms: N_9  and  C_32
REMARK    5  A    between atoms: N_9  and  C_33
REMARK    6  A    between atoms: N_9  and  C_34
REMARK    7  A    between atoms: C_24  and  C_27
REMARK                            x       y       z     vdW  Elec       q    Type
REMARK                         _______ _______ _______ _____ _____    ______ ____
ROOT
ATOM      1  O   UNL     1       4.721  10.249   3.514  0.00  0.00    -0.370 OA
ATOM      2  O   UNL     1       6.556  12.754   3.817  0.00  0.00    -0.370 OA
ATOM     10  C   UNL     1       6.464  11.510   4.530  0.00  0.00    +0.171 C 
ATOM     11  C   UNL     1       4.995  11.142   4.608  0.00  0.00    +0.171 C 
ATOM     12  C   UNL     1       7.082  10.393   3.719  0.00  0.00    +0.131 C 
ATOM     13  C   UNL     1       4.274  12.454   4.405  0.00  0.00    +0.130 C 
ATOM     14  C   UNL     1       5.941   9.988   2.803  0.00  0.00    +0.185 C 
ATOM     15  C   UNL     1       5.234  13.227   3.519  0.00  0.00    +0.185 C 
ENDROOT
BRANCH  13   5
ATOM      5  N   UNL     1       4.108  13.128   5.673  0.00  0.00    -0.306 N 
ATOM      7  N   UNL     1       1.991  12.225   5.984  0.00  0.00    -0.214 NA
ATOM      8  N   UNL     1       2.972  13.703   7.615  0.00  0.00    -0.223 NA
ATOM     23  C   UNL     1       2.974  13.014   6.458  0.00  0.00    +0.216 A 
ATOM     24  C   UNL     1       0.901  12.137   6.773  0.00  0.00    +0.076 A 
ATOM     25  C   UNL     1       1.852  13.569   8.355  0.00  0.00    +0.116 A 
ATOM     26  C   UNL     1       0.774  12.793   7.981  0.00  0.00    +0.048 A 
ATOM     36  H   UNL     1       4.873  13.678   6.049  0.00  0.00    +0.149 HD
BRANCH  24  27
ATOM     27  C   UNL     1      -0.155  11.293   6.268  0.00  0.00    +0.001 A 
ATOM     28  C   UNL     1      -0.835  10.433   7.131  0.00  0.00    +0.012 A 
ATOM     29  C   UNL     1      -0.494  11.335   4.915  0.00  0.00    +0.012 A 
ATOM     30  C   UNL     1      -1.854   9.617   6.642  0.00  0.00    +0.024 A 
ATOM     31  C   UNL     1      -1.513  10.518   4.426  0.00  0.00    +0.024 A 
ATOM     32  C   UNL     1      -2.194   9.660   5.289  0.00  0.00    +0.029 A 
BRANCH  32   9
ATOM      9  N   UNL     1      -3.224   8.834   4.796  0.00  0.00    -0.336 N 
ATOM     33  C   UNL     1      -4.134   9.323   3.779  0.00  0.00    +0.129 C 
ATOM     34  C   UNL     1      -3.397   7.488   5.309  0.00  0.00    +0.129 C 
ENDBRANCH  32   9
ENDBRANCH  24  27
ENDBRANCH  13   5
BRANCH  12   4
ATOM      3  O   UNL     1       9.753   9.800   4.603  0.00  0.00    -0.253 OA
ATOM      4  N   UNL     1       7.487   9.297   4.566  0.00  0.00    -0.292 N 
ATOM      6  N   UNL     1       8.931   7.963   5.762  0.00  0.00    -0.297 N 
ATOM     19  C   UNL     1       8.812   9.086   4.946  0.00  0.00    +0.300 C 
ATOM     35  H   UNL     1       6.792   8.612   4.846  0.00  0.00    +0.151 HD
ATOM     37  H   UNL     1       8.100   7.403   5.923  0.00  0.00    +0.151 HD
BRANCH   6  16
ATOM     16  C   UNL     1      10.193   7.510   6.303  0.00  0.00    +0.074 C 
ATOM     17  C   UNL     1      10.127   7.395   7.829  0.00  0.00    +0.022 C 
ATOM     18  C   UNL     1      10.621   6.183   5.664  0.00  0.00    +0.022 C 
ATOM     20  C   UNL     1       9.272   6.215   8.292  0.00  0.00    +0.002 C 
ATOM     21  C   UNL     1       9.763   5.006   6.130  0.00  0.00    +0.002 C 
ATOM     22  C   UNL     1       9.724   4.906   7.652  0.00  0.00    +0.000 C 
ENDBRANCH   6  16
ENDBRANCH  12   4
TORSDOF 5
ENDMDL
