MODEL 1
REMARK VINA RESULT:      -7.6      0.000      0.000
REMARK  Name = 11885261
REMARK  2 active torsions:
REMARK  status: ('A' for Active; 'I' for Inactive)
REMARK    1  A    between atoms: C_14  and  C_15
REMARK    2  A    between atoms: C_23  and  C_25
REMARK                            x       y       z     vdW  Elec       q    Type
REMARK                         _______ _______ _______ _____ _____    ______ ____
ROOT
ATOM      1  O   UNL     1      14.674   6.283  20.377  0.00  0.00    -0.275 OA
ATOM      2  O   UNL     1      10.880   9.678  22.011  0.00  0.00    -0.267 OA
ATOM      3  N   UNL     1      14.190   7.836  18.717  0.00  0.00    -0.300 N 
ATOM      4  N   UNL     1      12.043   9.823  19.995  0.00  0.00    -0.311 N 
ATOM      7  C   UNL     1      11.779   8.094  18.125  0.00  0.00    +0.027 C 
ATOM      8  C   UNL     1      13.317   9.989  17.828  0.00  0.00    +0.054 C 
ATOM      9  C   UNL     1      12.141   9.248  17.197  0.00  0.00    +0.018 C 
ATOM     10  C   UNL     1      12.974   7.141  18.293  0.00  0.00    +0.113 C 
ATOM     11  C   UNL     1      14.526   9.040  17.941  0.00  0.00    +0.117 C 
ATOM     12  C   UNL     1      11.305   8.668  19.466  0.00  0.00    +0.130 C 
ATOM     13  C   UNL     1      12.954  10.523  19.200  0.00  0.00    +0.027 A 
ATOM     15  C   UNL     1      14.974   7.295  19.737  0.00  0.00    +0.219 C 
ATOM     20  C   UNL     1      13.526  11.647  19.662  0.00  0.00    +0.022 A 
ATOM     22  C   UNL     1      11.704  10.250  21.294  0.00  0.00    +0.259 A 
ATOM     23  C   UNL     1      12.389  11.492  21.798  0.00  0.00    +0.050 A 
ATOM     24  C   UNL     1      13.241  12.131  20.983  0.00  0.00    +0.015 A 
ENDROOT
BRANCH  23  25
ATOM      5  N   UNL     1      12.708  12.047  25.493  0.00  0.00    -0.243 NA
ATOM      6  N   UNL     1      10.883  13.384  24.665  0.00  0.00    -0.243 NA
ATOM     25  C   UNL     1      12.143  11.999  23.159  0.00  0.00    +0.024 A 
ATOM     26  C   UNL     1      12.906  11.603  24.234  0.00  0.00    +0.122 A 
ATOM     27  C   UNL     1      11.136  12.899  23.431  0.00  0.00    +0.122 A 
ATOM     28  C   UNL     1      11.695  12.922  25.635  0.00  0.00    +0.221 A 
ENDBRANCH  23  25
BRANCH  15  14
ATOM     14  C   UNL     1      16.250   8.015  20.059  0.00  0.00    +0.075 C 
ATOM     16  C   UNL     1      16.000   9.055  21.153  0.00  0.00    +0.013 C 
ATOM     17  C   UNL     1      17.324   7.009  20.477  0.00  0.00    +0.013 C 
ATOM     18  C   UNL     1      17.292   9.747  21.578  0.00  0.00    +0.001 C 
ATOM     19  C   UNL     1      18.614   7.705  20.904  0.00  0.00    +0.001 C 
ATOM     21  C   UNL     1      18.360   8.740  21.997  0.00  0.00    +0.000 C 
ENDBRANCH  15  14
TORSDOF 2
ENDMDL
MODEL 2
REMARK VINA RESULT:      -6.6     24.839     27.630
REMARK  Name = 11885261
REMARK  2 active torsions:
REMARK  status: ('A' for Active; 'I' for Inactive)
REMARK    1  A    between atoms: C_14  and  C_15
REMARK    2  A    between atoms: C_23  and  C_25
REMARK                            x       y       z     vdW  Elec       q    Type
REMARK                         _______ _______ _______ _____ _____    ______ ____
ROOT
ATOM      1  O   UNL     1     -16.197  10.101  22.801  0.00  0.00    -0.275 OA
ATOM      2  O   UNL     1     -14.009   8.983  18.052  0.00  0.00    -0.267 OA
ATOM      3  N   UNL     1     -15.486   7.890  22.725  0.00  0.00    -0.300 N 
ATOM      4  N   UNL     1     -14.083   7.535  19.878  0.00  0.00    -0.311 N 
ATOM      7  C   UNL     1     -16.273   6.552  20.769  0.00  0.00    +0.027 C 
ATOM      8  C   UNL     1     -14.145   5.982  21.860  0.00  0.00    +0.054 C 
ATOM      9  C   UNL     1     -15.401   5.388  21.228  0.00  0.00    +0.018 C 
ATOM     10  C   UNL     1     -16.653   7.445  21.963  0.00  0.00    +0.113 C 
ATOM     11  C   UNL     1     -14.534   6.829  23.087  0.00  0.00    +0.117 C 
ATOM     12  C   UNL     1     -15.524   7.331  19.681  0.00  0.00    +0.130 C 
ATOM     13  C   UNL     1     -13.383   6.837  20.866  0.00  0.00    +0.027 A 
ATOM     15  C   UNL     1     -15.387   9.225  23.118  0.00  0.00    +0.219 C 
ATOM     20  C   UNL     1     -12.048   6.947  20.949  0.00  0.00    +0.022 A 
ATOM     22  C   UNL     1     -13.431   8.378  18.957  0.00  0.00    +0.259 A 
ATOM     23  C   UNL     1     -11.938   8.510  19.100  0.00  0.00    +0.050 A 
ATOM     24  C   UNL     1     -11.320   7.802  20.056  0.00  0.00    +0.015 A 
ENDROOT
BRANCH  23  25
ATOM      5  N   UNL     1     -10.060  11.501  17.840  0.00  0.00    -0.243 NA
ATOM      6  N   UNL     1     -10.082   9.819  16.115  0.00  0.00    -0.243 NA
ATOM     25  C   UNL     1     -11.163   9.402  18.220  0.00  0.00    +0.024 A 
ATOM     26  C   UNL     1     -10.769  10.659  18.620  0.00  0.00    +0.122 A 
ATOM     27  C   UNL     1     -10.792   9.028  16.948  0.00  0.00    +0.122 A 
ATOM     28  C   UNL     1      -9.755  11.024  16.617  0.00  0.00    +0.221 A 
ENDBRANCH  23  25
BRANCH  15  14
ATOM     14  C   UNL     1     -14.207   9.591  23.969  0.00  0.00    +0.075 C 
ATOM     16  C   UNL     1     -13.221  10.434  23.159  0.00  0.00    +0.013 C 
ATOM     17  C   UNL     1     -14.679  10.329  25.223  0.00  0.00    +0.013 C 
ATOM     18  C   UNL     1     -12.049  10.908  24.014  0.00  0.00    +0.001 C 
ATOM     19  C   UNL     1     -13.503  10.803  26.074  0.00  0.00    +0.001 C 
ATOM     21  C   UNL     1     -12.524  11.646  25.263  0.00  0.00    +0.000 C 
ENDBRANCH  15  14
TORSDOF 2
ENDMDL
MODEL 3
REMARK VINA RESULT:      -6.4     17.507     20.974
REMARK  Name = 11885261
REMARK  2 active torsions:
REMARK  status: ('A' for Active; 'I' for Inactive)
REMARK    1  A    between atoms: C_14  and  C_15
REMARK    2  A    between atoms: C_23  and  C_25
REMARK                            x       y       z     vdW  Elec       q    Type
REMARK                         _______ _______ _______ _____ _____    ______ ____
ROOT
ATOM      1  O   UNL     1      12.902   6.284  -2.131  0.00  0.00    -0.275 OA
ATOM      2  O   UNL     1      12.338   7.666   3.004  0.00  0.00    -0.267 OA
ATOM      3  N   UNL     1      13.420   4.498  -0.738  0.00  0.00    -0.300 N 
ATOM      4  N   UNL     1      12.846   5.525   2.231  0.00  0.00    -0.311 N 
ATOM      7  C   UNL     1      15.065   4.967   1.081  0.00  0.00    +0.027 C 
ATOM      8  C   UNL     1      13.373   3.210   1.390  0.00  0.00    +0.054 C 
ATOM      9  C   UNL     1      14.838   3.564   1.633  0.00  0.00    +0.018 C 
ATOM     10  C   UNL     1      14.755   5.010  -0.425  0.00  0.00    +0.113 C 
ATOM     11  C   UNL     1      13.088   3.203  -0.124  0.00  0.00    +0.117 C 
ATOM     12  C   UNL     1      14.205   5.956   1.876  0.00  0.00    +0.130 C 
ATOM     13  C   UNL     1      12.450   4.194   2.082  0.00  0.00    +0.027 A 
ATOM     15  C   UNL     1      12.604   5.197  -1.628  0.00  0.00    +0.219 C 
ATOM     20  C   UNL     1      11.246   3.797   2.524  0.00  0.00    +0.022 A 
ATOM     22  C   UNL     1      12.011   6.491   2.825  0.00  0.00    +0.259 A 
ATOM     23  C   UNL     1      10.653   6.024   3.277  0.00  0.00    +0.050 A 
ATOM     24  C   UNL     1      10.335   4.730   3.124  0.00  0.00    +0.015 A 
ENDROOT
BRANCH  23  25
ATOM      5  N   UNL     1       7.917   8.568   3.602  0.00  0.00    -0.243 NA
ATOM      6  N   UNL     1       8.708   7.997   5.805  0.00  0.00    -0.243 NA
ATOM     25  C   UNL     1       9.682   6.960   3.869  0.00  0.00    +0.024 A 
ATOM     26  C   UNL     1       8.818   7.701   3.094  0.00  0.00    +0.122 A 
ATOM     27  C   UNL     1       9.586   7.148   5.230  0.00  0.00    +0.122 A 
ATOM     28  C   UNL     1       7.917   8.665   4.946  0.00  0.00    +0.221 A 
ENDBRANCH  23  25
BRANCH  15  14
ATOM     14  C   UNL     1      11.285   4.568  -1.967  0.00  0.00    +0.075 C 
ATOM     16  C   UNL     1      10.258   5.654  -2.292  0.00  0.00    +0.013 C 
ATOM     17  C   UNL     1      11.458   3.593  -3.134  0.00  0.00    +0.013 C 
ATOM     18  C   UNL     1       8.925   5.055  -2.735  0.00  0.00    +0.001 C 
ATOM     19  C   UNL     1      10.123   2.999  -3.575  0.00  0.00    +0.001 C 
ATOM     21  C   UNL     1       9.103   4.086  -3.900  0.00  0.00    +0.000 C 
ENDBRANCH  15  14
TORSDOF 2
ENDMDL
MODEL 4
REMARK VINA RESULT:      -6.4     28.572     31.028
REMARK  Name = 11885261
REMARK  2 active torsions:
REMARK  status: ('A' for Active; 'I' for Inactive)
REMARK    1  A    between atoms: C_14  and  C_15
REMARK    2  A    between atoms: C_23  and  C_25
REMARK                            x       y       z     vdW  Elec       q    Type
REMARK                         _______ _______ _______ _____ _____    ______ ____
ROOT
ATOM      1  O   UNL     1      -6.626 -11.364  20.345  0.00  0.00    -0.275 OA
ATOM      2  O   UNL     1     -11.397  -9.431  18.898  0.00  0.00    -0.267 OA
ATOM      3  N   UNL     1      -7.854 -12.975  19.207  0.00  0.00    -0.300 N 
ATOM      4  N   UNL     1     -10.558 -11.528  18.318  0.00  0.00    -0.311 N 
ATOM      7  C   UNL     1     -10.171 -13.382  20.043  0.00  0.00    +0.027 C 
ATOM      8  C   UNL     1      -9.640 -13.785  17.676  0.00  0.00    +0.054 C 
ATOM      9  C   UNL     1     -10.415 -14.329  18.874  0.00  0.00    +0.018 C 
ATOM     10  C   UNL     1      -8.670 -13.309  20.374  0.00  0.00    +0.113 C 
ATOM     11  C   UNL     1      -8.133 -13.769  18.000  0.00  0.00    +0.117 C 
ATOM     12  C   UNL     1     -10.752 -12.006  19.694  0.00  0.00    +0.130 C 
ATOM     13  C   UNL     1     -10.102 -12.387  17.314  0.00  0.00    +0.027 A 
ATOM     15  C   UNL     1      -6.843 -12.020  19.323  0.00  0.00    +0.219 C 
ATOM     20  C   UNL     1     -10.048 -11.964  16.041  0.00  0.00    +0.022 A 
ATOM     22  C   UNL     1     -10.957 -10.206  18.045  0.00  0.00    +0.259 A 
ATOM     23  C   UNL     1     -10.850  -9.749  16.615  0.00  0.00    +0.050 A 
ATOM     24  C   UNL     1     -10.422 -10.622  15.692  0.00  0.00    +0.015 A 
ENDROOT
BRANCH  23  25
ATOM      5  N   UNL     1     -10.515  -6.152  15.608  0.00  0.00    -0.243 NA
ATOM      6  N   UNL     1     -12.857  -6.700  15.750  0.00  0.00    -0.243 NA
ATOM     25  C   UNL     1     -11.196  -8.371  16.227  0.00  0.00    +0.024 A 
ATOM     26  C   UNL     1     -10.233  -7.422  15.965  0.00  0.00    +0.122 A 
ATOM     27  C   UNL     1     -12.503  -7.954  16.104  0.00  0.00    +0.122 A 
ATOM     28  C   UNL     1     -11.828  -5.863  15.521  0.00  0.00    +0.221 A 
ENDBRANCH  23  25
BRANCH  15  14
ATOM     14  C   UNL     1      -5.991 -11.792  18.110  0.00  0.00    +0.075 C 
ATOM     16  C   UNL     1      -6.519 -10.594  17.319  0.00  0.00    +0.013 C 
ATOM     17  C   UNL     1      -4.533 -11.589  18.528  0.00  0.00    +0.013 C 
ATOM     18  C   UNL     1      -5.626 -10.267  16.125  0.00  0.00    +0.001 C 
ATOM     19  C   UNL     1      -3.643 -11.260  17.332  0.00  0.00    +0.001 C 
ATOM     21  C   UNL     1      -4.173 -10.063  16.548  0.00  0.00    +0.000 C 
ENDBRANCH  15  14
TORSDOF 2
ENDMDL
MODEL 5
REMARK VINA RESULT:      -6.3     27.091     29.272
REMARK  Name = 11885261
REMARK  2 active torsions:
REMARK  status: ('A' for Active; 'I' for Inactive)
REMARK    1  A    between atoms: C_14  and  C_15
REMARK    2  A    between atoms: C_23  and  C_25
REMARK                            x       y       z     vdW  Elec       q    Type
REMARK                         _______ _______ _______ _____ _____    ______ ____
ROOT
ATOM      1  O   UNL     1      -3.996 -14.623  12.496  0.00  0.00    -0.275 OA
ATOM      2  O   UNL     1      -6.691 -10.254  13.994  0.00  0.00    -0.267 OA
ATOM      3  N   UNL     1      -2.534 -12.942  13.157  0.00  0.00    -0.300 N 
ATOM      4  N   UNL     1      -4.381 -10.534  14.150  0.00  0.00    -0.311 N 
ATOM      7  C   UNL     1      -2.872 -10.711  12.088  0.00  0.00    +0.027 C 
ATOM      8  C   UNL     1      -1.889 -10.850  14.338  0.00  0.00    +0.054 C 
ATOM      9  C   UNL     1      -1.798 -10.125  12.997  0.00  0.00    +0.018 C 
ATOM     10  C   UNL     1      -2.647 -12.220  11.889  0.00  0.00    +0.113 C 
ATOM     11  C   UNL     1      -1.606 -12.351  14.133  0.00  0.00    +0.117 C 
ATOM     12  C   UNL     1      -4.249 -10.409  12.692  0.00  0.00    +0.130 C 
ATOM     13  C   UNL     1      -3.256 -10.666  14.968  0.00  0.00    +0.027 A 
ATOM     15  C   UNL     1      -3.221 -14.145  13.329  0.00  0.00    +0.219 C 
ATOM     20  C   UNL     1      -3.390 -10.657  16.303  0.00  0.00    +0.022 A 
ATOM     22  C   UNL     1      -5.679 -10.405  14.682  0.00  0.00    +0.259 A 
ATOM     23  C   UNL     1      -5.801 -10.436  16.182  0.00  0.00    +0.050 A 
ATOM     24  C   UNL     1      -4.684 -10.546  16.915  0.00  0.00    +0.015 A 
ENDROOT
BRANCH  23  25
ATOM      5  N   UNL     1      -8.925 -11.424  18.007  0.00  0.00    -0.243 NA
ATOM      6  N   UNL     1      -9.017  -9.063  17.537  0.00  0.00    -0.243 NA
ATOM     25  C   UNL     1      -7.116 -10.357  16.842  0.00  0.00    +0.024 A 
ATOM     26  C   UNL     1      -7.722 -11.461  17.396  0.00  0.00    +0.122 A 
ATOM     27  C   UNL     1      -7.812  -9.172  16.940  0.00  0.00    +0.122 A 
ATOM     28  C   UNL     1      -9.508 -10.211  18.041  0.00  0.00    +0.221 A 
ENDBRANCH  23  25
BRANCH  15  14
ATOM     14  C   UNL     1      -2.991 -14.873  14.620  0.00  0.00    +0.075 C 
ATOM     16  C   UNL     1      -4.330 -15.169  15.298  0.00  0.00    +0.013 C 
ATOM     17  C   UNL     1      -2.198 -16.155  14.360  0.00  0.00    +0.013 C 
ATOM     18  C   UNL     1      -4.147 -15.992  16.570  0.00  0.00    +0.001 C 
ATOM     19  C   UNL     1      -2.020 -16.977  15.634  0.00  0.00    +0.001 C 
ATOM     21  C   UNL     1      -3.358 -17.272  16.305  0.00  0.00    +0.000 C 
ENDBRANCH  15  14
TORSDOF 2
ENDMDL
MODEL 6
REMARK VINA RESULT:      -6.2     21.779     25.177
REMARK  Name = 11885261
REMARK  2 active torsions:
REMARK  status: ('A' for Active; 'I' for Inactive)
REMARK    1  A    between atoms: C_14  and  C_15
REMARK    2  A    between atoms: C_23  and  C_25
REMARK                            x       y       z     vdW  Elec       q    Type
REMARK                         _______ _______ _______ _____ _____    ______ ____
ROOT
ATOM      1  O   UNL     1      -2.872  12.317   2.849  0.00  0.00    -0.275 OA
ATOM      2  O   UNL     1      -6.537   9.999   5.976  0.00  0.00    -0.267 OA
ATOM      3  N   UNL     1      -1.875  10.791   4.290  0.00  0.00    -0.300 N 
ATOM      4  N   UNL     1      -4.274   9.442   5.909  0.00  0.00    -0.311 N 
ATOM      7  C   UNL     1      -2.438  11.038   6.710  0.00  0.00    +0.027 C 
ATOM      8  C   UNL     1      -1.832   8.828   5.818  0.00  0.00    +0.054 C 
ATOM      9  C   UNL     1      -1.656   9.765   7.011  0.00  0.00    +0.018 C 
ATOM     10  C   UNL     1      -1.908  11.708   5.431  0.00  0.00    +0.113 C 
ATOM     11  C   UNL     1      -1.247   9.487   4.554  0.00  0.00    +0.117 C 
ATOM     12  C   UNL     1      -3.928  10.689   6.604  0.00  0.00    +0.130 C 
ATOM     13  C   UNL     1      -3.295   8.496   5.594  0.00  0.00    +0.027 A 
ATOM     15  C   UNL     1      -2.347  11.218   3.048  0.00  0.00    +0.219 C 
ATOM     20  C   UNL     1      -3.648   7.312   5.070  0.00  0.00    +0.022 A 
ATOM     22  C   UNL     1      -5.643   9.203   5.680  0.00  0.00    +0.259 A 
ATOM     23  C   UNL     1      -6.004   7.881   5.057  0.00  0.00    +0.050 A 
ATOM     24  C   UNL     1      -5.023   7.007   4.794  0.00  0.00    +0.015 A 
ENDROOT
BRANCH  23  25
ATOM      5  N   UNL     1      -9.257   7.627   3.208  0.00  0.00    -0.243 NA
ATOM      6  N   UNL     1      -9.491   6.529   5.339  0.00  0.00    -0.243 NA
ATOM     25  C   UNL     1      -7.402   7.548   4.732  0.00  0.00    +0.024 A 
ATOM     26  C   UNL     1      -7.980   7.915   3.537  0.00  0.00    +0.122 A 
ATOM     27  C   UNL     1      -8.207   6.851   5.605  0.00  0.00    +0.122 A 
ATOM     28  C   UNL     1      -9.945   6.942   4.141  0.00  0.00    +0.221 A 
ENDBRANCH  23  25
BRANCH  15  14
ATOM     14  C   UNL     1      -2.203  10.256   1.906  0.00  0.00    +0.075 C 
ATOM     16  C   UNL     1      -3.372  10.422   0.934  0.00  0.00    +0.013 C 
ATOM     17  C   UNL     1      -0.858  10.474   1.209  0.00  0.00    +0.013 C 
ATOM     18  C   UNL     1      -3.216   9.527  -0.293  0.00  0.00    +0.001 C 
ATOM     19  C   UNL     1      -0.708   9.579  -0.018  0.00  0.00    +0.001 C 
ATOM     21  C   UNL     1      -1.875   9.750  -0.986  0.00  0.00    +0.000 C 
ENDBRANCH  15  14
TORSDOF 2
ENDMDL
MODEL 7
REMARK VINA RESULT:      -6.0     14.986     18.531
REMARK  Name = 11885261
REMARK  2 active torsions:
REMARK  status: ('A' for Active; 'I' for Inactive)
REMARK    1  A    between atoms: C_14  and  C_15
REMARK    2  A    between atoms: C_23  and  C_25
REMARK                            x       y       z     vdW  Elec       q    Type
REMARK                         _______ _______ _______ _____ _____    ______ ____
ROOT
ATOM      1  O   UNL     1      11.906  10.432   5.241  0.00  0.00    -0.275 OA
ATOM      2  O   UNL     1       9.063   7.585   1.719  0.00  0.00    -0.267 OA
ATOM      3  N   UNL     1      10.793   8.689   6.301  0.00  0.00    -0.300 N 
ATOM      4  N   UNL     1       9.325   7.065   3.977  0.00  0.00    -0.311 N 
ATOM      7  C   UNL     1       8.345   8.514   5.847  0.00  0.00    +0.027 C 
ATOM      8  C   UNL     1       9.628   6.494   6.412  0.00  0.00    +0.054 C 
ATOM      9  C   UNL     1       8.301   7.213   6.642  0.00  0.00    +0.018 C 
ATOM     10  C   UNL     1       9.512   9.396   6.320  0.00  0.00    +0.113 C 
ATOM     11  C   UNL     1      10.786   7.364   6.939  0.00  0.00    +0.117 C 
ATOM     12  C   UNL     1       8.443   8.177   4.354  0.00  0.00    +0.130 C 
ATOM     13  C   UNL     1       9.840   6.194   4.940  0.00  0.00    +0.027 A 
ATOM     15  C   UNL     1      11.921   9.319   5.773  0.00  0.00    +0.219 C 
ATOM     20  C   UNL     1      10.543   5.114   4.564  0.00  0.00    +0.022 A 
ATOM     22  C   UNL     1       9.530   6.859   2.599  0.00  0.00    +0.259 A 
ATOM     23  C   UNL     1      10.354   5.660   2.209  0.00  0.00    +0.050 A 
ATOM     24  C   UNL     1      10.807   4.851   3.177  0.00  0.00    +0.015 A 
ENDROOT
BRANCH  23  25
ATOM      5  N   UNL     1      12.176   5.530  -1.066  0.00  0.00    -0.243 NA
ATOM      6  N   UNL     1      10.049   4.426  -1.319  0.00  0.00    -0.243 NA
ATOM     25  C   UNL     1      10.669   5.377   0.798  0.00  0.00    +0.024 A 
ATOM     26  C   UNL     1      11.856   5.772   0.223  0.00  0.00    +0.122 A 
ATOM     27  C   UNL     1       9.793   4.703  -0.023  0.00  0.00    +0.122 A 
ATOM     28  C   UNL     1      11.241   4.863  -1.769  0.00  0.00    +0.221 A 
ENDBRANCH  23  25
BRANCH  15  14
ATOM     14  C   UNL     1      13.217   8.568   5.866  0.00  0.00    +0.075 C 
ATOM     16  C   UNL     1      13.481   7.821   4.557  0.00  0.00    +0.013 C 
ATOM     17  C   UNL     1      14.355   9.533   6.201  0.00  0.00    +0.013 C 
ATOM     18  C   UNL     1      14.836   7.118   4.573  0.00  0.00    +0.001 C 
ATOM     19  C   UNL     1      15.709   8.827   6.213  0.00  0.00    +0.001 C 
ATOM     21  C   UNL     1      15.968   8.085   4.905  0.00  0.00    +0.000 C 
ENDBRANCH  15  14
TORSDOF 2
ENDMDL
MODEL 8
REMARK VINA RESULT:      -6.0     24.503     26.839
REMARK  Name = 11885261
REMARK  2 active torsions:
REMARK  status: ('A' for Active; 'I' for Inactive)
REMARK    1  A    between atoms: C_14  and  C_15
REMARK    2  A    between atoms: C_23  and  C_25
REMARK                            x       y       z     vdW  Elec       q    Type
REMARK                         _______ _______ _______ _____ _____    ______ ____
ROOT
ATOM      1  O   UNL     1     -12.693  12.508  19.298  0.00  0.00    -0.275 OA
ATOM      2  O   UNL     1     -14.698   8.429  16.482  0.00  0.00    -0.267 OA
ATOM      3  N   UNL     1     -11.375  10.611  19.549  0.00  0.00    -0.300 N 
ATOM      4  N   UNL     1     -12.683   8.397  17.654  0.00  0.00    -0.311 N 
ATOM      7  C   UNL     1     -12.574   8.523  20.210  0.00  0.00    +0.027 C 
ATOM      8  C   UNL     1     -10.496   8.375  18.904  0.00  0.00    +0.054 C 
ATOM      9  C   UNL     1     -11.275   7.740  20.054  0.00  0.00    +0.018 C 
ATOM     10  C   UNL     1     -12.280  10.000  20.524  0.00  0.00    +0.113 C 
ATOM     11  C   UNL     1     -10.159   9.837  19.254  0.00  0.00    +0.117 C 
ATOM     12  C   UNL     1     -13.406   8.358  18.932  0.00  0.00    +0.130 C 
ATOM     13  C   UNL     1     -11.288   8.325  17.612  0.00  0.00    +0.027 A 
ATOM     15  C   UNL     1     -11.665  11.876  19.038  0.00  0.00    +0.219 C 
ATOM     20  C   UNL     1     -10.654   8.239  16.432  0.00  0.00    +0.022 A 
ATOM     22  C   UNL     1     -13.465   8.400  16.484  0.00  0.00    +0.259 A 
ATOM     23  C   UNL     1     -12.725   8.341  15.174  0.00  0.00    +0.050 A 
ATOM     24  C   UNL     1     -11.387   8.254  15.197  0.00  0.00    +0.015 A 
ENDROOT
BRANCH  23  25
ATOM      5  N   UNL     1     -14.701   7.273  12.172  0.00  0.00    -0.243 NA
ATOM      6  N   UNL     1     -14.208   9.624  11.977  0.00  0.00    -0.243 NA
ATOM     25  C   UNL     1     -13.442   8.386  13.889  0.00  0.00    +0.024 A 
ATOM     26  C   UNL     1     -14.037   7.268  13.346  0.00  0.00    +0.122 A 
ATOM     27  C   UNL     1     -13.558   9.547  13.158  0.00  0.00    +0.122 A 
ATOM     28  C   UNL     1     -14.747   8.466  11.549  0.00  0.00    +0.221 A 
ENDBRANCH  23  25
BRANCH  15  14
ATOM     14  C   UNL     1     -10.650  12.476  18.110  0.00  0.00    +0.075 C 
ATOM     16  C   UNL     1     -10.857  11.938  16.693  0.00  0.00    +0.013 C 
ATOM     17  C   UNL     1     -10.746  14.003  18.151  0.00  0.00    +0.013 C 
ATOM     18  C   UNL     1      -9.904  12.594  15.697  0.00  0.00    +0.001 C 
ATOM     19  C   UNL     1      -9.794  14.654  17.151  0.00  0.00    +0.001 C 
ATOM     21  C   UNL     1     -10.006  14.117  15.739  0.00  0.00    +0.000 C 
ENDBRANCH  15  14
TORSDOF 2
ENDMDL
MODEL 9
REMARK VINA RESULT:      -5.9     24.464     27.157
REMARK  Name = 11885261
REMARK  2 active torsions:
REMARK  status: ('A' for Active; 'I' for Inactive)
REMARK    1  A    between atoms: C_14  and  C_15
REMARK    2  A    between atoms: C_23  and  C_25
REMARK                            x       y       z     vdW  Elec       q    Type
REMARK                         _______ _______ _______ _____ _____    ______ ____
ROOT
ATOM      1  O   UNL     1     -14.478  12.033  16.052  0.00  0.00    -0.275 OA
ATOM      2  O   UNL     1     -12.865   9.901  20.683  0.00  0.00    -0.267 OA
ATOM      3  N   UNL     1     -12.192  11.622  16.015  0.00  0.00    -0.300 N 
ATOM      4  N   UNL     1     -11.524  10.211  18.801  0.00  0.00    -0.311 N 
ATOM      7  C   UNL     1     -10.882  12.534  17.934  0.00  0.00    +0.027 C 
ATOM      8  C   UNL     1     -10.085  10.528  16.758  0.00  0.00    +0.054 C 
ATOM      9  C   UNL     1      -9.635  11.837  17.401  0.00  0.00    +0.018 C 
ATOM     10  C   UNL     1     -11.871  12.820  16.792  0.00  0.00    +0.113 C 
ATOM     11  C   UNL     1     -11.031  10.829  15.580  0.00  0.00    +0.117 C 
ATOM     12  C   UNL     1     -11.504  11.662  19.032  0.00  0.00    +0.130 C 
ATOM     13  C   UNL     1     -10.785   9.636  17.764  0.00  0.00    +0.027 A 
ATOM     15  C   UNL     1     -13.519  11.354  15.675  0.00  0.00    +0.219 C 
ATOM     20  C   UNL     1     -10.720   8.300  17.646  0.00  0.00    +0.022 A 
ATOM     22  C   UNL     1     -12.231   9.431  19.736  0.00  0.00    +0.259 A 
ATOM     23  C   UNL     1     -12.170   7.938  19.555  0.00  0.00    +0.050 A 
ATOM     24  C   UNL     1     -11.430   7.443  18.553  0.00  0.00    +0.015 A 
ENDROOT
BRANCH  23  25
ATOM      5  N   UNL     1     -12.913   5.350  22.166  0.00  0.00    -0.243 NA
ATOM      6  N   UNL     1     -14.995   6.147  21.251  0.00  0.00    -0.243 NA
ATOM     25  C   UNL     1     -12.910   7.030  20.448  0.00  0.00    +0.024 A 
ATOM     26  C   UNL     1     -12.267   6.194  21.334  0.00  0.00    +0.122 A 
ATOM     27  C   UNL     1     -14.285   6.966  20.447  0.00  0.00    +0.122 A 
ATOM     28  C   UNL     1     -14.256   5.377  22.073  0.00  0.00    +0.221 A 
ENDBRANCH  23  25
BRANCH  15  14
ATOM     14  C   UNL     1     -13.763  10.157  14.805  0.00  0.00    +0.075 C 
ATOM     16  C   UNL     1     -14.045   8.930  15.674  0.00  0.00    +0.013 C 
ATOM     17  C   UNL     1     -14.917  10.440  13.842  0.00  0.00    +0.013 C 
ATOM     18  C   UNL     1     -14.392   7.708  14.828  0.00  0.00    +0.001 C 
ATOM     19  C   UNL     1     -15.262   9.214  13.000  0.00  0.00    +0.001 C 
ATOM     21  C   UNL     1     -15.546   7.994  13.871  0.00  0.00    +0.000 C 
ENDBRANCH  15  14
TORSDOF 2
ENDMDL
MODEL 10
REMARK VINA RESULT:      -5.9     27.643     30.587
REMARK  Name = 11885261
REMARK  2 active torsions:
REMARK  status: ('A' for Active; 'I' for Inactive)
REMARK    1  A    between atoms: C_14  and  C_15
REMARK    2  A    between atoms: C_23  and  C_25
REMARK                            x       y       z     vdW  Elec       q    Type
REMARK                         _______ _______ _______ _____ _____    ______ ____
ROOT
ATOM      1  O   UNL     1     -10.569 -11.890  15.693  0.00  0.00    -0.275 OA
ATOM      2  O   UNL     1      -5.425 -13.329  15.943  0.00  0.00    -0.267 OA
ATOM      3  N   UNL     1      -9.851 -11.989  17.900  0.00  0.00    -0.300 N 
ATOM      4  N   UNL     1      -6.740 -12.696  17.762  0.00  0.00    -0.311 N 
ATOM      7  C   UNL     1      -8.714 -14.102  18.590  0.00  0.00    +0.027 C 
ATOM      8  C   UNL     1      -8.157 -11.992  19.722  0.00  0.00    +0.054 C 
ATOM      9  C   UNL     1      -8.407 -13.481  19.948  0.00  0.00    +0.018 C 
ATOM     10  C   UNL     1      -9.958 -13.447  17.966  0.00  0.00    +0.113 C 
ATOM     11  C   UNL     1      -9.428 -11.336  19.149  0.00  0.00    +0.117 C 
ATOM     12  C   UNL     1      -7.478 -13.965  17.693  0.00  0.00    +0.130 C 
ATOM     13  C   UNL     1      -6.993 -11.769  18.777  0.00  0.00    +0.027 A 
ATOM     15  C   UNL     1     -10.218 -11.322  16.731  0.00  0.00    +0.219 C 
ATOM     20  C   UNL     1      -6.225 -10.674  18.893  0.00  0.00    +0.022 A 
ATOM     22  C   UNL     1      -5.700 -12.517  16.830  0.00  0.00    +0.259 A 
ATOM     23  C   UNL     1      -4.881 -11.261  16.963  0.00  0.00    +0.050 A 
ATOM     24  C   UNL     1      -5.159 -10.417  17.967  0.00  0.00    +0.015 A 
ENDROOT
BRANCH  23  25
ATOM      5  N   UNL     1      -1.467 -10.596  15.561  0.00  0.00    -0.243 NA
ATOM      6  N   UNL     1      -3.080 -10.430  13.780  0.00  0.00    -0.243 NA
ATOM     25  C   UNL     1      -3.799 -10.951  16.012  0.00  0.00    +0.024 A 
ATOM     26  C   UNL     1      -2.482 -10.878  16.405  0.00  0.00    +0.122 A 
ATOM     27  C   UNL     1      -4.047 -10.716  14.678  0.00  0.00    +0.122 A 
ATOM     28  C   UNL     1      -1.832 -10.385  14.282  0.00  0.00    +0.221 A 
ENDBRANCH  23  25
BRANCH  15  14
ATOM     14  C   UNL     1     -10.164  -9.824  16.765  0.00  0.00    +0.075 C 
ATOM     16  C   UNL     1      -9.697  -9.288  15.410  0.00  0.00    +0.013 C 
ATOM     17  C   UNL     1     -11.535  -9.262  17.148  0.00  0.00    +0.013 C 
ATOM     18  C   UNL     1      -9.718  -7.762  15.370  0.00  0.00    +0.001 C 
ATOM     19  C   UNL     1     -11.551  -7.736  17.104  0.00  0.00    +0.001 C 
ATOM     21  C   UNL     1     -11.087  -7.207  15.751  0.00  0.00    +0.000 C 
ENDBRANCH  15  14
TORSDOF 2
ENDMDL
