REMARK  Name = 56774407
REMARK  3 active torsions:
REMARK  status: ('A' for Active; 'I' for Inactive)
REMARK    1  A    between atoms: N_1  and  C_5
REMARK    2  A    between atoms: N_2  and  C_15
REMARK    3  A    between atoms: C_6  and  C_14
REMARK                            x       y       z     vdW  Elec       q    Type
REMARK                         _______ _______ _______ _____ _____    ______ ____
ROOT
ATOM      1  N   UNL     1      -1.785  -0.923  -0.231  0.00  0.00    -0.299 NA
ATOM      6  C   UNL     1       0.511  -1.182  -0.632  0.00  0.00    +0.070 C 
ATOM      7  C   UNL     1      -0.617  -0.142  -0.644  0.00  0.00    +0.096 C 
ATOM      8  C   UNL     1      -1.309  -1.761   0.869  0.00  0.00    +0.085 C 
ATOM      9  C   UNL     1       0.036  -2.260   0.358  0.00  0.00    +0.028 C 
ENDROOT
BRANCH   6  14
ATOM      3  N   UNL     1       2.900  -0.667  -1.205  0.00  0.00    -0.342 N 
ATOM      4  N   UNL     1       2.203   0.059   0.777  0.00  0.00    -0.232 NA
ATOM     14  C   UNL     1       1.863  -0.583  -0.319  0.00  0.00    +0.113 A 
ATOM     16  C   UNL     1       3.982  -0.038  -0.645  0.00  0.00    +0.066 A 
ATOM     17  C   UNL     1       3.522   0.406   0.592  0.00  0.00    +0.089 A 
ATOM     18  C   UNL     1       5.284   0.174  -1.099  0.00  0.00    +0.028 A 
ATOM     19  C   UNL     1       4.399   1.105   1.438  0.00  0.00    +0.030 A 
ATOM     20  C   UNL     1       6.143   0.871  -0.244  0.00  0.00    +0.002 A 
ATOM     21  C   UNL     1       5.711   1.329   1.002  0.00  0.00    +0.002 A 
ATOM     22  H   UNL     1       2.877  -1.113  -2.113  0.00  0.00    +0.167 HD
ENDBRANCH   6  14
BRANCH   1   5
ATOM      2  N   UNL     1      -5.695   0.742  -0.211  0.00  0.00    -0.305 NA
ATOM      5  C   UNL     1      -2.911  -0.078   0.160  0.00  0.00    +0.059 C 
ATOM     10  C   UNL     1      -4.086  -0.942   0.625  0.00  0.00    +0.034 C 
ATOM     11  C   UNL     1      -3.350   0.821  -1.000  0.00  0.00    +0.034 C 
ATOM     12  C   UNL     1      -5.309  -0.079   0.945  0.00  0.00    +0.085 C 
ATOM     13  C   UNL     1      -4.598   1.627  -0.627  0.00  0.00    +0.085 C 
ATOM     15  C   UNL     1      -6.894   1.523   0.093  0.00  0.00    +0.104 C 
ENDBRANCH   1   5
TORSDOF 2
