MODEL 1
REMARK VINA RESULT:      -6.5      0.000      0.000
REMARK  Name = 75536958
REMARK  5 active torsions:
REMARK  status: ('A' for Active; 'I' for Inactive)
REMARK    1  A    between atoms: O_2  and  C_7
REMARK    2  A    between atoms: N_4  and  C_9
REMARK    3  A    between atoms: C_9  and  C_12
REMARK    4  A    between atoms: C_13  and  C_15
REMARK    5  A    between atoms: C_14  and  C_16
REMARK                            x       y       z     vdW  Elec       q    Type
REMARK                         _______ _______ _______ _____ _____    ______ ____
ROOT
ATOM      1  O   UNL     1      -1.877  -2.252  24.922  0.00  0.00    -0.376 OA
ATOM      4  N   UNL     1      -2.453   0.718  24.161  0.00  0.00    -0.293 NA
ATOM      6  C   UNL     1      -1.070   0.623  23.680  0.00  0.00    +0.118 C 
ATOM      7  C   UNL     1      -0.362  -0.735  23.798  0.00  0.00    +0.154 C 
ATOM      8  C   UNL     1      -3.263  -0.474  23.907  0.00  0.00    +0.113 C 
ATOM     10  C   UNL     1      -0.677  -1.500  25.077  0.00  0.00    +0.192 C 
ATOM     11  C   UNL     1      -3.069  -1.487  25.038  0.00  0.00    +0.175 C 
ENDROOT
BRANCH   7   2
ATOM      2  O   UNL     1       1.048  -0.506  23.759  0.00  0.00    -0.388 OA
ATOM     17  H   UNL     1       1.392  -0.938  22.959  0.00  0.00    +0.210 HD
ENDBRANCH   7   2
BRANCH   4   9
ATOM      9  C   UNL     1      -3.089   1.922  23.627  0.00  0.00    +0.125 C 
BRANCH   9  12
ATOM      3  O   UNL     1      -3.787   4.384  26.294  0.00  0.00    -0.359 OA
ATOM      5  N   UNL     1      -5.011   3.729  26.271  0.00  0.00    -0.083 NA
ATOM     12  C   UNL     1      -3.616   2.811  24.723  0.00  0.00    +0.031 A 
ATOM     13  C   UNL     1      -2.964   3.829  25.368  0.00  0.00    +0.139 A 
ATOM     14  C   UNL     1      -4.885   2.793  25.325  0.00  0.00    +0.085 A 
ATOM     15  C   UNL     1      -1.618   4.408  25.260  0.00  0.00    +0.089 C 
ATOM     16  C   UNL     1      -6.018   1.898  25.030  0.00  0.00    +0.069 C 
ENDBRANCH   9  12
ENDBRANCH   4   9
TORSDOF 3
ENDMDL
MODEL 2
REMARK VINA RESULT:      -6.5      1.031      2.062
REMARK  Name = 75536958
REMARK  5 active torsions:
REMARK  status: ('A' for Active; 'I' for Inactive)
REMARK    1  A    between atoms: O_2  and  C_7
REMARK    2  A    between atoms: N_4  and  C_9
REMARK    3  A    between atoms: C_9  and  C_12
REMARK    4  A    between atoms: C_13  and  C_15
REMARK    5  A    between atoms: C_14  and  C_16
REMARK                            x       y       z     vdW  Elec       q    Type
REMARK                         _______ _______ _______ _____ _____    ______ ____
ROOT
ATOM      1  O   UNL     1      -1.193  -1.650  25.348  0.00  0.00    -0.376 OA
ATOM      4  N   UNL     1      -2.536   0.692  23.786  0.00  0.00    -0.293 NA
ATOM      6  C   UNL     1      -3.639  -0.274  23.742  0.00  0.00    +0.118 C 
ATOM      7  C   UNL     1      -3.447  -1.615  24.466  0.00  0.00    +0.154 C 
ATOM      8  C   UNL     1      -1.813   0.725  25.058  0.00  0.00    +0.113 C 
ATOM     10  C   UNL     1      -2.045  -2.199  24.347  0.00  0.00    +0.192 C 
ATOM     11  C   UNL     1      -0.716  -0.342  25.063  0.00  0.00    +0.175 C 
ENDROOT
BRANCH   7   2
ATOM      2  O   UNL     1      -4.364  -2.558  23.907  0.00  0.00    -0.388 OA
ATOM     17  H   UNL     1      -3.924  -2.977  23.148  0.00  0.00    +0.210 HD
ENDBRANCH   7   2
BRANCH   4   9
ATOM      9  C   UNL     1      -3.016   2.021  23.408  0.00  0.00    +0.125 C 
BRANCH   9  12
ATOM      3  O   UNL     1      -3.445   4.263  26.314  0.00  0.00    -0.359 OA
ATOM      5  N   UNL     1      -4.694   3.654  26.317  0.00  0.00    -0.083 NA
ATOM     12  C   UNL     1      -3.436   2.828  24.608  0.00  0.00    +0.031 A 
ATOM     13  C   UNL     1      -2.705   3.763  25.292  0.00  0.00    +0.139 A 
ATOM     14  C   UNL     1      -4.665   2.802  25.289  0.00  0.00    +0.085 A 
ATOM     15  C   UNL     1      -1.346   4.302  25.144  0.00  0.00    +0.089 C 
ATOM     16  C   UNL     1      -5.848   1.975  24.995  0.00  0.00    +0.069 C 
ENDBRANCH   9  12
ENDBRANCH   4   9
TORSDOF 3
ENDMDL
MODEL 3
REMARK VINA RESULT:      -6.4      1.172      2.894
REMARK  Name = 75536958
REMARK  5 active torsions:
REMARK  status: ('A' for Active; 'I' for Inactive)
REMARK    1  A    between atoms: O_2  and  C_7
REMARK    2  A    between atoms: N_4  and  C_9
REMARK    3  A    between atoms: C_9  and  C_12
REMARK    4  A    between atoms: C_13  and  C_15
REMARK    5  A    between atoms: C_14  and  C_16
REMARK                            x       y       z     vdW  Elec       q    Type
REMARK                         _______ _______ _______ _____ _____    ______ ____
ROOT
ATOM      1  O   UNL     1      -1.201  -1.724  25.342  0.00  0.00    -0.376 OA
ATOM      4  N   UNL     1      -2.433   0.668  23.764  0.00  0.00    -0.293 NA
ATOM      6  C   UNL     1      -3.578  -0.248  23.720  0.00  0.00    +0.118 C 
ATOM      7  C   UNL     1      -3.449  -1.593  24.451  0.00  0.00    +0.154 C 
ATOM      8  C   UNL     1      -1.714   0.675  25.039  0.00  0.00    +0.113 C 
ATOM     10  C   UNL     1      -2.073  -2.239  24.341  0.00  0.00    +0.192 C 
ATOM     11  C   UNL     1      -0.666  -0.440  25.053  0.00  0.00    +0.175 C 
ENDROOT
BRANCH   7   2
ATOM      2  O   UNL     1      -4.404  -2.497  23.893  0.00  0.00    -0.388 OA
ATOM     17  H   UNL     1      -4.304  -3.348  24.352  0.00  0.00    +0.210 HD
ENDBRANCH   7   2
BRANCH   4   9
ATOM      9  C   UNL     1      -2.852   2.015  23.377  0.00  0.00    +0.125 C 
BRANCH   9  12
ATOM      3  O   UNL     1      -4.380   3.749  26.261  0.00  0.00    -0.359 OA
ATOM      5  N   UNL     1      -3.125   4.344  26.284  0.00  0.00    -0.083 NA
ATOM     12  C   UNL     1      -3.238   2.847  24.572  0.00  0.00    +0.031 A 
ATOM     13  C   UNL     1      -4.436   2.859  25.238  0.00  0.00    +0.139 A 
ATOM     14  C   UNL     1      -2.461   3.789  25.266  0.00  0.00    +0.085 A 
ATOM     15  C   UNL     1      -5.703   2.135  25.069  0.00  0.00    +0.089 C 
ATOM     16  C   UNL     1      -1.072   4.197  24.995  0.00  0.00    +0.069 C 
ENDBRANCH   9  12
ENDBRANCH   4   9
TORSDOF 3
ENDMDL
MODEL 4
REMARK VINA RESULT:      -5.5     17.212     19.285
REMARK  Name = 75536958
REMARK  5 active torsions:
REMARK  status: ('A' for Active; 'I' for Inactive)
REMARK    1  A    between atoms: O_2  and  C_7
REMARK    2  A    between atoms: N_4  and  C_9
REMARK    3  A    between atoms: C_9  and  C_12
REMARK    4  A    between atoms: C_13  and  C_15
REMARK    5  A    between atoms: C_14  and  C_16
REMARK                            x       y       z     vdW  Elec       q    Type
REMARK                         _______ _______ _______ _____ _____    ______ ____
ROOT
ATOM      1  O   UNL     1      10.698   8.800  21.291  0.00  0.00    -0.376 OA
ATOM      4  N   UNL     1      13.574   8.288  20.198  0.00  0.00    -0.293 NA
ATOM      6  C   UNL     1      13.181   6.899  20.465  0.00  0.00    +0.118 C 
ATOM      7  C   UNL     1      11.757   6.645  20.983  0.00  0.00    +0.154 C 
ATOM      8  C   UNL     1      12.509   9.120  19.638  0.00  0.00    +0.113 C 
ATOM     10  C   UNL     1      11.255   7.684  21.978  0.00  0.00    +0.192 C 
ATOM     11  C   UNL     1      11.659   9.707  20.767  0.00  0.00    +0.175 C 
ENDROOT
BRANCH   7   2
ATOM      2  O   UNL     1      11.741   5.372  21.631  0.00  0.00    -0.388 OA
ATOM     17  H   UNL     1      11.994   4.705  20.970  0.00  0.00    +0.210 HD
ENDBRANCH   7   2
BRANCH   4   9
ATOM      9  C   UNL     1      14.774   8.318  19.361  0.00  0.00    +0.125 C 
BRANCH   9  12
ATOM      3  O   UNL     1      17.671   8.258  21.655  0.00  0.00    -0.359 OA
ATOM      5  N   UNL     1      17.949   7.115  20.916  0.00  0.00    -0.083 NA
ATOM     12  C   UNL     1      16.024   8.070  20.164  0.00  0.00    +0.031 A 
ATOM     13  C   UNL     1      16.522   8.818  21.198  0.00  0.00    +0.139 A 
ATOM     14  C   UNL     1      16.952   7.024  20.032  0.00  0.00    +0.085 A 
ATOM     15  C   UNL     1      16.080  10.046  21.874  0.00  0.00    +0.089 C 
ATOM     16  C   UNL     1      16.929   5.906  19.073  0.00  0.00    +0.069 C 
ENDBRANCH   9  12
ENDBRANCH   4   9
TORSDOF 3
ENDMDL
MODEL 5
REMARK VINA RESULT:      -5.1     16.627     18.495
REMARK  Name = 75536958
REMARK  5 active torsions:
REMARK  status: ('A' for Active; 'I' for Inactive)
REMARK    1  A    between atoms: O_2  and  C_7
REMARK    2  A    between atoms: N_4  and  C_9
REMARK    3  A    between atoms: C_9  and  C_12
REMARK    4  A    between atoms: C_13  and  C_15
REMARK    5  A    between atoms: C_14  and  C_16
REMARK                            x       y       z     vdW  Elec       q    Type
REMARK                         _______ _______ _______ _____ _____    ______ ____
ROOT
ATOM      1  O   UNL     1      10.614   8.632  21.789  0.00  0.00    -0.376 OA
ATOM      4  N   UNL     1      12.640   7.938  19.520  0.00  0.00    -0.293 NA
ATOM      6  C   UNL     1      12.371   6.581  20.009  0.00  0.00    +0.118 C 
ATOM      7  C   UNL     1      11.341   6.416  21.138  0.00  0.00    +0.154 C 
ATOM      8  C   UNL     1      11.463   8.807  19.474  0.00  0.00    +0.113 C 
ATOM     10  C   UNL     1      11.390   7.510  22.197  0.00  0.00    +0.192 C 
ATOM     11  C   UNL     1      11.251   9.471  20.836  0.00  0.00    +0.175 C 
ENDROOT
BRANCH   7   2
ATOM      2  O   UNL     1      11.587   5.166  21.784  0.00  0.00    -0.388 OA
ATOM     17  H   UNL     1      10.926   4.533  21.455  0.00  0.00    +0.210 HD
ENDBRANCH   7   2
BRANCH   4   9
ATOM      9  C   UNL     1      13.316   7.880  18.224  0.00  0.00    +0.125 C 
BRANCH   9  12
ATOM      3  O   UNL     1      14.854  11.199  17.694  0.00  0.00    -0.359 OA
ATOM      5  N   UNL     1      14.067  11.134  16.551  0.00  0.00    -0.083 NA
ATOM     12  C   UNL     1      13.797   9.238  17.782  0.00  0.00    +0.031 A 
ATOM     13  C   UNL     1      14.685  10.064  18.419  0.00  0.00    +0.139 A 
ATOM     14  C   UNL     1      13.445   9.954  16.626  0.00  0.00    +0.085 A 
ATOM     15  C   UNL     1      15.450   9.968  19.670  0.00  0.00    +0.089 C 
ATOM     16  C   UNL     1      12.515   9.551  15.557  0.00  0.00    +0.069 C 
ENDBRANCH   9  12
ENDBRANCH   4   9
TORSDOF 3
ENDMDL
MODEL 6
REMARK VINA RESULT:      -5.1     16.587     18.509
REMARK  Name = 75536958
REMARK  5 active torsions:
REMARK  status: ('A' for Active; 'I' for Inactive)
REMARK    1  A    between atoms: O_2  and  C_7
REMARK    2  A    between atoms: N_4  and  C_9
REMARK    3  A    between atoms: C_9  and  C_12
REMARK    4  A    between atoms: C_13  and  C_15
REMARK    5  A    between atoms: C_14  and  C_16
REMARK                            x       y       z     vdW  Elec       q    Type
REMARK                         _______ _______ _______ _____ _____    ______ ____
ROOT
ATOM      1  O   UNL     1      10.571   8.632  21.775  0.00  0.00    -0.376 OA
ATOM      4  N   UNL     1      12.619   7.922  19.532  0.00  0.00    -0.293 NA
ATOM      6  C   UNL     1      12.350   6.569  20.032  0.00  0.00    +0.118 C 
ATOM      7  C   UNL     1      11.311   6.413  21.153  0.00  0.00    +0.154 C 
ATOM      8  C   UNL     1      11.440   8.787  19.466  0.00  0.00    +0.113 C 
ATOM     10  C   UNL     1      11.346   7.517  22.202  0.00  0.00    +0.192 C 
ATOM     11  C   UNL     1      11.214   9.464  20.820  0.00  0.00    +0.175 C 
ENDROOT
BRANCH   7   2
ATOM      2  O   UNL     1      11.554   5.170  21.814  0.00  0.00    -0.388 OA
ATOM     17  H   UNL     1      10.712   4.685  21.843  0.00  0.00    +0.210 HD
ENDBRANCH   7   2
BRANCH   4   9
ATOM      9  C   UNL     1      13.307   7.854  18.243  0.00  0.00    +0.125 C 
BRANCH   9  12
ATOM      3  O   UNL     1      13.943  11.080  16.556  0.00  0.00    -0.359 OA
ATOM      5  N   UNL     1      14.773  11.239  17.658  0.00  0.00    -0.083 NA
ATOM     12  C   UNL     1      13.731   9.217  17.761  0.00  0.00    +0.031 A 
ATOM     13  C   UNL     1      13.328   9.872  16.628  0.00  0.00    +0.139 A 
ATOM     14  C   UNL     1      14.630  10.113  18.363  0.00  0.00    +0.085 A 
ATOM     15  C   UNL     1      12.408   9.541  15.531  0.00  0.00    +0.089 C 
ATOM     16  C   UNL     1      15.380   9.940  19.620  0.00  0.00    +0.069 C 
ENDBRANCH   9  12
ENDBRANCH   4   9
TORSDOF 3
ENDMDL
MODEL 7
REMARK VINA RESULT:      -4.9     17.326     19.492
REMARK  Name = 75536958
REMARK  5 active torsions:
REMARK  status: ('A' for Active; 'I' for Inactive)
REMARK    1  A    between atoms: O_2  and  C_7
REMARK    2  A    between atoms: N_4  and  C_9
REMARK    3  A    between atoms: C_9  and  C_12
REMARK    4  A    between atoms: C_13  and  C_15
REMARK    5  A    between atoms: C_14  and  C_16
REMARK                            x       y       z     vdW  Elec       q    Type
REMARK                         _______ _______ _______ _____ _____    ______ ____
ROOT
ATOM      1  O   UNL     1      11.207   9.472  22.037  0.00  0.00    -0.376 OA
ATOM      4  N   UNL     1      13.675   8.446  20.428  0.00  0.00    -0.293 NA
ATOM      6  C   UNL     1      12.811   7.266  20.299  0.00  0.00    +0.118 C 
ATOM      7  C   UNL     1      11.405   7.336  20.914  0.00  0.00    +0.154 C 
ATOM      8  C   UNL     1      12.970   9.724  20.322  0.00  0.00    +0.113 C 
ATOM     10  C   UNL     1      11.338   8.070  22.248  0.00  0.00    +0.192 C 
ATOM     11  C   UNL     1      12.418  10.130  21.690  0.00  0.00    +0.175 C 
ENDROOT
BRANCH   7   2
ATOM      2  O   UNL     1      10.945   6.000  21.124  0.00  0.00    -0.388 OA
ATOM     17  H   UNL     1      10.434   5.994  21.951  0.00  0.00    +0.210 HD
ENDBRANCH   7   2
BRANCH   4   9
ATOM      9  C   UNL     1      14.783   8.364  19.476  0.00  0.00    +0.125 C 
BRANCH   9  12
ATOM      3  O   UNL     1      18.013   7.129  20.780  0.00  0.00    -0.359 OA
ATOM      5  N   UNL     1      17.889   8.279  21.549  0.00  0.00    -0.083 NA
ATOM     12  C   UNL     1      16.092   8.078  20.164  0.00  0.00    +0.031 A 
ATOM     13  C   UNL     1      16.937   7.020  19.959  0.00  0.00    +0.139 A 
ATOM     14  C   UNL     1      16.734   8.829  21.163  0.00  0.00    +0.085 A 
ATOM     15  C   UNL     1      16.909   5.849  19.071  0.00  0.00    +0.089 C 
ATOM     16  C   UNL     1      16.282  10.086  21.785  0.00  0.00    +0.069 C 
ENDBRANCH   9  12
ENDBRANCH   4   9
TORSDOF 3
ENDMDL
MODEL 8
REMARK VINA RESULT:      -4.9     17.914     19.832
REMARK  Name = 75536958
REMARK  5 active torsions:
REMARK  status: ('A' for Active; 'I' for Inactive)
REMARK    1  A    between atoms: O_2  and  C_7
REMARK    2  A    between atoms: N_4  and  C_9
REMARK    3  A    between atoms: C_9  and  C_12
REMARK    4  A    between atoms: C_13  and  C_15
REMARK    5  A    between atoms: C_14  and  C_16
REMARK                            x       y       z     vdW  Elec       q    Type
REMARK                         _______ _______ _______ _____ _____    ______ ____
ROOT
ATOM      1  O   UNL     1      16.221   9.106  21.676  0.00  0.00    -0.376 OA
ATOM      4  N   UNL     1      14.072   9.718  19.500  0.00  0.00    -0.293 NA
ATOM      6  C   UNL     1      13.647   8.361  19.865  0.00  0.00    +0.118 C 
ATOM      7  C   UNL     1      14.413   7.649  20.990  0.00  0.00    +0.154 C 
ATOM      8  C   UNL     1      14.500  10.541  20.632  0.00  0.00    +0.113 C 
ATOM     10  C   UNL     1      15.916   7.899  20.984  0.00  0.00    +0.192 C 
ATOM     11  C   UNL     1      15.980  10.289  20.928  0.00  0.00    +0.175 C 
ENDROOT
BRANCH   7   2
ATOM      2  O   UNL     1      14.201   6.243  20.851  0.00  0.00    -0.388 OA
ATOM     17  H   UNL     1      14.643   5.806  21.599  0.00  0.00    +0.210 HD
ENDBRANCH   7   2
BRANCH   4   9
ATOM      9  C   UNL     1      13.025  10.380  18.722  0.00  0.00    +0.125 C 
BRANCH   9  12
ATOM      3  O   UNL     1      13.717   9.818  15.135  0.00  0.00    -0.359 OA
ATOM      5  N   UNL     1      12.558   9.063  15.258  0.00  0.00    -0.083 NA
ATOM     12  C   UNL     1      13.085  10.001  17.265  0.00  0.00    +0.031 A 
ATOM     13  C   UNL     1      14.021  10.372  16.337  0.00  0.00    +0.139 A 
ATOM     14  C   UNL     1      12.199   9.188  16.539  0.00  0.00    +0.085 A 
ATOM     15  C   UNL     1      15.228  11.209  16.384  0.00  0.00    +0.089 C 
ATOM     16  C   UNL     1      10.989   8.502  17.026  0.00  0.00    +0.069 C 
ENDBRANCH   9  12
ENDBRANCH   4   9
TORSDOF 3
ENDMDL
MODEL 9
REMARK VINA RESULT:      -4.8     13.214     14.864
REMARK  Name = 75536958
REMARK  5 active torsions:
REMARK  status: ('A' for Active; 'I' for Inactive)
REMARK    1  A    between atoms: O_2  and  C_7
REMARK    2  A    between atoms: N_4  and  C_9
REMARK    3  A    between atoms: C_9  and  C_12
REMARK    4  A    between atoms: C_13  and  C_15
REMARK    5  A    between atoms: C_14  and  C_16
REMARK                            x       y       z     vdW  Elec       q    Type
REMARK                         _______ _______ _______ _____ _____    ______ ____
ROOT
ATOM      1  O   UNL     1     -14.181   1.247  31.650  0.00  0.00    -0.376 OA
ATOM      4  N   UNL     1     -14.944   4.185  32.368  0.00  0.00    -0.293 NA
ATOM      6  C   UNL     1     -15.125   4.251  30.913  0.00  0.00    +0.118 C 
ATOM      7  C   UNL     1     -14.908   2.963  30.104  0.00  0.00    +0.154 C 
ATOM      8  C   UNL     1     -15.404   2.937  32.977  0.00  0.00    +0.113 C 
ATOM     10  C   UNL     1     -13.751   2.101  30.594  0.00  0.00    +0.192 C 
ATOM     11  C   UNL     1     -14.293   1.886  32.914  0.00  0.00    +0.175 C 
ENDROOT
BRANCH   7   2
ATOM      2  O   UNL     1     -14.640   3.329  28.750  0.00  0.00    -0.388 OA
ATOM     17  H   UNL     1     -14.588   2.508  28.231  0.00  0.00    +0.210 HD
ENDBRANCH   7   2
BRANCH   4   9
ATOM      9  C   UNL     1     -15.558   5.351  33.004  0.00  0.00    +0.125 C 
BRANCH   9  12
ATOM      3  O   UNL     1     -13.178   6.734  35.470  0.00  0.00    -0.359 OA
ATOM      5  N   UNL     1     -13.137   7.753  34.527  0.00  0.00    -0.083 NA
ATOM     12  C   UNL     1     -14.567   6.120  33.838  0.00  0.00    +0.031 A 
ATOM     13  C   UNL     1     -14.033   5.768  35.050  0.00  0.00    +0.139 A 
ATOM     14  C   UNL     1     -13.975   7.364  33.562  0.00  0.00    +0.085 A 
ATOM     15  C   UNL     1     -14.196   4.608  35.937  0.00  0.00    +0.089 C 
ATOM     16  C   UNL     1     -14.178   8.223  32.383  0.00  0.00    +0.069 C 
ENDBRANCH   9  12
ENDBRANCH   4   9
TORSDOF 3
ENDMDL
MODEL 10
REMARK VINA RESULT:      -4.7     22.868     24.460
REMARK  Name = 75536958
REMARK  5 active torsions:
REMARK  status: ('A' for Active; 'I' for Inactive)
REMARK    1  A    between atoms: O_2  and  C_7
REMARK    2  A    between atoms: N_4  and  C_9
REMARK    3  A    between atoms: C_9  and  C_12
REMARK    4  A    between atoms: C_13  and  C_15
REMARK    5  A    between atoms: C_14  and  C_16
REMARK                            x       y       z     vdW  Elec       q    Type
REMARK                         _______ _______ _______ _____ _____    ______ ____
ROOT
ATOM      1  O   UNL     1      12.771   6.959   2.687  0.00  0.00    -0.376 OA
ATOM      4  N   UNL     1      10.521   5.533   4.309  0.00  0.00    -0.293 NA
ATOM      6  C   UNL     1      10.836   4.457   3.362  0.00  0.00    +0.118 C 
ATOM      7  C   UNL     1      11.977   4.695   2.361  0.00  0.00    +0.154 C 
ATOM      8  C   UNL     1      11.688   6.268   4.799  0.00  0.00    +0.113 C 
ATOM     10  C   UNL     1      12.040   6.113   1.805  0.00  0.00    +0.192 C 
ATOM     11  C   UNL     1      12.041   7.394   3.825  0.00  0.00    +0.175 C 
ENDROOT
BRANCH   7   2
ATOM      2  O   UNL     1      11.797   3.801   1.261  0.00  0.00    -0.388 OA
ATOM     17  H   UNL     1      11.445   4.319   0.518  0.00  0.00    +0.210 HD
ENDBRANCH   7   2
BRANCH   4   9
ATOM      9  C   UNL     1       9.714   5.011   5.412  0.00  0.00    +0.125 C 
BRANCH   9  12
ATOM      3  O   UNL     1       8.101   7.967   6.937  0.00  0.00    -0.359 OA
ATOM      5  N   UNL     1       8.617   7.379   8.084  0.00  0.00    -0.083 NA
ATOM     12  C   UNL     1       9.149   6.117   6.265  0.00  0.00    +0.031 A 
ATOM     13  C   UNL     1       8.424   7.206   5.859  0.00  0.00    +0.139 A 
ATOM     14  C   UNL     1       9.239   6.276   7.658  0.00  0.00    +0.085 A 
ATOM     15  C   UNL     1       7.952   7.689   4.554  0.00  0.00    +0.089 C 
ATOM     16  C   UNL     1       9.910   5.396   8.630  0.00  0.00    +0.069 C 
ENDBRANCH   9  12
ENDBRANCH   4   9
TORSDOF 3
ENDMDL
