MODEL 1
REMARK VINA RESULT:      -7.5      0.000      0.000
REMARK  Name = 71693713
REMARK  9 active torsions:
REMARK  status: ('A' for Active; 'I' for Inactive)
REMARK    1  A    between atoms: O_3  and  C_16
REMARK    2  A    between atoms: N_6  and  C_8
REMARK    3  A    between atoms: N_7  and  C_23
REMARK    4  A    between atoms: C_9  and  C_16
REMARK    5  A    between atoms: C_10  and  C_18
REMARK    6  A    between atoms: C_24  and  C_25
REMARK    7  A    between atoms: C_24  and  C_26
REMARK    8  A    between atoms: C_25  and  C_27
REMARK    9  A    between atoms: C_25  and  C_28
REMARK                            x       y       z     vdW  Elec       q    Type
REMARK                         _______ _______ _______ _____ _____    ______ ____
ROOT
ATOM      1  O   UNL     1      14.034   9.151  21.853  0.00  0.00    -0.361 OA
ATOM      4  O   UNL     1      12.468  11.617  20.071  0.00  0.00    -0.273 OA
ATOM      6  N   UNL     1      13.029   9.466  19.359  0.00  0.00    -0.288 N 
ATOM      9  C   UNL     1      13.205   8.066  19.759  0.00  0.00    +0.135 C 
ATOM     10  C   UNL     1      13.992   7.941  21.090  0.00  0.00    +0.171 C 
ATOM     13  C   UNL     1      12.768  10.449  20.311  0.00  0.00    +0.242 C 
ATOM     17  C   UNL     1      12.870   9.941  21.729  0.00  0.00    +0.256 C 
ENDROOT
BRANCH   6   8
ATOM      2  O   UNL     1      13.125   8.858  15.224  0.00  0.00    -0.380 OA
ATOM      8  C   UNL     1      13.001   9.771  17.950  0.00  0.00    +0.081 C 
ATOM     11  C   UNL     1      14.316   9.379  17.274  0.00  0.00    +0.050 C 
ATOM     12  C   UNL     1      11.825   9.076  17.264  0.00  0.00    +0.050 C 
ATOM     14  C   UNL     1      14.227   9.583  15.767  0.00  0.00    +0.161 C 
ATOM     15  C   UNL     1      11.875   9.296  15.758  0.00  0.00    +0.161 C 
ENDBRANCH   6   8
BRANCH  10  18
ATOM     18  C   UNL     1      15.429   7.521  20.840  0.00  0.00    -0.017 A 
ATOM     19  C   UNL     1      15.705   6.447  19.994  0.00  0.00    +0.008 A 
ATOM     20  C   UNL     1      16.474   8.210  21.457  0.00  0.00    +0.008 A 
ATOM     21  C   UNL     1      17.026   6.062  19.764  0.00  0.00    +0.023 A 
ATOM     22  C   UNL     1      17.794   7.825  21.226  0.00  0.00    +0.023 A 
ATOM     23  C   UNL     1      18.071   6.751  20.381  0.00  0.00    +0.033 A 
BRANCH  23   7
ATOM      5  O   UNL     1      20.314   6.254  22.311  0.00  0.00    -0.275 OA
ATOM      7  N   UNL     1      19.392   6.366  20.150  0.00  0.00    -0.285 N 
ATOM     26  C   UNL     1      20.406   6.133  21.093  0.00  0.00    +0.217 C 
ATOM     30  H   UNL     1      19.641   6.265  19.169  0.00  0.00    +0.155 HD
BRANCH  26  24
ATOM     24  C   UNL     1      21.710   5.728  20.415  0.00  0.00    +0.099 C 
BRANCH  24  25
ATOM     25  C   UNL     1      22.451   4.583  21.124  0.00  0.00    -0.008 C 
ATOM     27  C   UNL     1      23.796   4.326  20.443  0.00  0.00    +0.008 C 
ATOM     28  C   UNL     1      21.619   3.298  21.125  0.00  0.00    +0.008 C 
ENDBRANCH  24  25
ENDBRANCH  26  24
ENDBRANCH  23   7
ENDBRANCH  10  18
BRANCH   9  16
ATOM     16  C   UNL     1      11.849   7.353  19.848  0.00  0.00    +0.181 C 
BRANCH  16   3
ATOM      3  O   UNL     1      12.053   5.981  19.579  0.00  0.00    -0.393 OA
ATOM     29  H   UNL     1      12.388   5.573  20.396  0.00  0.00    +0.209 HD
ENDBRANCH  16   3
ENDBRANCH   9  16
TORSDOF 7
ENDMDL
MODEL 2
REMARK VINA RESULT:      -7.1      1.862      3.268
REMARK  Name = 71693713
REMARK  9 active torsions:
REMARK  status: ('A' for Active; 'I' for Inactive)
REMARK    1  A    between atoms: O_3  and  C_16
REMARK    2  A    between atoms: N_6  and  C_8
REMARK    3  A    between atoms: N_7  and  C_23
REMARK    4  A    between atoms: C_9  and  C_16
REMARK    5  A    between atoms: C_10  and  C_18
REMARK    6  A    between atoms: C_24  and  C_25
REMARK    7  A    between atoms: C_24  and  C_26
REMARK    8  A    between atoms: C_25  and  C_27
REMARK    9  A    between atoms: C_25  and  C_28
REMARK                            x       y       z     vdW  Elec       q    Type
REMARK                         _______ _______ _______ _____ _____    ______ ____
ROOT
ATOM      1  O   UNL     1      12.685   6.374  21.000  0.00  0.00    -0.361 OA
ATOM      4  O   UNL     1      11.064   8.653  22.972  0.00  0.00    -0.273 OA
ATOM      6  N   UNL     1      12.572   9.068  21.239  0.00  0.00    -0.288 N 
ATOM      9  C   UNL     1      13.088   8.606  19.946  0.00  0.00    +0.135 C 
ATOM     10  C   UNL     1      13.350   7.077  19.944  0.00  0.00    +0.171 C 
ATOM     13  C   UNL     1      11.660   8.298  21.957  0.00  0.00    +0.242 C 
ATOM     17  C   UNL     1      11.437   6.931  21.354  0.00  0.00    +0.256 C 
ENDROOT
BRANCH   6   8
ATOM      2  O   UNL     1      13.656  13.100  21.019  0.00  0.00    -0.380 OA
ATOM      8  C   UNL     1      12.930  10.394  21.677  0.00  0.00    +0.081 C 
ATOM     11  C   UNL     1      14.332  10.775  21.199  0.00  0.00    +0.050 C 
ATOM     12  C   UNL     1      11.908  11.423  21.194  0.00  0.00    +0.050 C 
ATOM     14  C   UNL     1      14.646  12.223  21.554  0.00  0.00    +0.161 C 
ATOM     15  C   UNL     1      12.357  12.835  21.548  0.00  0.00    +0.161 C 
ENDBRANCH   6   8
BRANCH  10  18
ATOM     18  C   UNL     1      14.832   6.774  20.071  0.00  0.00    -0.017 A 
ATOM     19  C   UNL     1      15.440   6.782  21.326  0.00  0.00    +0.008 A 
ATOM     20  C   UNL     1      15.585   6.486  18.933  0.00  0.00    +0.008 A 
ATOM     21  C   UNL     1      16.802   6.502  21.444  0.00  0.00    +0.023 A 
ATOM     22  C   UNL     1      16.946   6.207  19.050  0.00  0.00    +0.023 A 
ATOM     23  C   UNL     1      17.555   6.215  20.305  0.00  0.00    +0.033 A 
BRANCH  23   7
ATOM      5  O   UNL     1      19.835   7.977  21.144  0.00  0.00    -0.275 OA
ATOM      7  N   UNL     1      18.917   5.935  20.423  0.00  0.00    -0.285 N 
ATOM     26  C   UNL     1      19.948   6.796  20.833  0.00  0.00    +0.217 C 
ATOM     30  H   UNL     1      19.182   4.991  20.153  0.00  0.00    +0.155 HD
BRANCH  26  24
ATOM     24  C   UNL     1      21.298   6.086  20.819  0.00  0.00    +0.099 C 
BRANCH  24  25
ATOM     25  C   UNL     1      21.431   4.982  21.880  0.00  0.00    -0.008 C 
ATOM     27  C   UNL     1      22.486   5.373  22.916  0.00  0.00    +0.008 C 
ATOM     28  C   UNL     1      21.806   3.641  21.243  0.00  0.00    +0.008 C 
ENDBRANCH  24  25
ENDBRANCH  26  24
ENDBRANCH  23   7
ENDBRANCH  10  18
BRANCH   9  16
ATOM     16  C   UNL     1      12.140   9.007  18.809  0.00  0.00    +0.181 C 
BRANCH  16   3
ATOM      3  O   UNL     1      11.668   7.827  18.191  0.00  0.00    -0.393 OA
ATOM     29  H   UNL     1      12.446   7.327  17.892  0.00  0.00    +0.209 HD
ENDBRANCH  16   3
ENDBRANCH   9  16
TORSDOF 7
ENDMDL
MODEL 3
REMARK VINA RESULT:      -6.8      1.923      3.738
REMARK  Name = 71693713
REMARK  9 active torsions:
REMARK  status: ('A' for Active; 'I' for Inactive)
REMARK    1  A    between atoms: O_3  and  C_16
REMARK    2  A    between atoms: N_6  and  C_8
REMARK    3  A    between atoms: N_7  and  C_23
REMARK    4  A    between atoms: C_9  and  C_16
REMARK    5  A    between atoms: C_10  and  C_18
REMARK    6  A    between atoms: C_24  and  C_25
REMARK    7  A    between atoms: C_24  and  C_26
REMARK    8  A    between atoms: C_25  and  C_27
REMARK    9  A    between atoms: C_25  and  C_28
REMARK                            x       y       z     vdW  Elec       q    Type
REMARK                         _______ _______ _______ _____ _____    ______ ____
ROOT
ATOM      1  O   UNL     1      13.738   7.260  18.701  0.00  0.00    -0.361 OA
ATOM      4  O   UNL     1      10.771   8.063  20.205  0.00  0.00    -0.273 OA
ATOM      6  N   UNL     1      12.792   9.227  20.303  0.00  0.00    -0.288 N 
ATOM      9  C   UNL     1      14.021   9.582  19.585  0.00  0.00    +0.135 C 
ATOM     10  C   UNL     1      14.645   8.356  18.869  0.00  0.00    +0.171 C 
ATOM     13  C   UNL     1      11.887   8.321  19.756  0.00  0.00    +0.242 C 
ATOM     17  C   UNL     1      12.398   7.658  18.499  0.00  0.00    +0.256 C 
ENDROOT
BRANCH   6   8
ATOM      2  O   UNL     1      12.659  12.354  23.075  0.00  0.00    -0.380 OA
ATOM      8  C   UNL     1      12.486   9.939  21.519  0.00  0.00    +0.081 C 
ATOM     11  C   UNL     1      13.763  10.353  22.252  0.00  0.00    +0.050 C 
ATOM     12  C   UNL     1      11.619  11.164  21.230  0.00  0.00    +0.050 C 
ATOM     14  C   UNL     1      13.431  11.218  23.462  0.00  0.00    +0.161 C 
ATOM     15  C   UNL     1      11.407  11.984  22.496  0.00  0.00    +0.161 C 
ENDBRANCH   6   8
BRANCH  10  18
ATOM     18  C   UNL     1      15.846   7.827  19.632  0.00  0.00    -0.017 A 
ATOM     19  C   UNL     1      16.335   6.549  19.365  0.00  0.00    +0.008 A 
ATOM     20  C   UNL     1      16.461   8.621  20.600  0.00  0.00    +0.008 A 
ATOM     21  C   UNL     1      17.439   6.063  20.065  0.00  0.00    +0.023 A 
ATOM     22  C   UNL     1      17.565   8.135  21.300  0.00  0.00    +0.023 A 
ATOM     23  C   UNL     1      18.054   6.857  21.033  0.00  0.00    +0.033 A 
BRANCH  23   7
ATOM      5  O   UNL     1      20.976   6.936  20.350  0.00  0.00    -0.275 OA
ATOM      7  N   UNL     1      19.159   6.371  21.734  0.00  0.00    -0.285 N 
ATOM     26  C   UNL     1      20.515   6.443  21.376  0.00  0.00    +0.217 C 
ATOM     30  H   UNL     1      18.934   5.889  22.600  0.00  0.00    +0.155 HD
BRANCH  26  24
ATOM     24  C   UNL     1      21.401   5.784  22.428  0.00  0.00    +0.099 C 
BRANCH  24  25
ATOM     25  C   UNL     1      22.285   4.655  21.878  0.00  0.00    -0.008 C 
ATOM     27  C   UNL     1      21.421   3.604  21.178  0.00  0.00    +0.008 C 
ATOM     28  C   UNL     1      23.100   3.992  22.992  0.00  0.00    +0.008 C 
ENDBRANCH  24  25
ENDBRANCH  26  24
ENDBRANCH  23   7
ENDBRANCH  10  18
BRANCH   9  16
ATOM     16  C   UNL     1      13.760  10.726  18.597  0.00  0.00    +0.181 C 
BRANCH  16   3
ATOM      3  O   UNL     1      14.965  11.001  17.912  0.00  0.00    -0.393 OA
ATOM     29  H   UNL     1      15.307  11.844  18.256  0.00  0.00    +0.209 HD
ENDBRANCH  16   3
ENDBRANCH   9  16
TORSDOF 7
ENDMDL
MODEL 4
REMARK VINA RESULT:      -6.6     26.137     29.627
REMARK  Name = 71693713
REMARK  9 active torsions:
REMARK  status: ('A' for Active; 'I' for Inactive)
REMARK    1  A    between atoms: O_3  and  C_16
REMARK    2  A    between atoms: N_6  and  C_8
REMARK    3  A    between atoms: N_7  and  C_23
REMARK    4  A    between atoms: C_9  and  C_16
REMARK    5  A    between atoms: C_10  and  C_18
REMARK    6  A    between atoms: C_24  and  C_25
REMARK    7  A    between atoms: C_24  and  C_26
REMARK    8  A    between atoms: C_25  and  C_27
REMARK    9  A    between atoms: C_25  and  C_28
REMARK                            x       y       z     vdW  Elec       q    Type
REMARK                         _______ _______ _______ _____ _____    ______ ____
ROOT
ATOM      1  O   UNL     1      -3.073 -13.140  14.837  0.00  0.00    -0.361 OA
ATOM      4  O   UNL     1      -2.980 -13.436  11.429  0.00  0.00    -0.273 OA
ATOM      6  N   UNL     1      -3.358 -11.510  12.694  0.00  0.00    -0.288 N 
ATOM      9  C   UNL     1      -3.057 -10.805  13.944  0.00  0.00    +0.135 C 
ATOM     10  C   UNL     1      -3.133 -11.749  15.172  0.00  0.00    +0.171 C 
ATOM     13  C   UNL     1      -2.904 -12.811  12.486  0.00  0.00    +0.242 C 
ATOM     17  C   UNL     1      -2.267 -13.419  13.712  0.00  0.00    +0.256 C 
ENDROOT
BRANCH   6   8
ATOM      2  O   UNL     1      -4.646  -8.251  10.414  0.00  0.00    -0.380 OA
ATOM      8  C   UNL     1      -4.017 -10.777  11.642  0.00  0.00    +0.081 C 
ATOM     11  C   UNL     1      -5.076  -9.830  12.209  0.00  0.00    +0.050 C 
ATOM     12  C   UNL     1      -3.004  -9.998  10.803  0.00  0.00    +0.050 C 
ATOM     14  C   UNL     1      -5.670  -8.966  11.104  0.00  0.00    +0.161 C 
ATOM     15  C   UNL     1      -3.713  -9.125   9.777  0.00  0.00    +0.161 C 
ENDBRANCH   6   8
BRANCH  10  18
ATOM     18  C   UNL     1      -4.418 -11.534  15.952  0.00  0.00    -0.017 A 
ATOM     19  C   UNL     1      -5.535 -12.325  15.687  0.00  0.00    +0.008 A 
ATOM     20  C   UNL     1      -4.479 -10.544  16.934  0.00  0.00    +0.008 A 
ATOM     21  C   UNL     1      -6.715 -12.127  16.405  0.00  0.00    +0.023 A 
ATOM     22  C   UNL     1      -5.659 -10.347  17.650  0.00  0.00    +0.023 A 
ATOM     23  C   UNL     1      -6.777 -11.138  17.386  0.00  0.00    +0.033 A 
BRANCH  23   7
ATOM      5  O   UNL     1      -7.555 -12.053  20.137  0.00  0.00    -0.275 OA
ATOM      7  N   UNL     1      -7.958 -10.940  18.104  0.00  0.00    -0.285 N 
ATOM     26  C   UNL     1      -8.271 -11.382  19.400  0.00  0.00    +0.217 C 
ATOM     30  H   UNL     1      -8.679 -10.428  17.602  0.00  0.00    +0.155 HD
BRANCH  26  24
ATOM     24  C   UNL     1      -9.675 -10.948  19.807  0.00  0.00    +0.099 C 
BRANCH  24  25
ATOM     25  C   UNL     1     -10.685 -10.941  18.649  0.00  0.00    -0.008 C 
ATOM     27  C   UNL     1     -11.484  -9.637  18.656  0.00  0.00    +0.008 C 
ATOM     28  C   UNL     1     -11.642 -12.133  18.738  0.00  0.00    +0.008 C 
ENDBRANCH  24  25
ENDBRANCH  26  24
ENDBRANCH  23   7
ENDBRANCH  10  18
BRANCH   9  16
ATOM     16  C   UNL     1      -1.690 -10.114  13.861  0.00  0.00    +0.181 C 
BRANCH  16   3
ATOM      3  O   UNL     1      -1.390  -9.574  15.132  0.00  0.00    -0.393 OA
ATOM     29  H   UNL     1      -0.792 -10.199  15.577  0.00  0.00    +0.209 HD
ENDBRANCH  16   3
ENDBRANCH   9  16
TORSDOF 7
ENDMDL
MODEL 5
REMARK VINA RESULT:      -6.5     26.496     29.492
REMARK  Name = 71693713
REMARK  9 active torsions:
REMARK  status: ('A' for Active; 'I' for Inactive)
REMARK    1  A    between atoms: O_3  and  C_16
REMARK    2  A    between atoms: N_6  and  C_8
REMARK    3  A    between atoms: N_7  and  C_23
REMARK    4  A    between atoms: C_9  and  C_16
REMARK    5  A    between atoms: C_10  and  C_18
REMARK    6  A    between atoms: C_24  and  C_25
REMARK    7  A    between atoms: C_24  and  C_26
REMARK    8  A    between atoms: C_25  and  C_27
REMARK    9  A    between atoms: C_25  and  C_28
REMARK                            x       y       z     vdW  Elec       q    Type
REMARK                         _______ _______ _______ _____ _____    ______ ____
ROOT
ATOM      1  O   UNL     1      -2.101 -10.922  12.992  0.00  0.00    -0.361 OA
ATOM      4  O   UNL     1      -1.509 -10.302  16.304  0.00  0.00    -0.273 OA
ATOM      6  N   UNL     1      -3.536 -10.854  15.287  0.00  0.00    -0.288 N 
ATOM      9  C   UNL     1      -4.182 -11.600  14.201  0.00  0.00    +0.135 C 
ATOM     10  C   UNL     1      -3.438 -11.415  12.852  0.00  0.00    +0.171 C 
ATOM     13  C   UNL     1      -2.147 -10.778  15.367  0.00  0.00    +0.242 C 
ATOM     17  C   UNL     1      -1.451 -11.367  14.164  0.00  0.00    +0.256 C 
ENDROOT
BRANCH   6   8
ATOM      2  O   UNL     1      -6.713 -10.562  17.988  0.00  0.00    -0.380 OA
ATOM      8  C   UNL     1      -4.370 -10.321  16.334  0.00  0.00    +0.081 C 
ATOM     11  C   UNL     1      -5.776 -10.012  15.817  0.00  0.00    +0.050 C 
ATOM     12  C   UNL     1      -4.441 -11.283  17.519  0.00  0.00    +0.050 C 
ATOM     14  C   UNL     1      -6.685  -9.575  16.959  0.00  0.00    +0.161 C 
ATOM     15  C   UNL     1      -5.425 -10.776  18.566  0.00  0.00    +0.161 C 
ENDBRANCH   6   8
BRANCH  10  18
ATOM     18  C   UNL     1      -4.178 -10.448  11.946  0.00  0.00    -0.017 A 
ATOM     19  C   UNL     1      -3.616 -10.066  10.728  0.00  0.00    +0.008 A 
ATOM     20  C   UNL     1      -5.419  -9.942  12.332  0.00  0.00    +0.008 A 
ATOM     21  C   UNL     1      -4.296  -9.178   9.894  0.00  0.00    +0.023 A 
ATOM     22  C   UNL     1      -6.098  -9.054  11.498  0.00  0.00    +0.023 A 
ATOM     23  C   UNL     1      -5.538  -8.672  10.280  0.00  0.00    +0.033 A 
BRANCH  23   7
ATOM      5  O   UNL     1      -8.108  -9.008   8.767  0.00  0.00    -0.275 OA
ATOM      7  N   UNL     1      -6.218  -7.783   9.446  0.00  0.00    -0.285 N 
ATOM     26  C   UNL     1      -7.430  -7.985   8.766  0.00  0.00    +0.217 C 
ATOM     30  H   UNL     1      -5.752  -6.890   9.307  0.00  0.00    +0.155 HD
BRANCH  26  24
ATOM     24  C   UNL     1      -7.823  -6.752   7.959  0.00  0.00    +0.099 C 
BRANCH  24  25
ATOM     25  C   UNL     1      -9.299  -6.353   8.111  0.00  0.00    -0.008 C 
ATOM     27  C   UNL     1     -10.043  -6.579   6.794  0.00  0.00    +0.008 C 
ATOM     28  C   UNL     1      -9.439  -4.889   8.538  0.00  0.00    +0.008 C 
ENDBRANCH  24  25
ENDBRANCH  26  24
ENDBRANCH  23   7
ENDBRANCH  10  18
BRANCH   9  16
ATOM     16  C   UNL     1      -4.309 -13.085  14.565  0.00  0.00    +0.181 C 
BRANCH  16   3
ATOM      3  O   UNL     1      -3.896 -13.849  13.450  0.00  0.00    -0.393 OA
ATOM     29  H   UNL     1      -4.623 -13.834  12.805  0.00  0.00    +0.209 HD
ENDBRANCH  16   3
ENDBRANCH   9  16
TORSDOF 7
ENDMDL
MODEL 6
REMARK VINA RESULT:      -6.4     15.625     20.011
REMARK  Name = 71693713
REMARK  9 active torsions:
REMARK  status: ('A' for Active; 'I' for Inactive)
REMARK    1  A    between atoms: O_3  and  C_16
REMARK    2  A    between atoms: N_6  and  C_8
REMARK    3  A    between atoms: N_7  and  C_23
REMARK    4  A    between atoms: C_9  and  C_16
REMARK    5  A    between atoms: C_10  and  C_18
REMARK    6  A    between atoms: C_24  and  C_25
REMARK    7  A    between atoms: C_24  and  C_26
REMARK    8  A    between atoms: C_25  and  C_27
REMARK    9  A    between atoms: C_25  and  C_28
REMARK                            x       y       z     vdW  Elec       q    Type
REMARK                         _______ _______ _______ _____ _____    ______ ____
ROOT
ATOM      1  O   UNL     1      10.000   5.933  -0.963  0.00  0.00    -0.361 OA
ATOM      4  O   UNL     1      12.380   7.264  -3.030  0.00  0.00    -0.273 OA
ATOM      6  N   UNL     1      12.594   5.453  -1.572  0.00  0.00    -0.288 N 
ATOM      9  C   UNL     1      11.910   4.319  -0.942  0.00  0.00    +0.135 C 
ATOM     10  C   UNL     1      10.509   4.716  -0.405  0.00  0.00    +0.171 C 
ATOM     13  C   UNL     1      11.886   6.367  -2.349  0.00  0.00    +0.242 C 
ATOM     17  C   UNL     1      10.392   6.152  -2.302  0.00  0.00    +0.256 C 
ENDROOT
BRANCH   6   8
ATOM      2  O   UNL     1      16.555   4.151  -1.270  0.00  0.00    -0.380 OA
ATOM      8  C   UNL     1      14.031   5.518  -1.476  0.00  0.00    +0.081 C 
ATOM     11  C   UNL     1      14.525   4.899  -0.167  0.00  0.00    +0.050 C 
ATOM     12  C   UNL     1      14.689   4.828  -2.670  0.00  0.00    +0.050 C 
ATOM     14  C   UNL     1      16.047   4.853  -0.136  0.00  0.00    +0.161 C 
ATOM     15  C   UNL     1      16.202   4.785  -2.500  0.00  0.00    +0.161 C 
ENDBRANCH   6   8
BRANCH  10  18
ATOM     18  C   UNL     1      10.528   4.889   1.102  0.00  0.00    -0.017 A 
ATOM     19  C   UNL     1      10.051   6.068   1.674  0.00  0.00    +0.008 A 
ATOM     20  C   UNL     1      11.023   3.870   1.915  0.00  0.00    +0.008 A 
ATOM     21  C   UNL     1      10.067   6.228   3.060  0.00  0.00    +0.023 A 
ATOM     22  C   UNL     1      11.039   4.029   3.300  0.00  0.00    +0.023 A 
ATOM     23  C   UNL     1      10.562   5.208   3.873  0.00  0.00    +0.033 A 
BRANCH  23   7
ATOM      5  O   UNL     1      12.129   7.104   5.592  0.00  0.00    -0.275 OA
ATOM      7  N   UNL     1      10.578   5.367   5.260  0.00  0.00    -0.285 N 
ATOM     26  C   UNL     1      11.325   6.282   6.020  0.00  0.00    +0.217 C 
ATOM     30  H   UNL     1       9.985   4.717   5.769  0.00  0.00    +0.155 HD
BRANCH  26  24
ATOM     24  C   UNL     1      11.045   6.120   7.511  0.00  0.00    +0.099 C 
BRANCH  24  25
ATOM     25  C   UNL     1       9.564   5.880   7.843  0.00  0.00    -0.008 C 
ATOM     27  C   UNL     1       8.834   7.217   7.985  0.00  0.00    +0.008 C 
ATOM     28  C   UNL     1       9.407   5.067   9.131  0.00  0.00    +0.008 C 
ENDBRANCH  24  25
ENDBRANCH  26  24
ENDBRANCH  23   7
ENDBRANCH  10  18
BRANCH   9  16
ATOM     16  C   UNL     1      11.815   3.135  -1.913  0.00  0.00    +0.181 C 
BRANCH  16   3
ATOM      3  O   UNL     1      10.449   2.842  -2.121  0.00  0.00    -0.393 OA
ATOM     29  H   UNL     1      10.036   3.640  -2.492  0.00  0.00    +0.209 HD
ENDBRANCH  16   3
ENDBRANCH   9  16
TORSDOF 7
ENDMDL
MODEL 7
REMARK VINA RESULT:      -6.3     27.224     30.443
REMARK  Name = 71693713
REMARK  9 active torsions:
REMARK  status: ('A' for Active; 'I' for Inactive)
REMARK    1  A    between atoms: O_3  and  C_16
REMARK    2  A    between atoms: N_6  and  C_8
REMARK    3  A    between atoms: N_7  and  C_23
REMARK    4  A    between atoms: C_9  and  C_16
REMARK    5  A    between atoms: C_10  and  C_18
REMARK    6  A    between atoms: C_24  and  C_25
REMARK    7  A    between atoms: C_24  and  C_26
REMARK    8  A    between atoms: C_25  and  C_27
REMARK    9  A    between atoms: C_25  and  C_28
REMARK                            x       y       z     vdW  Elec       q    Type
REMARK                         _______ _______ _______ _____ _____    ______ ____
ROOT
ATOM      1  O   UNL     1     -14.073   8.467  22.359  0.00  0.00    -0.361 OA
ATOM      4  O   UNL     1     -17.361   8.036  23.203  0.00  0.00    -0.273 OA
ATOM      6  N   UNL     1     -15.971   6.563  22.041  0.00  0.00    -0.288 N 
ATOM      9  C   UNL     1     -14.600   6.071  21.874  0.00  0.00    +0.135 C 
ATOM     10  C   UNL     1     -13.572   7.232  21.834  0.00  0.00    +0.171 C 
ATOM     13  C   UNL     1     -16.241   7.638  22.884  0.00  0.00    +0.242 C 
ATOM     17  C   UNL     1     -14.994   8.302  23.416  0.00  0.00    +0.256 C 
ENDROOT
BRANCH   6   8
ATOM      2  O   UNL     1     -18.002   3.353  20.294  0.00  0.00    -0.380 OA
ATOM      8  C   UNL     1     -17.040   5.821  21.420  0.00  0.00    +0.081 C 
ATOM     11  C   UNL     1     -16.641   5.346  20.022  0.00  0.00    +0.050 C 
ATOM     12  C   UNL     1     -17.454   4.632  22.285  0.00  0.00    +0.050 C 
ATOM     14  C   UNL     1     -17.724   4.453  19.428  0.00  0.00    +0.161 C 
ATOM     15  C   UNL     1     -18.491   3.778  21.566  0.00  0.00    +0.161 C 
ENDBRANCH   6   8
BRANCH  10  18
ATOM     18  C   UNL     1     -13.108   7.507  20.415  0.00  0.00    -0.017 A 
ATOM     19  C   UNL     1     -11.817   7.154  20.023  0.00  0.00    +0.008 A 
ATOM     20  C   UNL     1     -13.974   8.111  19.503  0.00  0.00    +0.008 A 
ATOM     21  C   UNL     1     -11.390   7.406  18.718  0.00  0.00    +0.023 A 
ATOM     22  C   UNL     1     -13.547   8.362  18.199  0.00  0.00    +0.023 A 
ATOM     23  C   UNL     1     -12.256   8.010  17.807  0.00  0.00    +0.033 A 
BRANCH  23   7
ATOM      5  O   UNL     1     -10.425  10.133  16.736  0.00  0.00    -0.275 OA
ATOM      7  N   UNL     1     -11.830   8.261  16.502  0.00  0.00    -0.285 N 
ATOM     26  C   UNL     1     -10.958   9.266  16.051  0.00  0.00    +0.217 C 
ATOM     30  H   UNL     1     -12.226   7.642  15.799  0.00  0.00    +0.155 HD
BRANCH  26  24
ATOM     24  C   UNL     1     -10.757   9.187  14.541  0.00  0.00    +0.099 C 
BRANCH  24  25
ATOM     25  C   UNL     1     -11.128   7.824  13.935  0.00  0.00    -0.008 C 
ATOM     27  C   UNL     1     -10.057   7.385  12.935  0.00  0.00    +0.008 C 
ATOM     28  C   UNL     1     -12.492   7.877  13.240  0.00  0.00    +0.008 C 
ENDBRANCH  24  25
ENDBRANCH  26  24
ENDBRANCH  23   7
ENDBRANCH  10  18
BRANCH   9  16
ATOM     16  C   UNL     1     -14.248   5.058  22.970  0.00  0.00    +0.181 C 
BRANCH  16   3
ATOM      3  O   UNL     1     -13.091   4.355  22.568  0.00  0.00    -0.393 OA
ATOM     29  H   UNL     1     -12.452   5.012  22.244  0.00  0.00    +0.209 HD
ENDBRANCH  16   3
ENDBRANCH   9  16
TORSDOF 7
ENDMDL
MODEL 8
REMARK VINA RESULT:      -6.3     28.463     32.198
REMARK  Name = 71693713
REMARK  9 active torsions:
REMARK  status: ('A' for Active; 'I' for Inactive)
REMARK    1  A    between atoms: O_3  and  C_16
REMARK    2  A    between atoms: N_6  and  C_8
REMARK    3  A    between atoms: N_7  and  C_23
REMARK    4  A    between atoms: C_9  and  C_16
REMARK    5  A    between atoms: C_10  and  C_18
REMARK    6  A    between atoms: C_24  and  C_25
REMARK    7  A    between atoms: C_24  and  C_26
REMARK    8  A    between atoms: C_25  and  C_27
REMARK    9  A    between atoms: C_25  and  C_28
REMARK                            x       y       z     vdW  Elec       q    Type
REMARK                         _______ _______ _______ _____ _____    ______ ____
ROOT
ATOM      1  O   UNL     1     -11.463 -11.505  17.473  0.00  0.00    -0.361 OA
ATOM      4  O   UNL     1      -9.018 -13.707  16.535  0.00  0.00    -0.273 OA
ATOM      6  N   UNL     1      -8.758 -11.552  17.394  0.00  0.00    -0.288 N 
ATOM      9  C   UNL     1      -9.310 -10.531  18.291  0.00  0.00    +0.135 C 
ATOM     10  C   UNL     1     -10.846 -10.390  18.126  0.00  0.00    +0.171 C 
ATOM     13  C   UNL     1      -9.451 -12.735  17.152  0.00  0.00    +0.242 C 
ATOM     17  C   UNL     1     -10.838 -12.741  17.749  0.00  0.00    +0.256 C 
ENDROOT
BRANCH   6   8
ATOM      2  O   UNL     1      -4.809 -10.195  17.185  0.00  0.00    -0.380 OA
ATOM      8  C   UNL     1      -7.425 -11.355  16.881  0.00  0.00    +0.081 C 
ATOM     11  C   UNL     1      -7.148  -9.874  16.617  0.00  0.00    +0.050 C 
ATOM     12  C   UNL     1      -6.381 -11.927  17.840  0.00  0.00    +0.050 C 
ATOM     14  C   UNL     1      -5.697  -9.665  16.202  0.00  0.00    +0.161 C 
ATOM     15  C   UNL     1      -4.973 -11.603  17.357  0.00  0.00    +0.161 C 
ENDBRANCH   6   8
BRANCH  10  18
ATOM     18  C   UNL     1     -11.200  -9.151  17.323  0.00  0.00    -0.017 A 
ATOM     19  C   UNL     1     -12.472  -9.022  16.766  0.00  0.00    +0.008 A 
ATOM     20  C   UNL     1     -10.254  -8.142  17.144  0.00  0.00    +0.008 A 
ATOM     21  C   UNL     1     -12.798  -7.883  16.028  0.00  0.00    +0.023 A 
ATOM     22  C   UNL     1     -10.580  -7.004  16.407  0.00  0.00    +0.023 A 
ATOM     23  C   UNL     1     -11.852  -6.874  15.849  0.00  0.00    +0.033 A 
BRANCH  23   7
ATOM      5  O   UNL     1     -12.329  -6.537  12.905  0.00  0.00    -0.275 OA
ATOM      7  N   UNL     1     -12.178  -5.735  15.112  0.00  0.00    -0.285 N 
ATOM     26  C   UNL     1     -12.404  -5.631  13.730  0.00  0.00    +0.217 C 
ATOM     30  H   UNL     1     -12.235  -4.878  15.657  0.00  0.00    +0.155 HD
BRANCH  26  24
ATOM     24  C   UNL     1     -12.736  -4.196  13.331  0.00  0.00    +0.099 C 
BRANCH  24  25
ATOM     25  C   UNL     1     -13.654  -4.089  12.103  0.00  0.00    -0.008 C 
ATOM     27  C   UNL     1     -12.864  -3.567  10.901  0.00  0.00    +0.008 C 
ATOM     28  C   UNL     1     -14.845  -3.166  12.378  0.00  0.00    +0.008 C 
ENDBRANCH  24  25
ENDBRANCH  26  24
ENDBRANCH  23   7
ENDBRANCH  10  18
BRANCH   9  16
ATOM     16  C   UNL     1      -8.934 -10.829  19.748  0.00  0.00    +0.181 C 
BRANCH  16   3
ATOM      3  O   UNL     1      -9.919 -10.255  20.584  0.00  0.00    -0.393 OA
ATOM     29  H   UNL     1      -9.486 -10.026  21.424  0.00  0.00    +0.209 HD
ENDBRANCH  16   3
ENDBRANCH   9  16
TORSDOF 7
ENDMDL
MODEL 9
REMARK VINA RESULT:      -6.2     28.961     32.842
REMARK  Name = 71693713
REMARK  9 active torsions:
REMARK  status: ('A' for Active; 'I' for Inactive)
REMARK    1  A    between atoms: O_3  and  C_16
REMARK    2  A    between atoms: N_6  and  C_8
REMARK    3  A    between atoms: N_7  and  C_23
REMARK    4  A    between atoms: C_9  and  C_16
REMARK    5  A    between atoms: C_10  and  C_18
REMARK    6  A    between atoms: C_24  and  C_25
REMARK    7  A    between atoms: C_24  and  C_26
REMARK    8  A    between atoms: C_25  and  C_27
REMARK    9  A    between atoms: C_25  and  C_28
REMARK                            x       y       z     vdW  Elec       q    Type
REMARK                         _______ _______ _______ _____ _____    ______ ____
ROOT
ATOM      1  O   UNL     1     -16.419   7.016  33.826  0.00  0.00    -0.361 OA
ATOM      4  O   UNL     1     -18.088   4.170  32.918  0.00  0.00    -0.273 OA
ATOM      6  N   UNL     1     -15.782   4.513  33.017  0.00  0.00    -0.288 N 
ATOM      9  C   UNL     1     -14.690   5.214  33.701  0.00  0.00    +0.135 C 
ATOM     10  C   UNL     1     -15.024   6.711  33.935  0.00  0.00    +0.171 C 
ATOM     13  C   UNL     1     -17.110   4.794  33.326  0.00  0.00    +0.242 C 
ATOM     17  C   UNL     1     -17.265   5.971  34.259  0.00  0.00    +0.256 C 
ENDROOT
BRANCH   6   8
ATOM      2  O   UNL     1     -13.570   1.411  31.294  0.00  0.00    -0.380 OA
ATOM      8  C   UNL     1     -15.440   3.436  32.121  0.00  0.00    +0.081 C 
ATOM     11  C   UNL     1     -14.177   3.762  31.322  0.00  0.00    +0.050 C 
ATOM     12  C   UNL     1     -15.260   2.125  32.885  0.00  0.00    +0.050 C 
ATOM     14  C   UNL     1     -13.752   2.568  30.478  0.00  0.00    +0.161 C 
ATOM     15  C   UNL     1     -14.774   1.022  31.954  0.00  0.00    +0.161 C 
ENDBRANCH   6   8
BRANCH  10  18
ATOM     18  C   UNL     1     -14.296   7.598  32.942  0.00  0.00    -0.017 A 
ATOM     19  C   UNL     1     -12.902   7.633  32.931  0.00  0.00    +0.008 A 
ATOM     20  C   UNL     1     -15.021   8.379  32.041  0.00  0.00    +0.008 A 
ATOM     21  C   UNL     1     -12.231   8.448  32.018  0.00  0.00    +0.023 A 
ATOM     22  C   UNL     1     -14.350   9.193  31.129  0.00  0.00    +0.023 A 
ATOM     23  C   UNL     1     -12.956   9.228  31.117  0.00  0.00    +0.033 A 
BRANCH  23   7
ATOM      5  O   UNL     1     -11.580  11.866  31.513  0.00  0.00    -0.275 OA
ATOM      7  N   UNL     1     -12.286  10.043  30.205  0.00  0.00    -0.285 N 
ATOM     26  C   UNL     1     -11.645  11.270  30.443  0.00  0.00    +0.217 C 
ATOM     30  H   UNL     1     -12.289   9.701  29.247  0.00  0.00    +0.155 HD
BRANCH  26  24
ATOM     24  C   UNL     1     -11.034  11.832  29.163  0.00  0.00    +0.099 C 
BRANCH  24  25
ATOM     25  C   UNL     1     -11.554  11.164  27.880  0.00  0.00    -0.008 C 
ATOM     27  C   UNL     1     -10.413  10.433  27.170  0.00  0.00    +0.008 C 
ATOM     28  C   UNL     1     -12.178  12.192  26.931  0.00  0.00    +0.008 C 
ENDBRANCH  24  25
ENDBRANCH  26  24
ENDBRANCH  23   7
ENDBRANCH  10  18
BRANCH   9  16
ATOM     16  C   UNL     1     -14.336   4.513  35.019  0.00  0.00    +0.181 C 
BRANCH  16   3
ATOM      3  O   UNL     1     -13.687   5.449  35.856  0.00  0.00    -0.393 OA
ATOM     29  H   UNL     1     -14.240   5.557  36.649  0.00  0.00    +0.209 HD
ENDBRANCH  16   3
ENDBRANCH   9  16
TORSDOF 7
ENDMDL
MODEL 10
REMARK VINA RESULT:      -6.0     26.634     30.122
REMARK  Name = 71693713
REMARK  9 active torsions:
REMARK  status: ('A' for Active; 'I' for Inactive)
REMARK    1  A    between atoms: O_3  and  C_16
REMARK    2  A    between atoms: N_6  and  C_8
REMARK    3  A    between atoms: N_7  and  C_23
REMARK    4  A    between atoms: C_9  and  C_16
REMARK    5  A    between atoms: C_10  and  C_18
REMARK    6  A    between atoms: C_24  and  C_25
REMARK    7  A    between atoms: C_24  and  C_26
REMARK    8  A    between atoms: C_25  and  C_27
REMARK    9  A    between atoms: C_25  and  C_28
REMARK                            x       y       z     vdW  Elec       q    Type
REMARK                         _______ _______ _______ _____ _____    ______ ____
ROOT
ATOM      1  O   UNL     1     -10.566   8.714  19.455  0.00  0.00    -0.361 OA
ATOM      4  O   UNL     1     -10.357   8.441  16.051  0.00  0.00    -0.273 OA
ATOM      6  N   UNL     1     -12.244   8.917  17.340  0.00  0.00    -0.288 N 
ATOM      9  C   UNL     1     -12.745   9.554  18.562  0.00  0.00    +0.135 C 
ATOM     10  C   UNL     1     -11.865   9.213  19.793  0.00  0.00    +0.171 C 
ATOM     13  C   UNL     1     -10.875   8.825  17.098  0.00  0.00    +0.242 C 
ATOM     17  C   UNL     1     -10.035   9.270  18.271  0.00  0.00    +0.256 C 
ENDROOT
BRANCH   6   8
ATOM      2  O   UNL     1     -15.711   8.962  15.005  0.00  0.00    -0.380 OA
ATOM      8  C   UNL     1     -13.203   8.514  16.342  0.00  0.00    +0.081 C 
ATOM     11  C   UNL     1     -14.547   8.160  16.980  0.00  0.00    +0.050 C 
ATOM     12  C   UNL     1     -13.386   9.606  15.289  0.00  0.00    +0.050 C 
ATOM     14  C   UNL     1     -15.589   7.864  15.908  0.00  0.00    +0.161 C 
ATOM     15  C   UNL     1     -14.492   9.230  14.311  0.00  0.00    +0.161 C 
ENDBRANCH   6   8
BRANCH  10  18
ATOM     18  C   UNL     1     -12.530   8.167  20.671  0.00  0.00    -0.017 A 
ATOM     19  C   UNL     1     -11.972   6.894  20.782  0.00  0.00    +0.008 A 
ATOM     20  C   UNL     1     -13.698   8.481  21.365  0.00  0.00    +0.008 A 
ATOM     21  C   UNL     1     -12.582   5.933  21.589  0.00  0.00    +0.023 A 
ATOM     22  C   UNL     1     -14.307   7.521  22.172  0.00  0.00    +0.023 A 
ATOM     23  C   UNL     1     -13.750   6.247  22.284  0.00  0.00    +0.033 A 
BRANCH  23   7
ATOM      5  O   UNL     1     -16.144   4.512  21.767  0.00  0.00    -0.275 OA
ATOM      7  N   UNL     1     -14.361   5.286  23.091  0.00  0.00    -0.285 N 
ATOM     26  C   UNL     1     -15.478   4.488  22.798  0.00  0.00    +0.217 C 
ATOM     30  H   UNL     1     -13.943   5.178  24.013  0.00  0.00    +0.155 HD
BRANCH  26  24
ATOM     24  C   UNL     1     -15.819   3.564  23.963  0.00  0.00    +0.099 C 
BRANCH  24  25
ATOM     25  C   UNL     1     -16.342   4.299  25.207  0.00  0.00    -0.008 C 
ATOM     27  C   UNL     1     -16.198   3.408  26.442  0.00  0.00    +0.008 C 
ATOM     28  C   UNL     1     -17.807   4.710  25.035  0.00  0.00    +0.008 C 
ENDBRANCH  24  25
ENDBRANCH  26  24
ENDBRANCH  23   7
ENDBRANCH  10  18
BRANCH   9  16
ATOM     16  C   UNL     1     -12.868  11.072  18.372  0.00  0.00    +0.181 C 
BRANCH  16   3
ATOM      3  O   UNL     1     -12.094  11.705  19.371  0.00  0.00    -0.393 OA
ATOM     29  H   UNL     1     -12.514  11.515  20.226  0.00  0.00    +0.209 HD
ENDBRANCH  16   3
ENDBRANCH   9  16
TORSDOF 7
ENDMDL
