MODEL 1
REMARK VINA RESULT:      -5.9      0.000      0.000
REMARK  Name = 75537135
REMARK  8 active torsions:
REMARK  status: ('A' for Active; 'I' for Inactive)
REMARK    1  A    between atoms: O_2  and  C_17
REMARK    2  A    between atoms: O_2  and  C_23
REMARK    3  A    between atoms: O_3  and  C_24
REMARK    4  A    between atoms: N_6  and  C_14
REMARK    5  A    between atoms: N_7  and  C_15
REMARK    6  A    between atoms: C_14  and  C_16
REMARK    7  A    between atoms: C_15  and  C_17
REMARK    8  A    between atoms: C_22  and  C_24
REMARK                            x       y       z     vdW  Elec       q    Type
REMARK                         _______ _______ _______ _____ _____    ______ ____
ROOT
ATOM      1  O   UNL     1      17.969   5.686  19.346  0.00  0.00    -0.252 OA
ATOM      5  N   UNL     1      16.218   7.039  20.137  0.00  0.00    -0.278 N 
ATOM      6  N   UNL     1      13.935   8.680  20.075  0.00  0.00    -0.295 NA
ATOM      7  N   UNL     1      18.274   7.355  20.985  0.00  0.00    -0.281 N 
ATOM      8  C   UNL     1      16.033   8.025  21.181  0.00  0.00    +0.109 C 
ATOM      9  C   UNL     1      15.188   9.190  20.669  0.00  0.00    +0.109 C 
ATOM     10  C   UNL     1      17.458   8.396  21.586  0.00  0.00    +0.133 C 
ATOM     11  C   UNL     1      15.070   6.578  19.386  0.00  0.00    +0.125 C 
ATOM     12  C   UNL     1      14.220   7.773  18.944  0.00  0.00    +0.104 C 
ATOM     13  C   UNL     1      17.540   6.577  20.067  0.00  0.00    +0.305 C 
ENDROOT
BRANCH   6  14
ATOM     14  C   UNL     1      13.091   9.791  19.635  0.00  0.00    +0.119 C 
BRANCH  14  16
ATOM     16  C   UNL     1      12.392  10.455  20.791  0.00  0.00    -0.033 A 
ATOM     18  C   UNL     1      11.664   9.687  21.700  0.00  0.00    +0.006 A 
ATOM     19  C   UNL     1      12.472  11.838  20.955  0.00  0.00    +0.006 A 
ATOM     20  C   UNL     1      11.016  10.302  22.771  0.00  0.00    +0.015 A 
ATOM     21  C   UNL     1      11.825  12.453  22.026  0.00  0.00    +0.015 A 
ATOM     22  C   UNL     1      11.097  11.685  22.935  0.00  0.00    +0.059 A 
BRANCH  22  24
ATOM      4  O   UNL     1      10.543  12.007  25.240  0.00  0.00    -0.245 OA
ATOM     24  C   UNL     1      10.423  12.326  24.053  0.00  0.00    +0.337 C 
BRANCH  24   3
ATOM      3  O   UNL     1       9.616  13.348  23.657  0.00  0.00    -0.477 OA
ATOM     25  H   UNL     1       9.113  13.124  22.845  0.00  0.00    +0.295 HD
ENDBRANCH  24   3
ENDBRANCH  22  24
ENDBRANCH  14  16
ENDBRANCH   6  14
BRANCH   7  15
ATOM     15  C   UNL     1      19.700   7.268  21.216  0.00  0.00    +0.137 C 
BRANCH  15  17
ATOM     17  C   UNL     1      20.039   7.449  22.684  0.00  0.00    +0.178 C 
BRANCH  17   2
ATOM      2  O   UNL     1      20.457   6.203  23.229  0.00  0.00    -0.381 OA
ATOM     23  C   UNL     1      21.155   5.423  22.267  0.00  0.00    +0.194 C 
ENDBRANCH  17   2
ENDBRANCH  15  17
ENDBRANCH   7  15
TORSDOF 7
ENDMDL
MODEL 2
REMARK VINA RESULT:      -5.7      3.643      4.289
REMARK  Name = 75537135
REMARK  8 active torsions:
REMARK  status: ('A' for Active; 'I' for Inactive)
REMARK    1  A    between atoms: O_2  and  C_17
REMARK    2  A    between atoms: O_2  and  C_23
REMARK    3  A    between atoms: O_3  and  C_24
REMARK    4  A    between atoms: N_6  and  C_14
REMARK    5  A    between atoms: N_7  and  C_15
REMARK    6  A    between atoms: C_14  and  C_16
REMARK    7  A    between atoms: C_15  and  C_17
REMARK    8  A    between atoms: C_22  and  C_24
REMARK                            x       y       z     vdW  Elec       q    Type
REMARK                         _______ _______ _______ _____ _____    ______ ____
ROOT
ATOM      1  O   UNL     1      18.913   4.842  19.382  0.00  0.00    -0.252 OA
ATOM      5  N   UNL     1      17.575   6.525  20.330  0.00  0.00    -0.278 N 
ATOM      6  N   UNL     1      15.647   8.566  20.491  0.00  0.00    -0.295 NA
ATOM      7  N   UNL     1      19.756   6.472  20.865  0.00  0.00    -0.281 N 
ATOM      8  C   UNL     1      17.728   7.560  21.332  0.00  0.00    +0.109 C 
ATOM      9  C   UNL     1      17.045   8.848  20.876  0.00  0.00    +0.109 C 
ATOM     10  C   UNL     1      19.241   7.666  21.514  0.00  0.00    +0.133 C 
ATOM     11  C   UNL     1      16.264   6.268  19.773  0.00  0.00    +0.125 C 
ATOM     12  C   UNL     1      15.591   7.588  19.386  0.00  0.00    +0.104 C 
ATOM     13  C   UNL     1      18.764   5.820  20.104  0.00  0.00    +0.305 C 
ENDROOT
BRANCH   6  14
ATOM     14  C   UNL     1      14.964   9.803  20.110  0.00  0.00    +0.119 C 
BRANCH  14  16
ATOM     16  C   UNL     1      13.902   9.560  19.072  0.00  0.00    -0.033 A 
ATOM     18  C   UNL     1      12.685   8.987  19.441  0.00  0.00    +0.006 A 
ATOM     19  C   UNL     1      14.134   9.908  17.741  0.00  0.00    +0.006 A 
ATOM     20  C   UNL     1      11.700   8.760  18.479  0.00  0.00    +0.015 A 
ATOM     21  C   UNL     1      13.150   9.682  16.779  0.00  0.00    +0.015 A 
ATOM     22  C   UNL     1      11.933   9.109  17.148  0.00  0.00    +0.059 A 
BRANCH  22  24
ATOM      4  O   UNL     1      10.678   9.599  15.170  0.00  0.00    -0.245 OA
ATOM     24  C   UNL     1      10.906   8.874  16.145  0.00  0.00    +0.337 C 
BRANCH  24   3
ATOM      3  O   UNL     1      10.190   7.742  16.387  0.00  0.00    -0.477 OA
ATOM     25  H   UNL     1       9.619   7.501  15.626  0.00  0.00    +0.295 HD
ENDBRANCH  24   3
ENDBRANCH  22  24
ENDBRANCH  14  16
ENDBRANCH   6  14
BRANCH   7  15
ATOM     15  C   UNL     1      21.159   6.124  20.901  0.00  0.00    +0.137 C 
BRANCH  15  17
ATOM     17  C   UNL     1      21.450   5.088  21.971  0.00  0.00    +0.178 C 
BRANCH  17   2
ATOM      2  O   UNL     1      21.024   5.582  23.235  0.00  0.00    -0.381 OA
ATOM     23  C   UNL     1      22.023   6.393  23.840  0.00  0.00    +0.194 C 
ENDBRANCH  17   2
ENDBRANCH  15  17
ENDBRANCH   7  15
TORSDOF 7
ENDMDL
MODEL 3
REMARK VINA RESULT:      -5.6     16.221     18.458
REMARK  Name = 75537135
REMARK  8 active torsions:
REMARK  status: ('A' for Active; 'I' for Inactive)
REMARK    1  A    between atoms: O_2  and  C_17
REMARK    2  A    between atoms: O_2  and  C_23
REMARK    3  A    between atoms: O_3  and  C_24
REMARK    4  A    between atoms: N_6  and  C_14
REMARK    5  A    between atoms: N_7  and  C_15
REMARK    6  A    between atoms: C_14  and  C_16
REMARK    7  A    between atoms: C_15  and  C_17
REMARK    8  A    between atoms: C_22  and  C_24
REMARK                            x       y       z     vdW  Elec       q    Type
REMARK                         _______ _______ _______ _____ _____    ______ ____
ROOT
ATOM      1  O   UNL     1      12.886   4.779  -0.411  0.00  0.00    -0.252 OA
ATOM      5  N   UNL     1      12.329   5.357   1.798  0.00  0.00    -0.278 N 
ATOM      6  N   UNL     1      10.727   6.009   4.015  0.00  0.00    -0.295 NA
ATOM      7  N   UNL     1      14.051   6.419   0.823  0.00  0.00    -0.281 N 
ATOM      8  C   UNL     1      12.885   6.185   2.846  0.00  0.00    +0.109 C 
ATOM      9  C   UNL     1      11.775   6.949   3.566  0.00  0.00    +0.109 C 
ATOM     10  C   UNL     1      13.898   7.064   2.115  0.00  0.00    +0.133 C 
ATOM     11  C   UNL     1      11.197   4.504   2.094  0.00  0.00    +0.125 C 
ATOM     12  C   UNL     1      10.136   5.293   2.867  0.00  0.00    +0.104 C 
ATOM     13  C   UNL     1      13.068   5.431   0.609  0.00  0.00    +0.305 C 
ENDROOT
BRANCH   6  14
ATOM     14  C   UNL     1       9.688   6.722   4.759  0.00  0.00    +0.119 C 
BRANCH  14  16
ATOM     16  C   UNL     1       9.562   6.214   6.170  0.00  0.00    -0.033 A 
ATOM     18  C   UNL     1       9.990   4.925   6.488  0.00  0.00    +0.006 A 
ATOM     19  C   UNL     1       9.016   7.031   7.161  0.00  0.00    +0.006 A 
ATOM     20  C   UNL     1       9.872   4.453   7.796  0.00  0.00    +0.015 A 
ATOM     21  C   UNL     1       8.899   6.560   8.468  0.00  0.00    +0.015 A 
ATOM     22  C   UNL     1       9.327   5.271   8.786  0.00  0.00    +0.059 A 
BRANCH  22  24
ATOM      4  O   UNL     1       8.143   4.532  10.729  0.00  0.00    -0.245 OA
ATOM     24  C   UNL     1       9.206   4.781  10.150  0.00  0.00    +0.337 C 
BRANCH  24   3
ATOM      3  O   UNL     1      10.415   4.616  10.753  0.00  0.00    -0.477 OA
ATOM     25  H   UNL     1      10.955   5.433  10.718  0.00  0.00    +0.295 HD
ENDBRANCH  24   3
ENDBRANCH  22  24
ENDBRANCH  14  16
ENDBRANCH   6  14
BRANCH   7  15
ATOM     15  C   UNL     1      15.015   6.876  -0.154  0.00  0.00    +0.137 C 
BRANCH  15  17
ATOM     17  C   UNL     1      16.368   6.218   0.047  0.00  0.00    +0.178 C 
BRANCH  17   2
ATOM      2  O   UNL     1      16.835   5.709  -1.196  0.00  0.00    -0.381 OA
ATOM     23  C   UNL     1      16.736   4.292  -1.248  0.00  0.00    +0.194 C 
ENDBRANCH  17   2
ENDBRANCH  15  17
ENDBRANCH   7  15
TORSDOF 7
ENDMDL
MODEL 4
REMARK VINA RESULT:      -5.6      3.816      4.928
REMARK  Name = 75537135
REMARK  8 active torsions:
REMARK  status: ('A' for Active; 'I' for Inactive)
REMARK    1  A    between atoms: O_2  and  C_17
REMARK    2  A    between atoms: O_2  and  C_23
REMARK    3  A    between atoms: O_3  and  C_24
REMARK    4  A    between atoms: N_6  and  C_14
REMARK    5  A    between atoms: N_7  and  C_15
REMARK    6  A    between atoms: C_14  and  C_16
REMARK    7  A    between atoms: C_15  and  C_17
REMARK    8  A    between atoms: C_22  and  C_24
REMARK                            x       y       z     vdW  Elec       q    Type
REMARK                         _______ _______ _______ _____ _____    ______ ____
ROOT
ATOM      1  O   UNL     1      20.913   7.798  22.109  0.00  0.00    -0.252 OA
ATOM      5  N   UNL     1      18.853   7.539  21.010  0.00  0.00    -0.278 N 
ATOM      6  N   UNL     1      16.077   7.662  20.573  0.00  0.00    -0.295 NA
ATOM      7  N   UNL     1      20.308   5.830  20.956  0.00  0.00    -0.281 N 
ATOM      8  C   UNL     1      18.235   6.564  20.137  0.00  0.00    +0.109 C 
ATOM      9  C   UNL     1      16.770   6.359  20.520  0.00  0.00    +0.109 C 
ATOM     10  C   UNL     1      19.118   5.327  20.294  0.00  0.00    +0.133 C 
ATOM     11  C   UNL     1      18.181   8.799  21.252  0.00  0.00    +0.125 C 
ATOM     12  C   UNL     1      16.704   8.551  21.572  0.00  0.00    +0.104 C 
ATOM     13  C   UNL     1      20.126   7.141  21.440  0.00  0.00    +0.305 C 
ENDROOT
BRANCH   6  14
ATOM     14  C   UNL     1      14.659   7.474  20.880  0.00  0.00    +0.119 C 
BRANCH  14  16
ATOM     16  C   UNL     1      13.782   7.807  19.703  0.00  0.00    -0.033 A 
ATOM     18  C   UNL     1      12.429   8.084  19.898  0.00  0.00    +0.006 A 
ATOM     19  C   UNL     1      14.322   7.841  18.416  0.00  0.00    +0.006 A 
ATOM     20  C   UNL     1      11.616   8.393  18.807  0.00  0.00    +0.015 A 
ATOM     21  C   UNL     1      13.510   8.149  17.327  0.00  0.00    +0.015 A 
ATOM     22  C   UNL     1      12.156   8.426  17.522  0.00  0.00    +0.059 A 
BRANCH  22  24
ATOM      4  O   UNL     1      11.619   9.498  15.450  0.00  0.00    -0.245 OA
ATOM     24  C   UNL     1      11.310   8.750  16.384  0.00  0.00    +0.337 C 
BRANCH  24   3
ATOM      3  O   UNL     1      10.098   8.133  16.445  0.00  0.00    -0.477 OA
ATOM     25  H   UNL     1       9.377   8.711  16.117  0.00  0.00    +0.295 HD
ENDBRANCH  24   3
ENDBRANCH  22  24
ENDBRANCH  14  16
ENDBRANCH   6  14
BRANCH   7  15
ATOM     15  C   UNL     1      21.462   4.992  21.201  0.00  0.00    +0.137 C 
BRANCH  15  17
ATOM     17  C   UNL     1      22.657   5.433  20.377  0.00  0.00    +0.178 C 
BRANCH  17   2
ATOM      2  O   UNL     1      23.838   4.839  20.902  0.00  0.00    -0.381 OA
ATOM     23  C   UNL     1      23.919   3.459  20.568  0.00  0.00    +0.194 C 
ENDBRANCH  17   2
ENDBRANCH  15  17
ENDBRANCH   7  15
TORSDOF 7
ENDMDL
MODEL 5
REMARK VINA RESULT:      -5.5     16.410     19.388
REMARK  Name = 75537135
REMARK  8 active torsions:
REMARK  status: ('A' for Active; 'I' for Inactive)
REMARK    1  A    between atoms: O_2  and  C_17
REMARK    2  A    between atoms: O_2  and  C_23
REMARK    3  A    between atoms: O_3  and  C_24
REMARK    4  A    between atoms: N_6  and  C_14
REMARK    5  A    between atoms: N_7  and  C_15
REMARK    6  A    between atoms: C_14  and  C_16
REMARK    7  A    between atoms: C_15  and  C_17
REMARK    8  A    between atoms: C_22  and  C_24
REMARK                            x       y       z     vdW  Elec       q    Type
REMARK                         _______ _______ _______ _____ _____    ______ ____
ROOT
ATOM      1  O   UNL     1       8.297  12.168   1.838  0.00  0.00    -0.252 OA
ATOM      5  N   UNL     1       8.337  10.433   3.422  0.00  0.00    -0.278 N 
ATOM      6  N   UNL     1       9.124   8.041   4.676  0.00  0.00    -0.295 NA
ATOM      7  N   UNL     1       6.341  11.162   2.694  0.00  0.00    -0.281 N 
ATOM      8  C   UNL     1       7.372   9.708   4.221  0.00  0.00    +0.109 C 
ATOM      9  C   UNL     1       7.719   8.221   4.256  0.00  0.00    +0.109 C 
ATOM     10  C   UNL     1       6.034  10.040   3.562  0.00  0.00    +0.133 C 
ATOM     11  C   UNL     1       9.751  10.217   3.650  0.00  0.00    +0.125 C 
ATOM     12  C   UNL     1      10.043   8.717   3.738  0.00  0.00    +0.104 C 
ATOM     13  C   UNL     1       7.731  11.360   2.563  0.00  0.00    +0.305 C 
ENDROOT
BRANCH   6  14
ATOM     14  C   UNL     1       9.450   6.618   4.771  0.00  0.00    +0.119 C 
BRANCH  14  16
ATOM     16  C   UNL     1       9.427   6.133   6.196  0.00  0.00    -0.033 A 
ATOM     18  C   UNL     1       9.794   4.820   6.490  0.00  0.00    +0.006 A 
ATOM     19  C   UNL     1       9.039   6.995   7.221  0.00  0.00    +0.006 A 
ATOM     20  C   UNL     1       9.772   4.369   7.810  0.00  0.00    +0.015 A 
ATOM     21  C   UNL     1       9.018   6.545   8.541  0.00  0.00    +0.015 A 
ATOM     22  C   UNL     1       9.385   5.232   8.836  0.00  0.00    +0.059 A 
BRANCH  22  24
ATOM      4  O   UNL     1      10.350   4.389  10.857  0.00  0.00    -0.245 OA
ATOM     24  C   UNL     1       9.364   4.763  10.213  0.00  0.00    +0.337 C 
BRANCH  24   3
ATOM      3  O   UNL     1       8.112   4.772  10.747  0.00  0.00    -0.477 OA
ATOM     25  H   UNL     1       8.074   5.291  11.578  0.00  0.00    +0.295 HD
ENDBRANCH  24   3
ENDBRANCH  22  24
ENDBRANCH  14  16
ENDBRANCH   6  14
BRANCH   7  15
ATOM     15  C   UNL     1       5.315  11.863   1.953  0.00  0.00    +0.137 C 
BRANCH  15  17
ATOM     17  C   UNL     1       4.346  10.899   1.293  0.00  0.00    +0.178 C 
BRANCH  17   2
ATOM      2  O   UNL     1       4.950  10.346   0.131  0.00  0.00    -0.381 OA
ATOM     23  C   UNL     1       4.356   9.104  -0.223  0.00  0.00    +0.194 C 
ENDBRANCH  17   2
ENDBRANCH  15  17
ENDBRANCH   7  15
TORSDOF 7
ENDMDL
MODEL 6
REMARK VINA RESULT:      -5.5      4.031      9.779
REMARK  Name = 75537135
REMARK  8 active torsions:
REMARK  status: ('A' for Active; 'I' for Inactive)
REMARK    1  A    between atoms: O_2  and  C_17
REMARK    2  A    between atoms: O_2  and  C_23
REMARK    3  A    between atoms: O_3  and  C_24
REMARK    4  A    between atoms: N_6  and  C_14
REMARK    5  A    between atoms: N_7  and  C_15
REMARK    6  A    between atoms: C_14  and  C_16
REMARK    7  A    between atoms: C_15  and  C_17
REMARK    8  A    between atoms: C_22  and  C_24
REMARK                            x       y       z     vdW  Elec       q    Type
REMARK                         _______ _______ _______ _____ _____    ______ ____
ROOT
ATOM      1  O   UNL     1      15.344   9.676  20.308  0.00  0.00    -0.252 OA
ATOM      5  N   UNL     1      16.929   7.986  20.702  0.00  0.00    -0.278 N 
ATOM      6  N   UNL     1      19.443   6.773  21.042  0.00  0.00    -0.295 NA
ATOM      7  N   UNL     1      15.220   7.539  19.314  0.00  0.00    -0.281 N 
ATOM      8  C   UNL     1      17.082   6.584  20.376  0.00  0.00    +0.109 C 
ATOM      9  C   UNL     1      18.530   6.282  19.990  0.00  0.00    +0.109 C 
ATOM     10  C   UNL     1      16.061   6.356  19.263  0.00  0.00    +0.133 C 
ATOM     11  C   UNL     1      17.867   8.609  21.612  0.00  0.00    +0.125 C 
ATOM     12  C   UNL     1      19.300   8.232  21.225  0.00  0.00    +0.104 C 
ATOM     13  C   UNL     1      15.775   8.543  20.134  0.00  0.00    +0.305 C 
ENDROOT
BRANCH   6  14
ATOM     14  C   UNL     1      20.828   6.436  20.711  0.00  0.00    +0.119 C 
BRANCH  14  16
ATOM     16  C   UNL     1      21.396   5.411  21.656  0.00  0.00    -0.033 A 
ATOM     18  C   UNL     1      21.732   5.776  22.960  0.00  0.00    +0.006 A 
ATOM     19  C   UNL     1      21.585   4.097  21.229  0.00  0.00    +0.006 A 
ATOM     20  C   UNL     1      22.259   4.827  23.836  0.00  0.00    +0.015 A 
ATOM     21  C   UNL     1      22.111   3.148  22.105  0.00  0.00    +0.015 A 
ATOM     22  C   UNL     1      22.448   3.512  23.408  0.00  0.00    +0.059 A 
BRANCH  22  24
ATOM      4  O   UNL     1      23.967   1.794  24.091  0.00  0.00    -0.245 OA
ATOM     24  C   UNL     1      22.995   2.521  24.322  0.00  0.00    +0.337 C 
BRANCH  24   3
ATOM      3  O   UNL     1      22.313   2.464  25.498  0.00  0.00    -0.477 OA
ATOM     25  H   UNL     1      22.860   2.768  26.253  0.00  0.00    +0.295 HD
ENDBRANCH  24   3
ENDBRANCH  22  24
ENDBRANCH  14  16
ENDBRANCH   6  14
BRANCH   7  15
ATOM     15  C   UNL     1      14.043   7.681  18.484  0.00  0.00    +0.137 C 
BRANCH  15  17
ATOM     17  C   UNL     1      12.829   7.033  19.122  0.00  0.00    +0.178 C 
BRANCH  17   2
ATOM      2  O   UNL     1      11.671   7.802  18.823  0.00  0.00    -0.381 OA
ATOM     23  C   UNL     1      11.820   8.513  17.601  0.00  0.00    +0.194 C 
ENDBRANCH  17   2
ENDBRANCH  15  17
ENDBRANCH   7  15
TORSDOF 7
ENDMDL
MODEL 7
REMARK VINA RESULT:      -5.5     27.878     29.900
REMARK  Name = 75537135
REMARK  8 active torsions:
REMARK  status: ('A' for Active; 'I' for Inactive)
REMARK    1  A    between atoms: O_2  and  C_17
REMARK    2  A    between atoms: O_2  and  C_23
REMARK    3  A    between atoms: O_3  and  C_24
REMARK    4  A    between atoms: N_6  and  C_14
REMARK    5  A    between atoms: N_7  and  C_15
REMARK    6  A    between atoms: C_14  and  C_16
REMARK    7  A    between atoms: C_15  and  C_17
REMARK    8  A    between atoms: C_22  and  C_24
REMARK                            x       y       z     vdW  Elec       q    Type
REMARK                         _______ _______ _______ _____ _____    ______ ____
ROOT
ATOM      1  O   UNL     1      -4.532 -10.870  18.027  0.00  0.00    -0.252 OA
ATOM      5  N   UNL     1      -4.285 -11.113  15.702  0.00  0.00    -0.278 N 
ATOM      6  N   UNL     1      -3.051 -11.070  13.176  0.00  0.00    -0.295 NA
ATOM      7  N   UNL     1      -6.157 -10.144  16.478  0.00  0.00    -0.281 N 
ATOM      8  C   UNL     1      -5.102 -10.908  14.525  0.00  0.00    +0.109 C 
ATOM      9  C   UNL     1      -4.275 -10.276  13.407  0.00  0.00    +0.109 C 
ATOM     10  C   UNL     1      -6.259 -10.048  15.032  0.00  0.00    +0.133 C 
ATOM     11  C   UNL     1      -2.992 -11.750  15.566  0.00  0.00    +0.125 C 
ATOM     12  C   UNL     1      -2.223 -11.128  14.397  0.00  0.00    +0.104 C 
ATOM     13  C   UNL     1      -4.940 -10.731  16.881  0.00  0.00    +0.305 C 
ENDROOT
BRANCH   6  14
ATOM     14  C   UNL     1      -2.281 -10.509  12.065  0.00  0.00    +0.119 C 
BRANCH  14  16
ATOM     16  C   UNL     1      -3.109 -10.387  10.814  0.00  0.00    -0.033 A 
ATOM     18  C   UNL     1      -3.665 -11.527  10.233  0.00  0.00    +0.006 A 
ATOM     19  C   UNL     1      -3.322  -9.135  10.236  0.00  0.00    +0.006 A 
ATOM     20  C   UNL     1      -4.432 -11.415   9.073  0.00  0.00    +0.015 A 
ATOM     21  C   UNL     1      -4.089  -9.023   9.077  0.00  0.00    +0.015 A 
ATOM     22  C   UNL     1      -4.645 -10.163   8.496  0.00  0.00    +0.059 A 
BRANCH  22  24
ATOM      4  O   UNL     1      -5.413 -10.822   6.328  0.00  0.00    -0.245 OA
ATOM     24  C   UNL     1      -5.446 -10.045   7.287  0.00  0.00    +0.337 C 
BRANCH  24   3
ATOM      3  O   UNL     1      -6.265  -8.958   7.310  0.00  0.00    -0.477 OA
ATOM     25  H   UNL     1      -5.785  -8.144   7.573  0.00  0.00    +0.295 HD
ENDBRANCH  24   3
ENDBRANCH  22  24
ENDBRANCH  14  16
ENDBRANCH   6  14
BRANCH   7  15
ATOM     15  C   UNL     1      -7.142  -9.553  17.357  0.00  0.00    +0.137 C 
BRANCH  15  17
ATOM     17  C   UNL     1      -8.554  -9.800  16.859  0.00  0.00    +0.178 C 
BRANCH  17   2
ATOM      2  O   UNL     1      -9.183  -8.554  16.584  0.00  0.00    -0.381 OA
ATOM     23  C   UNL     1      -9.819  -8.561  15.313  0.00  0.00    +0.194 C 
ENDBRANCH  17   2
ENDBRANCH  15  17
ENDBRANCH   7  15
TORSDOF 7
ENDMDL
MODEL 8
REMARK VINA RESULT:      -5.5     28.926     31.505
REMARK  Name = 75537135
REMARK  8 active torsions:
REMARK  status: ('A' for Active; 'I' for Inactive)
REMARK    1  A    between atoms: O_2  and  C_17
REMARK    2  A    between atoms: O_2  and  C_23
REMARK    3  A    between atoms: O_3  and  C_24
REMARK    4  A    between atoms: N_6  and  C_14
REMARK    5  A    between atoms: N_7  and  C_15
REMARK    6  A    between atoms: C_14  and  C_16
REMARK    7  A    between atoms: C_15  and  C_17
REMARK    8  A    between atoms: C_22  and  C_24
REMARK                            x       y       z     vdW  Elec       q    Type
REMARK                         _______ _______ _______ _____ _____    ______ ____
ROOT
ATOM      1  O   UNL     1     -13.439  -8.240  13.609  0.00  0.00    -0.252 OA
ATOM      5  N   UNL     1     -11.404  -8.171  14.783  0.00  0.00    -0.278 N 
ATOM      6  N   UNL     1      -9.375  -8.954  16.566  0.00  0.00    -0.295 NA
ATOM      7  N   UNL     1     -12.588  -6.272  14.593  0.00  0.00    -0.281 N 
ATOM      8  C   UNL     1     -10.559  -7.156  15.375  0.00  0.00    +0.109 C 
ATOM      9  C   UNL     1     -10.017  -7.633  16.721  0.00  0.00    +0.109 C 
ATOM     10  C   UNL     1     -11.464  -5.927  15.446  0.00  0.00    +0.133 C 
ATOM     11  C   UNL     1     -10.930  -9.538  14.716  0.00  0.00    +0.125 C 
ATOM     12  C   UNL     1     -10.342  -9.953  16.067  0.00  0.00    +0.104 C 
ATOM     13  C   UNL     1     -12.583  -7.638  14.244  0.00  0.00    +0.305 C 
ENDROOT
BRANCH   6  14
ATOM     14  C   UNL     1      -8.799  -9.394  17.837  0.00  0.00    +0.119 C 
BRANCH  14  16
ATOM     16  C   UNL     1      -7.370  -9.838  17.680  0.00  0.00    -0.033 A 
ATOM     18  C   UNL     1      -6.671  -9.539  16.511  0.00  0.00    +0.006 A 
ATOM     19  C   UNL     1      -6.743 -10.550  18.704  0.00  0.00    +0.006 A 
ATOM     20  C   UNL     1      -5.346  -9.952  16.364  0.00  0.00    +0.015 A 
ATOM     21  C   UNL     1      -5.419 -10.962  18.558  0.00  0.00    +0.015 A 
ATOM     22  C   UNL     1      -4.720 -10.663  17.388  0.00  0.00    +0.059 A 
BRANCH  22  24
ATOM      4  O   UNL     1      -2.636 -10.905  16.238  0.00  0.00    -0.245 OA
ATOM     24  C   UNL     1      -3.339 -11.092  17.237  0.00  0.00    +0.337 C 
BRANCH  24   3
ATOM      3  O   UNL     1      -2.873 -11.744  18.337  0.00  0.00    -0.477 OA
ATOM     25  H   UNL     1      -2.135 -11.259  18.764  0.00  0.00    +0.295 HD
ENDBRANCH  24   3
ENDBRANCH  22  24
ENDBRANCH  14  16
ENDBRANCH   6  14
BRANCH   7  15
ATOM     15  C   UNL     1     -13.642  -5.327  14.294  0.00  0.00    +0.137 C 
BRANCH  15  17
ATOM     17  C   UNL     1     -13.268  -4.423  13.134  0.00  0.00    +0.178 C 
BRANCH  17   2
ATOM      2  O   UNL     1     -14.110  -3.277  13.138  0.00  0.00    -0.381 OA
ATOM     23  C   UNL     1     -14.848  -3.169  11.928  0.00  0.00    +0.194 C 
ENDBRANCH  17   2
ENDBRANCH  15  17
ENDBRANCH   7  15
TORSDOF 7
ENDMDL
MODEL 9
REMARK VINA RESULT:      -5.4     28.741     30.101
REMARK  Name = 75537135
REMARK  8 active torsions:
REMARK  status: ('A' for Active; 'I' for Inactive)
REMARK    1  A    between atoms: O_2  and  C_17
REMARK    2  A    between atoms: O_2  and  C_23
REMARK    3  A    between atoms: O_3  and  C_24
REMARK    4  A    between atoms: N_6  and  C_14
REMARK    5  A    between atoms: N_7  and  C_15
REMARK    6  A    between atoms: C_14  and  C_16
REMARK    7  A    between atoms: C_15  and  C_17
REMARK    8  A    between atoms: C_22  and  C_24
REMARK                            x       y       z     vdW  Elec       q    Type
REMARK                         _______ _______ _______ _____ _____    ______ ____
ROOT
ATOM      1  O   UNL     1      -4.529 -13.202  18.156  0.00  0.00    -0.252 OA
ATOM      5  N   UNL     1      -4.501 -12.368  15.959  0.00  0.00    -0.278 N 
ATOM      6  N   UNL     1      -3.525 -11.776  13.389  0.00  0.00    -0.295 NA
ATOM      7  N   UNL     1      -5.351 -11.067  17.581  0.00  0.00    -0.281 N 
ATOM      8  C   UNL     1      -5.017 -11.209  15.262  0.00  0.00    +0.109 C 
ATOM      9  C   UNL     1      -3.982 -10.682  14.269  0.00  0.00    +0.109 C 
ATOM     10  C   UNL     1      -5.378 -10.241  16.386  0.00  0.00    +0.133 C 
ATOM     11  C   UNL     1      -3.892 -13.439  15.200  0.00  0.00    +0.125 C 
ATOM     12  C   UNL     1      -2.909 -12.862  14.177  0.00  0.00    +0.104 C 
ATOM     13  C   UNL     1      -4.767 -12.326  17.335  0.00  0.00    +0.305 C 
ENDROOT
BRANCH   6  14
ATOM     14  C   UNL     1      -2.580 -11.270  12.394  0.00  0.00    +0.119 C 
BRANCH  14  16
ATOM     16  C   UNL     1      -3.254 -10.964  11.084  0.00  0.00    -0.033 A 
ATOM     18  C   UNL     1      -3.326  -9.648  10.627  0.00  0.00    +0.006 A 
ATOM     19  C   UNL     1      -3.808 -11.997  10.326  0.00  0.00    +0.006 A 
ATOM     20  C   UNL     1      -3.952  -9.365   9.413  0.00  0.00    +0.015 A 
ATOM     21  C   UNL     1      -4.433 -11.714   9.112  0.00  0.00    +0.015 A 
ATOM     22  C   UNL     1      -4.505 -10.398   8.655  0.00  0.00    +0.059 A 
BRANCH  22  24
ATOM      4  O   UNL     1      -5.085 -10.796   6.369  0.00  0.00    -0.245 OA
ATOM     24  C   UNL     1      -5.156 -10.103   7.388  0.00  0.00    +0.337 C 
BRANCH  24   3
ATOM      3  O   UNL     1      -5.877  -8.949   7.430  0.00  0.00    -0.477 OA
ATOM     25  H   UNL     1      -6.771  -9.063   7.043  0.00  0.00    +0.295 HD
ENDBRANCH  24   3
ENDBRANCH  22  24
ENDBRANCH  14  16
ENDBRANCH   6  14
BRANCH   7  15
ATOM     15  C   UNL     1      -5.745 -10.556  18.876  0.00  0.00    +0.137 C 
BRANCH  15  17
ATOM     17  C   UNL     1      -7.254 -10.462  19.003  0.00  0.00    +0.178 C 
BRANCH  17   2
ATOM      2  O   UNL     1      -7.833 -11.729  18.716  0.00  0.00    -0.381 OA
ATOM     23  C   UNL     1      -7.800 -12.585  19.851  0.00  0.00    +0.194 C 
ENDBRANCH  17   2
ENDBRANCH  15  17
ENDBRANCH   7  15
TORSDOF 7
ENDMDL
MODEL 10
REMARK VINA RESULT:      -5.4     28.575     31.161
REMARK  Name = 75537135
REMARK  8 active torsions:
REMARK  status: ('A' for Active; 'I' for Inactive)
REMARK    1  A    between atoms: O_2  and  C_17
REMARK    2  A    between atoms: O_2  and  C_23
REMARK    3  A    between atoms: O_3  and  C_24
REMARK    4  A    between atoms: N_6  and  C_14
REMARK    5  A    between atoms: N_7  and  C_15
REMARK    6  A    between atoms: C_14  and  C_16
REMARK    7  A    between atoms: C_15  and  C_17
REMARK    8  A    between atoms: C_22  and  C_24
REMARK                            x       y       z     vdW  Elec       q    Type
REMARK                         _______ _______ _______ _____ _____    ______ ____
ROOT
ATOM      1  O   UNL     1     -13.287  -9.381  16.406  0.00  0.00    -0.252 OA
ATOM      5  N   UNL     1     -10.938  -9.440  16.463  0.00  0.00    -0.278 N 
ATOM      6  N   UNL     1      -8.350 -10.075  17.360  0.00  0.00    -0.295 NA
ATOM      7  N   UNL     1     -11.943  -7.476  16.040  0.00  0.00    -0.281 N 
ATOM      8  C   UNL     1      -9.850  -8.531  16.169  0.00  0.00    +0.109 C 
ATOM      9  C   UNL     1      -8.750  -8.660  17.222  0.00  0.00    +0.109 C 
ATOM     10  C   UNL     1     -10.527  -7.163  16.112  0.00  0.00    +0.133 C 
ATOM     11  C   UNL     1     -10.643 -10.825  16.763  0.00  0.00    +0.125 C 
ATOM     12  C   UNL     1      -9.496 -10.908  17.774  0.00  0.00    +0.104 C 
ATOM     13  C   UNL     1     -12.194  -8.836  16.311  0.00  0.00    +0.305 C 
ENDROOT
BRANCH   6  14
ATOM     14  C   UNL     1      -7.254 -10.203  18.322  0.00  0.00    +0.119 C 
BRANCH  14  16
ATOM     16  C   UNL     1      -5.939 -10.471  17.641  0.00  0.00    -0.033 A 
ATOM     18  C   UNL     1      -5.755 -10.097  16.309  0.00  0.00    +0.006 A 
ATOM     19  C   UNL     1      -4.904 -11.092  18.340  0.00  0.00    +0.006 A 
ATOM     20  C   UNL     1      -4.537 -10.346  15.677  0.00  0.00    +0.015 A 
ATOM     21  C   UNL     1      -3.686 -11.341  17.708  0.00  0.00    +0.015 A 
ATOM     22  C   UNL     1      -3.502 -10.967  16.377  0.00  0.00    +0.059 A 
BRANCH  22  24
ATOM      4  O   UNL     1      -2.094 -11.667  14.574  0.00  0.00    -0.245 OA
ATOM     24  C   UNL     1      -2.231 -11.225  15.719  0.00  0.00    +0.337 C 
BRANCH  24   3
ATOM      3  O   UNL     1      -1.165 -10.926  16.511  0.00  0.00    -0.477 OA
ATOM     25  H   UNL     1      -0.714 -11.733  16.838  0.00  0.00    +0.295 HD
ENDBRANCH  24   3
ENDBRANCH  22  24
ENDBRANCH  14  16
ENDBRANCH   6  14
BRANCH   7  15
ATOM     15  C   UNL     1     -12.948  -6.450  15.862  0.00  0.00    +0.137 C 
BRANCH  15  17
ATOM     17  C   UNL     1     -13.146  -6.112  14.396  0.00  0.00    +0.178 C 
BRANCH  17   2
ATOM      2  O   UNL     1     -12.344  -4.986  14.059  0.00  0.00    -0.381 OA
ATOM     23  C   UNL     1     -12.975  -4.173  13.078  0.00  0.00    +0.194 C 
ENDBRANCH  17   2
ENDBRANCH  15  17
ENDBRANCH   7  15
TORSDOF 7
ENDMDL
