REMARK  Name = 51136632
REMARK  13 active torsions:
REMARK  status: ('A' for Active; 'I' for Inactive)
REMARK    1  A    between atoms: O_1  and  C_19
REMARK    2  A    between atoms: O_4  and  C_25
REMARK    3  A    between atoms: O_4  and  C_34
REMARK    4  A    between atoms: O_5  and  C_27
REMARK    5  A    between atoms: O_5  and  C_35
REMARK    6  A    between atoms: N_8  and  C_26
REMARK    7  A    between atoms: C_9  and  C_14
REMARK    8  A    between atoms: C_10  and  C_15
REMARK    9  A    between atoms: C_14  and  C_16
REMARK   10  A    between atoms: C_15  and  C_19
REMARK   11  A    between atoms: C_30  and  C_33
REMARK   12  A    between atoms: C_33  and  C_36
REMARK   13  A    between atoms: C_33  and  C_37
REMARK                            x       y       z     vdW  Elec       q    Type
REMARK                         _______ _______ _______ _____ _____    ______ ____
ROOT
ATOM      2  O   UNL     1      -0.833   3.720   0.037  0.00  0.00    -0.252 OA
ATOM      6  N   UNL     1      -2.285   2.121   0.860  0.00  0.00    -0.285 N 
ATOM      8  N   UNL     1       0.021   1.999   1.337  0.00  0.00    -0.269 N 
ATOM      9  C   UNL     1      -3.264  -0.155   0.768  0.00  0.00    +0.016 C 
ATOM     10  C   UNL     1      -4.496   0.444   0.038  0.00  0.00    +0.006 C 
ATOM     11  C   UNL     1      -4.144   1.746  -0.704  0.00  0.00    +0.023 C 
ATOM     12  C   UNL     1      -2.615   0.925   1.650  0.00  0.00    +0.113 C 
ATOM     13  C   UNL     1      -3.442   2.744   0.216  0.00  0.00    +0.109 C 
ATOM     17  C   UNL     1      -1.007   2.697   0.705  0.00  0.00    +0.306 C 
ATOM     38  H   UNL     1      -0.197   1.464   2.170  0.00  0.00    +0.156 HD
ENDROOT
BRANCH   8  26
ATOM     26  C   UNL     1       1.380   1.924   0.941  0.00  0.00    +0.035 A 
ATOM     28  C   UNL     1       2.285   1.175   1.692  0.00  0.00    +0.023 A 
ATOM     29  C   UNL     1       1.811   2.599  -0.201  0.00  0.00    +0.023 A 
ATOM     30  C   UNL     1       4.054   1.776   0.160  0.00  0.00    -0.045 A 
ATOM     31  C   UNL     1       3.623   1.101   1.302  0.00  0.00    +0.006 A 
ATOM     32  C   UNL     1       3.148   2.525  -0.591  0.00  0.00    +0.006 A 
BRANCH  30  33
ATOM     33  C   UNL     1       5.484   1.696  -0.258  0.00  0.00    +0.013 C 
ATOM     36  C   UNL     1       5.658   1.039  -1.640  0.00  0.00    +0.012 C 
ATOM     37  C   UNL     1       6.179   3.071  -0.241  0.00  0.00    +0.012 C 
ENDBRANCH  30  33
ENDBRANCH   8  26
BRANCH   9  14
ATOM     14  C   UNL     1      -2.225  -0.778  -0.170  0.00  0.00    +0.061 C 
BRANCH  14  16
ATOM      7  N   UNL     1      -1.882  -2.350   1.613  0.00  0.00    -0.287 NA
ATOM     16  C   UNL     1      -1.359  -1.749   0.596  0.00  0.00    +0.044 C 
ATOM     18  C   UNL     1       0.043  -1.961   0.153  0.00  0.00    +0.003 A 
ATOM     20  C   UNL     1       0.916  -2.544   1.079  0.00  0.00    -0.033 A 
ATOM     21  C   UNL     1       0.393  -2.897   2.440  0.00  0.00    +0.059 C 
ATOM     22  C   UNL     1      -1.060  -3.338   2.321  0.00  0.00    +0.146 C 
ATOM     23  C   UNL     1       0.498  -1.593  -1.115  0.00  0.00    +0.059 A 
ATOM     24  C   UNL     1       2.258  -2.734   0.738  0.00  0.00    +0.053 A 
ATOM     25  C   UNL     1       1.836  -1.800  -1.452  0.00  0.00    +0.162 A 
ATOM     27  C   UNL     1       2.715  -2.366  -0.528  0.00  0.00    +0.162 A 
BRANCH  25   4
ATOM      4  O   UNL     1       2.276  -1.441  -2.691  0.00  0.00    -0.491 OA
ATOM     34  C   UNL     1       1.317  -0.870  -3.578  0.00  0.00    +0.277 C 
ENDBRANCH  25   4
BRANCH  27   5
ATOM      5  O   UNL     1       4.024  -2.563  -0.849  0.00  0.00    -0.491 OA
ATOM     35  C   UNL     1       4.856  -3.147   0.151  0.00  0.00    +0.277 C 
ENDBRANCH  27   5
ENDBRANCH  14  16
ENDBRANCH   9  14
BRANCH  10  15
ATOM     15  C   UNL     1      -5.175  -0.548  -0.905  0.00  0.00    +0.124 C 
BRANCH  15  19
ATOM      3  O   UNL     1      -7.203   0.790  -0.710  0.00  0.00    -0.251 OA
ATOM     19  C   UNL     1      -6.608  -0.175  -1.165  0.00  0.00    +0.305 C 
BRANCH  19   1
ATOM      1  O   UNL     1      -7.173  -1.083  -2.002  0.00  0.00    -0.481 OA
ATOM     39  H   UNL     1      -8.111  -0.870  -2.194  0.00  0.00    +0.295 HD
ENDBRANCH  19   1
ENDBRANCH  15  19
ENDBRANCH  10  15
TORSDOF 9
