REMARK  Name = 75536571
REMARK  7 active torsions:
REMARK  status: ('A' for Active; 'I' for Inactive)
REMARK    1  A    between atoms: O_3  and  C_8
REMARK    2  A    between atoms: N_5  and  C_16
REMARK    3  A    between atoms: N_6  and  C_9
REMARK    4  A    between atoms: N_6  and  C_18
REMARK    5  A    between atoms: C_7  and  C_16
REMARK    6  A    between atoms: C_10  and  C_17
REMARK    7  A    between atoms: C_18  and  C_19
REMARK                            x       y       z     vdW  Elec       q    Type
REMARK                         _______ _______ _______ _____ _____    ______ ____
ROOT
ATOM      2  O   UNL     1       0.255  -1.227   0.103  0.00  0.00    -0.371 OA
ATOM      7  C   UNL     1       0.598   0.169   0.117  0.00  0.00    +0.165 C 
ATOM      8  C   UNL     1      -0.699   0.917   0.394  0.00  0.00    +0.164 C 
ATOM      9  C   UNL     1      -1.702   0.044  -0.338  0.00  0.00    +0.111 C 
ATOM     15  C   UNL     1      -1.172  -1.346  -0.029  0.00  0.00    +0.181 C 
ENDROOT
BRANCH   8   3
ATOM      3  O   UNL     1      -0.661   2.240  -0.105  0.00  0.00    -0.388 OA
ATOM     25  H   UNL     1      -0.471   2.203  -1.058  0.00  0.00    +0.210 HD
ENDBRANCH   8   3
BRANCH   9   6
ATOM      6  N   UNL     1      -3.074   0.238   0.103  0.00  0.00    -0.304 NA
ATOM     24  H   UNL     1      -3.261   1.238   0.174  0.00  0.00    +0.123 HD
BRANCH   6  18
ATOM     18  C   UNL     1      -4.016  -0.356  -0.839  0.00  0.00    +0.124 C 
BRANCH  18  19
ATOM      1  S   UNL     1      -6.424  -1.561  -0.140  0.00  0.00    -0.100 S 
ATOM     19  C   UNL     1      -5.443  -0.180  -0.390  0.00  0.00    +0.004 A 
ATOM     20  C   UNL     1      -6.123   0.991  -0.136  0.00  0.00    +0.012 A 
ATOM     21  C   UNL     1      -7.467   0.751   0.271  0.00  0.00    +0.008 A 
ATOM     22  C   UNL     1      -7.763  -0.594   0.311  0.00  0.00    +0.045 A 
ENDBRANCH  18  19
ENDBRANCH   6  18
ENDBRANCH   9   6
BRANCH   7  16
ATOM     16  C   UNL     1       1.672   0.423   1.159  0.00  0.00    +0.138 C 
BRANCH  16   5
ATOM      4  O   UNL     1       3.922   1.316  -0.443  0.00  0.00    -0.276 OA
ATOM      5  N   UNL     1       2.872  -0.304   0.861  0.00  0.00    -0.313 N 
ATOM     17  C   UNL     1       3.904   0.205   0.080  0.00  0.00    +0.216 C 
ATOM     23  H   UNL     1       2.961  -1.239   1.248  0.00  0.00    +0.149 HD
BRANCH  17  10
ATOM     10  C   UNL     1       5.050  -0.751  -0.054  0.00  0.00    +0.075 C 
ATOM     11  C   UNL     1       5.794  -0.520  -1.370  0.00  0.00    +0.013 C 
ATOM     12  C   UNL     1       6.072  -0.516   1.064  0.00  0.00    +0.013 C 
ATOM     13  C   UNL     1       7.005   0.317  -0.985  0.00  0.00    +0.001 C 
ATOM     14  C   UNL     1       7.401  -0.255   0.364  0.00  0.00    +0.001 C 
ENDBRANCH  17  10
ENDBRANCH  16   5
ENDBRANCH   7  16
TORSDOF 7
