REMARK  Name = 45361595
REMARK  11 active torsions:
REMARK  status: ('A' for Active; 'I' for Inactive)
REMARK    1  A    between atoms: O_1  and  C_10
REMARK    2  A    between atoms: O_4  and  C_29
REMARK    3  A    between atoms: O_4  and  C_30
REMARK    4  A    between atoms: N_5  and  C_14
REMARK    5  A    between atoms: C_7  and  C_17
REMARK    6  A    between atoms: C_9  and  C_19
REMARK    7  A    between atoms: C_12  and  C_18
REMARK    8  A    between atoms: C_18  and  C_20
REMARK    9  A    between atoms: C_18  and  C_21
REMARK   10  A    between atoms: C_22  and  C_25
REMARK   11  A    between atoms: C_25  and  C_29
REMARK                            x       y       z     vdW  Elec       q    Type
REMARK                         _______ _______ _______ _____ _____    ______ ____
ROOT
ATOM      7  C   UNL     1       0.228   1.629   0.969  0.00  0.00    -0.027 C 
ATOM      8  C   UNL     1       0.332   0.502  -0.112  0.00  0.00    +0.028 C 
ATOM      9  C   UNL     1       1.740   0.524  -0.808  0.00  0.00    +0.012 C 
ATOM     10  C   UNL     1      -0.890   0.529  -1.074  0.00  0.00    +0.122 C 
ATOM     11  C   UNL     1      -1.124   1.508   1.712  0.00  0.00    +0.007 C 
ATOM     12  C   UNL     1      -2.240   0.512  -0.321  0.00  0.00    +0.029 C 
ATOM     13  C   UNL     1       1.355   1.437   2.009  0.00  0.00    +0.009 C 
ATOM     14  C   UNL     1       2.869   0.406   0.255  0.00  0.00    +0.076 C 
ATOM     15  C   UNL     1      -2.324   1.573   0.776  0.00  0.00    +0.007 C 
ATOM     16  C   UNL     1       2.745   1.423   1.388  0.00  0.00    +0.023 C 
ATOM     17  C   UNL     1       0.334   3.050   0.358  0.00  0.00    +0.011 C 
ATOM     19  C   UNL     1       1.922  -0.579  -1.865  0.00  0.00    +0.010 C 
ENDROOT
BRANCH  14   5
ATOM      3  O   UNL     1       5.307  -0.873   1.120  0.00  0.00    -0.276 OA
ATOM      5  N   UNL     1       4.182   0.539  -0.340  0.00  0.00    -0.312 N 
ATOM     22  C   UNL     1       5.298  -0.119   0.150  0.00  0.00    +0.215 C 
ATOM     31  H   UNL     1       4.293   1.193  -1.110  0.00  0.00    +0.149 HD
BRANCH  22  25
ATOM     25  C   UNL     1       6.538   0.203  -0.669  0.00  0.00    +0.124 C 
BRANCH  25  29
ATOM     29  C   UNL     1       7.786  -0.502  -0.160  0.00  0.00    +0.168 C 
BRANCH  29   4
ATOM      4  O   UNL     1       7.601  -1.909  -0.247  0.00  0.00    -0.382 OA
ATOM     30  C   UNL     1       8.748  -2.614   0.209  0.00  0.00    +0.194 C 
ENDBRANCH  29   4
ENDBRANCH  25  29
ENDBRANCH  22  25
ENDBRANCH  14   5
BRANCH  10   1
ATOM      1  O   UNL     1      -0.870  -0.635  -1.902  0.00  0.00    -0.391 OA
ATOM     32  H   UNL     1      -0.917  -1.417  -1.326  0.00  0.00    +0.210 HD
ENDBRANCH  10   1
BRANCH  12  18
ATOM     18  C   UNL     1      -3.428   0.671  -1.278  0.00  0.00    +0.078 C 
ATOM     20  C   UNL     1      -3.363   1.995  -2.017  0.00  0.00    +0.017 C 
BRANCH  18  21
ATOM      2  O   UNL     1      -5.214   1.621  -0.045  0.00  0.00    -0.275 OA
ATOM      6  N   UNL     1      -5.234  -0.690  -0.284  0.00  0.00    -0.301 N 
ATOM     21  C   UNL     1      -4.705   0.585  -0.481  0.00  0.00    +0.219 C 
ATOM     23  C   UNL     1      -6.471  -0.856   0.482  0.00  0.00    +0.108 C 
ATOM     24  C   UNL     1      -4.675  -1.935  -0.827  0.00  0.00    +0.108 C 
ATOM     26  C   UNL     1      -6.279  -1.857   1.619  0.00  0.00    +0.019 C 
ATOM     27  C   UNL     1      -4.449  -2.958   0.285  0.00  0.00    +0.019 C 
ATOM     28  C   UNL     1      -5.722  -3.182   1.101  0.00  0.00    +0.003 C 
ENDBRANCH  18  21
ENDBRANCH  12  18
TORSDOF 7
