MODEL 1
REMARK VINA RESULT:      -8.0      0.000      0.000
REMARK  Name = 11882032
REMARK  11 active torsions:
REMARK  status: ('A' for Active; 'I' for Inactive)
REMARK    1  A    between atoms: S_1  and  C_39
REMARK    2  A    between atoms: S_1  and  C_42
REMARK    3  A    between atoms: N_7  and  C_13
REMARK    4  A    between atoms: N_8  and  C_19
REMARK    5  A    between atoms: N_9  and  C_29
REMARK    6  A    between atoms: N_10  and  C_32
REMARK    7  A    between atoms: C_14  and  C_17
REMARK    8  A    between atoms: C_18  and  C_20
REMARK    9  A    between atoms: C_19  and  C_22
REMARK   10  A    between atoms: C_19  and  C_25
REMARK   11  A    between atoms: C_22  and  C_23
REMARK                            x       y       z     vdW  Elec       q    Type
REMARK                         _______ _______ _______ _____ _____    ______ ____
ROOT
ATOM      3  O   UNL     1      10.390  10.839  22.688  0.00  0.00    -0.268 OA
ATOM      6  N   UNL     1      12.384  11.887  22.189  0.00  0.00    -0.283 N 
ATOM     13  C   UNL     1      14.539  12.554  21.434  0.00  0.00    +0.094 C 
ATOM     14  C   UNL     1      12.671  11.077  21.013  0.00  0.00    +0.164 C 
ATOM     15  C   UNL     1      13.833  11.782  20.316  0.00  0.00    +0.056 C 
ATOM     16  C   UNL     1      13.408  12.915  22.390  0.00  0.00    +0.131 C 
ATOM     18  C   UNL     1      11.202  11.735  22.921  0.00  0.00    +0.264 C 
ENDROOT
BRANCH  13   7
ATOM      4  O   UNL     1      16.864  11.412  20.211  0.00  0.00    -0.253 OA
ATOM      7  N   UNL     1      15.558  11.770  22.085  0.00  0.00    -0.295 N 
ATOM     10  N   UNL     1      17.483  10.533  22.298  0.00  0.00    -0.269 N 
ATOM     21  C   UNL     1      16.669  11.246  21.412  0.00  0.00    +0.304 C 
ATOM     43  H   UNL     1      15.432  11.532  23.064  0.00  0.00    +0.151 HD
ATOM     45  H   UNL     1      17.176  10.491  23.266  0.00  0.00    +0.156 HD
BRANCH  10  32
ATOM     32  C   UNL     1      18.692   9.856  22.013  0.00  0.00    +0.036 A 
ATOM     37  C   UNL     1      18.664   8.527  21.588  0.00  0.00    +0.038 A 
ATOM     38  C   UNL     1      19.911  10.518  22.156  0.00  0.00    +0.023 A 
ATOM     39  C   UNL     1      19.856   7.860  21.307  0.00  0.00    +0.009 A 
ATOM     40  C   UNL     1      21.104   9.850  21.875  0.00  0.00    +0.003 A 
ATOM     41  C   UNL     1      21.077   8.522  21.451  0.00  0.00    +0.015 A 
BRANCH  39   1
ATOM      1  S   UNL     1      19.823   6.163  20.763  0.00  0.00    -0.129 S 
ATOM     42  C   UNL     1      18.211   6.074  19.931  0.00  0.00    +0.090 C 
ENDBRANCH  39   1
ENDBRANCH  10  32
ENDBRANCH  13   7
BRANCH  18  20
ATOM      9  N   UNL     1      10.359  13.892  23.873  0.00  0.00    -0.346 N 
ATOM     20  C   UNL     1      10.986  12.682  24.008  0.00  0.00    +0.104 A 
ATOM     24  C   UNL     1      11.359  12.544  25.327  0.00  0.00    +0.032 A 
ATOM     26  C   UNL     1      10.325  14.530  25.085  0.00  0.00    +0.086 A 
ATOM     28  C   UNL     1      10.942  13.714  26.008  0.00  0.00    +0.020 A 
ATOM     29  C   UNL     1       9.810  14.430  22.647  0.00  0.00    +0.149 C 
ENDBRANCH  18  20
BRANCH  14  17
ATOM      2  O   UNL     1      13.956   9.503  22.267  0.00  0.00    -0.274 OA
ATOM      8  N   UNL     1      12.298   8.718  20.835  0.00  0.00    -0.302 N 
ATOM     17  C   UNL     1      13.054   9.697  21.457  0.00  0.00    +0.234 C 
ATOM     44  H   UNL     1      11.519   8.999  20.246  0.00  0.00    +0.150 HD
BRANCH   8  19
ATOM     19  C   UNL     1      12.485   7.304  21.071  0.00  0.00    +0.163 C 
BRANCH  19  25
ATOM      5  O   UNL     1      10.311   7.425  22.150  0.00  0.00    -0.274 OA
ATOM     12  N   UNL     1      10.971   5.427  21.228  0.00  0.00    -0.328 N 
ATOM     25  C   UNL     1      11.154   6.752  21.561  0.00  0.00    +0.231 C 
ATOM     47  H   UNL     1      11.667   4.890  20.721  0.00  0.00    +0.145 HD
ATOM     48  H   UNL     1      10.118   4.939  21.484  0.00  0.00    +0.145 HD
ENDBRANCH  19  25
BRANCH  19  22
ATOM     22  C   UNL     1      12.943   6.560  19.812  0.00  0.00    +0.069 C 
BRANCH  22  23
ATOM     11  N   UNL     1      14.565   8.745  17.340  0.00  0.00    -0.360 N 
ATOM     23  C   UNL     1      13.342   7.481  18.694  0.00  0.00    -0.020 A 
ATOM     27  C   UNL     1      12.479   8.049  17.715  0.00  0.00    +0.003 A 
ATOM     30  C   UNL     1      14.617   7.928  18.437  0.00  0.00    +0.087 A 
ATOM     31  C   UNL     1      13.271   8.837  16.877  0.00  0.00    +0.047 A 
ATOM     33  C   UNL     1      11.095   7.968  17.460  0.00  0.00    +0.010 A 
ATOM     34  C   UNL     1      12.747   9.551  15.794  0.00  0.00    +0.026 A 
ATOM     35  C   UNL     1      10.558   8.676  16.380  0.00  0.00    +0.001 A 
ATOM     36  C   UNL     1      11.372   9.454  15.561  0.00  0.00    +0.002 A 
ATOM     46  H   UNL     1      15.359   9.213  16.928  0.00  0.00    +0.165 HD
ENDBRANCH  22  23
ENDBRANCH  19  22
ENDBRANCH   8  19
ENDBRANCH  14  17
TORSDOF 9
ENDMDL
MODEL 2
REMARK VINA RESULT:      -7.8     27.201     30.442
REMARK  Name = 11882032
REMARK  11 active torsions:
REMARK  status: ('A' for Active; 'I' for Inactive)
REMARK    1  A    between atoms: S_1  and  C_39
REMARK    2  A    between atoms: S_1  and  C_42
REMARK    3  A    between atoms: N_7  and  C_13
REMARK    4  A    between atoms: N_8  and  C_19
REMARK    5  A    between atoms: N_9  and  C_29
REMARK    6  A    between atoms: N_10  and  C_32
REMARK    7  A    between atoms: C_14  and  C_17
REMARK    8  A    between atoms: C_18  and  C_20
REMARK    9  A    between atoms: C_19  and  C_22
REMARK   10  A    between atoms: C_19  and  C_25
REMARK   11  A    between atoms: C_22  and  C_23
REMARK                            x       y       z     vdW  Elec       q    Type
REMARK                         _______ _______ _______ _____ _____    ______ ____
ROOT
ATOM      3  O   UNL     1      -6.327 -10.562  17.055  0.00  0.00    -0.268 OA
ATOM      6  N   UNL     1      -7.438 -10.903  15.062  0.00  0.00    -0.283 N 
ATOM     13  C   UNL     1      -8.137 -11.333  12.829  0.00  0.00    +0.094 C 
ATOM     14  C   UNL     1      -6.378 -11.691  14.450  0.00  0.00    +0.164 C 
ATOM     15  C   UNL     1      -7.003 -12.295  13.194  0.00  0.00    +0.056 C 
ATOM     16  C   UNL     1      -8.603 -10.800  14.179  0.00  0.00    +0.131 C 
ATOM     18  C   UNL     1      -7.347 -10.436  16.377  0.00  0.00    +0.264 C 
ENDROOT
BRANCH  13   7
ATOM      4  O   UNL     1      -9.324 -10.559  10.340  0.00  0.00    -0.253 OA
ATOM      7  N   UNL     1      -7.699 -10.271  11.959  0.00  0.00    -0.295 N 
ATOM     10  N   UNL     1      -7.692  -8.884  10.127  0.00  0.00    -0.269 N 
ATOM     21  C   UNL     1      -8.337  -9.955  10.753  0.00  0.00    +0.304 C 
ATOM     43  H   UNL     1      -6.848  -9.770  12.199  0.00  0.00    +0.151 HD
ATOM     45  H   UNL     1      -6.884  -8.496  10.605  0.00  0.00    +0.156 HD
BRANCH  10  32
ATOM     32  C   UNL     1      -8.026  -8.268   8.897  0.00  0.00    +0.036 A 
ATOM     37  C   UNL     1      -7.527  -8.783   7.700  0.00  0.00    +0.038 A 
ATOM     38  C   UNL     1      -8.855  -7.147   8.883  0.00  0.00    +0.023 A 
ATOM     39  C   UNL     1      -7.857  -8.175   6.489  0.00  0.00    +0.009 A 
ATOM     40  C   UNL     1      -9.184  -6.538   7.672  0.00  0.00    +0.003 A 
ATOM     41  C   UNL     1      -8.686  -7.052   6.475  0.00  0.00    +0.015 A 
BRANCH  39   1
ATOM      1  S   UNL     1      -7.221  -8.831   4.959  0.00  0.00    -0.129 S 
ATOM     42  C   UNL     1      -6.339 -10.312   5.531  0.00  0.00    +0.090 C 
ENDBRANCH  39   1
ENDBRANCH  10  32
ENDBRANCH  13   7
BRANCH  18  20
ATOM      9  N   UNL     1      -9.501 -10.360  17.652  0.00  0.00    -0.346 N 
ATOM     20  C   UNL     1      -8.523  -9.755  16.907  0.00  0.00    +0.104 A 
ATOM     24  C   UNL     1      -8.859  -8.428  16.764  0.00  0.00    +0.032 A 
ATOM     26  C   UNL     1     -10.458  -9.437  17.986  0.00  0.00    +0.086 A 
ATOM     28  C   UNL     1     -10.085  -8.227  17.446  0.00  0.00    +0.020 A 
ATOM     29  C   UNL     1      -9.535 -11.754  18.035  0.00  0.00    +0.149 C 
ENDBRANCH  18  20
BRANCH  14  17
ATOM      2  O   UNL     1      -5.410  -9.683  13.592  0.00  0.00    -0.274 OA
ATOM      8  N   UNL     1      -4.008 -11.343  14.427  0.00  0.00    -0.302 N 
ATOM     17  C   UNL     1      -5.234 -10.783  14.110  0.00  0.00    +0.234 C 
ATOM     44  H   UNL     1      -3.987 -12.224  14.933  0.00  0.00    +0.150 HD
BRANCH   8  19
ATOM     19  C   UNL     1      -2.748 -10.681  14.178  0.00  0.00    +0.163 C 
BRANCH  19  25
ATOM      5  O   UNL     1      -1.014  -9.922  15.701  0.00  0.00    -0.274 OA
ATOM     12  N   UNL     1      -2.585 -11.406  16.478  0.00  0.00    -0.328 N 
ATOM     25  C   UNL     1      -2.003 -10.624  15.504  0.00  0.00    +0.231 C 
ATOM     47  H   UNL     1      -3.416 -11.963  16.307  0.00  0.00    +0.145 HD
ATOM     48  H   UNL     1      -2.195 -11.448  17.414  0.00  0.00    +0.145 HD
ENDBRANCH  19  25
BRANCH  19  22
ATOM     22  C   UNL     1      -1.907 -11.409  13.123  0.00  0.00    +0.069 C 
BRANCH  22  23
ATOM     11  N   UNL     1      -3.769 -13.027  10.396  0.00  0.00    -0.360 N 
ATOM     23  C   UNL     1      -2.699 -11.804  11.908  0.00  0.00    -0.020 A 
ATOM     27  C   UNL     1      -3.212 -10.929  10.910  0.00  0.00    +0.003 A 
ATOM     30  C   UNL     1      -3.058 -13.087  11.564  0.00  0.00    +0.087 A 
ATOM     31  C   UNL     1      -3.879 -11.721   9.973  0.00  0.00    +0.047 A 
ATOM     33  C   UNL     1      -3.173  -9.534  10.713  0.00  0.00    +0.010 A 
ATOM     34  C   UNL     1      -4.511 -11.186   8.845  0.00  0.00    +0.026 A 
ATOM     35  C   UNL     1      -3.801  -8.986   9.589  0.00  0.00    +0.001 A 
ATOM     36  C   UNL     1      -4.459  -9.800   8.671  0.00  0.00    +0.002 A 
ATOM     46  H   UNL     1      -4.158 -13.824   9.913  0.00  0.00    +0.165 HD
ENDBRANCH  22  23
ENDBRANCH  19  22
ENDBRANCH   8  19
ENDBRANCH  14  17
TORSDOF 9
ENDMDL
MODEL 3
REMARK VINA RESULT:      -7.4      2.489      6.619
REMARK  Name = 11882032
REMARK  11 active torsions:
REMARK  status: ('A' for Active; 'I' for Inactive)
REMARK    1  A    between atoms: S_1  and  C_39
REMARK    2  A    between atoms: S_1  and  C_42
REMARK    3  A    between atoms: N_7  and  C_13
REMARK    4  A    between atoms: N_8  and  C_19
REMARK    5  A    between atoms: N_9  and  C_29
REMARK    6  A    between atoms: N_10  and  C_32
REMARK    7  A    between atoms: C_14  and  C_17
REMARK    8  A    between atoms: C_18  and  C_20
REMARK    9  A    between atoms: C_19  and  C_22
REMARK   10  A    between atoms: C_19  and  C_25
REMARK   11  A    between atoms: C_22  and  C_23
REMARK                            x       y       z     vdW  Elec       q    Type
REMARK                         _______ _______ _______ _____ _____    ______ ____
ROOT
ATOM      3  O   UNL     1      12.626  10.764  19.172  0.00  0.00    -0.268 OA
ATOM      6  N   UNL     1      13.838   8.813  18.958  0.00  0.00    -0.283 N 
ATOM     13  C   UNL     1      14.980   6.741  19.210  0.00  0.00    +0.094 C 
ATOM     14  C   UNL     1      13.227   8.149  20.101  0.00  0.00    +0.164 C 
ATOM     15  C   UNL     1      13.668   6.690  19.999  0.00  0.00    +0.056 C 
ATOM     16  C   UNL     1      14.791   7.932  18.278  0.00  0.00    +0.131 C 
ATOM     18  C   UNL     1      13.435  10.085  18.539  0.00  0.00    +0.264 C 
ENDROOT
BRANCH  13   7
ATOM      4  O   UNL     1      17.661   5.898  18.656  0.00  0.00    -0.253 OA
ATOM      7  N   UNL     1      16.129   6.908  20.063  0.00  0.00    -0.295 N 
ATOM     10  N   UNL     1      18.321   6.765  20.736  0.00  0.00    -0.269 N 
ATOM     21  C   UNL     1      17.412   6.466  19.717  0.00  0.00    +0.304 C 
ATOM     43  H   UNL     1      15.990   7.307  20.987  0.00  0.00    +0.151 HD
ATOM     45  H   UNL     1      17.950   7.240  21.554  0.00  0.00    +0.156 HD
BRANCH  10  32
ATOM     32  C   UNL     1      19.708   6.485  20.772  0.00  0.00    +0.036 A 
ATOM     37  C   UNL     1      20.152   5.179  20.979  0.00  0.00    +0.038 A 
ATOM     38  C   UNL     1      20.631   7.517  20.600  0.00  0.00    +0.023 A 
ATOM     39  C   UNL     1      21.518   4.904  21.013  0.00  0.00    +0.009 A 
ATOM     40  C   UNL     1      21.998   7.242  20.636  0.00  0.00    +0.003 A 
ATOM     41  C   UNL     1      22.442   5.936  20.842  0.00  0.00    +0.015 A 
BRANCH  39   1
ATOM      1  S   UNL     1      22.087   3.235  21.276  0.00  0.00    -0.129 S 
ATOM     42  C   UNL     1      23.851   3.379  20.868  0.00  0.00    +0.090 C 
ENDBRANCH  39   1
ENDBRANCH  10  32
ENDBRANCH  13   7
BRANCH  18  20
ATOM      9  N   UNL     1      13.602  10.313  16.052  0.00  0.00    -0.346 N 
ATOM     20  C   UNL     1      14.048  10.590  17.317  0.00  0.00    +0.104 A 
ATOM     24  C   UNL     1      15.149  11.409  17.207  0.00  0.00    +0.032 A 
ATOM     26  C   UNL     1      14.403  10.943  15.135  0.00  0.00    +0.086 A 
ATOM     28  C   UNL     1      15.375  11.632  15.827  0.00  0.00    +0.020 A 
ATOM     29  C   UNL     1      12.464   9.486  15.716  0.00  0.00    +0.149 C 
ENDBRANCH  18  20
BRANCH  14  17
ATOM      2  O   UNL     1      13.129   8.685  22.426  0.00  0.00    -0.274 OA
ATOM      8  N   UNL     1      14.904   9.494  21.156  0.00  0.00    -0.302 N 
ATOM     17  C   UNL     1      13.731   8.788  21.360  0.00  0.00    +0.234 C 
ATOM     44  H   UNL     1      15.359   9.438  20.249  0.00  0.00    +0.150 HD
BRANCH   8  19
ATOM     19  C   UNL     1      15.583  10.220  22.205  0.00  0.00    +0.163 C 
BRANCH  19  25
ATOM      5  O   UNL     1      17.525   9.751  20.822  0.00  0.00    -0.274 OA
ATOM     12  N   UNL     1      17.802  11.040  22.703  0.00  0.00    -0.328 N 
ATOM     25  C   UNL     1      17.056  10.282  21.826  0.00  0.00    +0.231 C 
ATOM     47  H   UNL     1      17.395  11.493  23.515  0.00  0.00    +0.145 HD
ATOM     48  H   UNL     1      18.797  11.174  22.558  0.00  0.00    +0.145 HD
ENDBRANCH  19  25
BRANCH  19  22
ATOM     22  C   UNL     1      15.019  11.634  22.393  0.00  0.00    +0.069 C 
BRANCH  22  23
ATOM     11  N   UNL     1      13.325  11.633  25.656  0.00  0.00    -0.360 N 
ATOM     23  C   UNL     1      14.110  11.752  23.583  0.00  0.00    -0.020 A 
ATOM     27  C   UNL     1      12.791  12.288  23.592  0.00  0.00    +0.003 A 
ATOM     30  C   UNL     1      14.410  11.358  24.866  0.00  0.00    +0.087 A 
ATOM     31  C   UNL     1      12.321  12.201  24.904  0.00  0.00    +0.047 A 
ATOM     33  C   UNL     1      11.949  12.840  22.605  0.00  0.00    +0.010 A 
ATOM     34  C   UNL     1      11.047  12.641  25.281  0.00  0.00    +0.026 A 
ATOM     35  C   UNL     1      10.672  13.283  22.969  0.00  0.00    +0.001 A 
ATOM     36  C   UNL     1      10.230  13.184  24.286  0.00  0.00    +0.002 A 
ATOM     46  H   UNL     1      13.269  11.446  26.647  0.00  0.00    +0.165 HD
ENDBRANCH  22  23
ENDBRANCH  19  22
ENDBRANCH   8  19
ENDBRANCH  14  17
TORSDOF 9
ENDMDL
MODEL 4
REMARK VINA RESULT:      -7.3     14.723     17.689
REMARK  Name = 11882032
REMARK  11 active torsions:
REMARK  status: ('A' for Active; 'I' for Inactive)
REMARK    1  A    between atoms: S_1  and  C_39
REMARK    2  A    between atoms: S_1  and  C_42
REMARK    3  A    between atoms: N_7  and  C_13
REMARK    4  A    between atoms: N_8  and  C_19
REMARK    5  A    between atoms: N_9  and  C_29
REMARK    6  A    between atoms: N_10  and  C_32
REMARK    7  A    between atoms: C_14  and  C_17
REMARK    8  A    between atoms: C_18  and  C_20
REMARK    9  A    between atoms: C_19  and  C_22
REMARK   10  A    between atoms: C_19  and  C_25
REMARK   11  A    between atoms: C_22  and  C_23
REMARK                            x       y       z     vdW  Elec       q    Type
REMARK                         _______ _______ _______ _____ _____    ______ ____
ROOT
ATOM      3  O   UNL     1      15.810   6.957   4.298  0.00  0.00    -0.268 OA
ATOM      6  N   UNL     1      14.577   8.292   5.718  0.00  0.00    -0.283 N 
ATOM     13  C   UNL     1      12.928   9.406   7.022  0.00  0.00    +0.094 C 
ATOM     14  C   UNL     1      13.463   7.363   5.843  0.00  0.00    +0.164 C 
ATOM     15  C   UNL     1      12.615   7.908   6.991  0.00  0.00    +0.056 C 
ATOM     16  C   UNL     1      14.377   9.479   6.553  0.00  0.00    +0.131 C 
ATOM     18  C   UNL     1      15.722   7.979   4.978  0.00  0.00    +0.264 C 
ENDROOT
BRANCH  13   7
ATOM      4  O   UNL     1      10.298  10.340   7.665  0.00  0.00    -0.253 OA
ATOM      7  N   UNL     1      12.052  10.168   6.169  0.00  0.00    -0.295 N 
ATOM     10  N   UNL     1      10.161  11.306   5.530  0.00  0.00    -0.269 N 
ATOM     21  C   UNL     1      10.774  10.589   6.560  0.00  0.00    +0.304 C 
ATOM     43  H   UNL     1      12.349  10.354   5.215  0.00  0.00    +0.151 HD
ATOM     45  H   UNL     1      10.696  11.422   4.673  0.00  0.00    +0.156 HD
BRANCH  10  32
ATOM     32  C   UNL     1       8.875  11.896   5.528  0.00  0.00    +0.036 A 
ATOM     37  C   UNL     1       7.840  11.314   4.794  0.00  0.00    +0.038 A 
ATOM     38  C   UNL     1       8.641  13.059   6.261  0.00  0.00    +0.023 A 
ATOM     39  C   UNL     1       6.573  11.896   4.794  0.00  0.00    +0.009 A 
ATOM     40  C   UNL     1       7.374  13.642   6.260  0.00  0.00    +0.003 A 
ATOM     41  C   UNL     1       6.340  13.061   5.526  0.00  0.00    +0.015 A 
BRANCH  39   1
ATOM      1  S   UNL     1       5.250  11.153   3.859  0.00  0.00    -0.129 S 
ATOM     42  C   UNL     1       6.114   9.802   3.008  0.00  0.00    +0.090 C 
ENDBRANCH  39   1
ENDBRANCH  10  32
ENDBRANCH  13   7
BRANCH  18  20
ATOM      9  N   UNL     1      16.928  10.024   4.183  0.00  0.00    -0.346 N 
ATOM     20  C   UNL     1      16.809   8.949   5.024  0.00  0.00    +0.104 A 
ATOM     24  C   UNL     1      17.882   8.966   5.887  0.00  0.00    +0.032 A 
ATOM     26  C   UNL     1      18.062  10.728   4.496  0.00  0.00    +0.086 A 
ATOM     28  C   UNL     1      18.675  10.091   5.553  0.00  0.00    +0.020 A 
ATOM     29  C   UNL     1      16.009  10.378   3.124  0.00  0.00    +0.149 C 
ENDBRANCH  18  20
BRANCH  14  17
ATOM      2  O   UNL     1      12.628   8.339   3.830  0.00  0.00    -0.274 OA
ATOM      8  N   UNL     1      12.087   6.129   4.321  0.00  0.00    -0.302 N 
ATOM     17  C   UNL     1      12.696   7.349   4.555  0.00  0.00    +0.234 C 
ATOM     44  H   UNL     1      12.284   5.353   4.948  0.00  0.00    +0.150 HD
BRANCH   8  19
ATOM     19  C   UNL     1      11.269   5.862   3.159  0.00  0.00    +0.163 C 
BRANCH  19  25
ATOM      5  O   UNL     1      11.155   3.593   2.299  0.00  0.00    -0.274 OA
ATOM     12  N   UNL     1      13.136   4.740   2.112  0.00  0.00    -0.328 N 
ATOM     25  C   UNL     1      11.821   4.605   2.502  0.00  0.00    +0.231 C 
ATOM     47  H   UNL     1      13.667   5.591   2.265  0.00  0.00    +0.145 HD
ATOM     48  H   UNL     1      13.622   3.979   1.648  0.00  0.00    +0.145 HD
ENDBRANCH  19  25
BRANCH  19  22
ATOM     22  C   UNL     1       9.791   5.673   3.519  0.00  0.00    +0.069 C 
BRANCH  22  23
ATOM     11  N   UNL     1       8.632   8.018   6.103  0.00  0.00    -0.360 N 
ATOM     23  C   UNL     1       9.385   6.422   4.758  0.00  0.00    -0.020 A 
ATOM     27  C   UNL     1       9.459   5.947   6.097  0.00  0.00    +0.003 A 
ATOM     30  C   UNL     1       8.872   7.698   4.794  0.00  0.00    +0.087 A 
ATOM     31  C   UNL     1       8.981   6.967   6.922  0.00  0.00    +0.047 A 
ATOM     33  C   UNL     1       9.890   4.742   6.689  0.00  0.00    +0.010 A 
ATOM     34  C   UNL     1       8.911   6.843   8.314  0.00  0.00    +0.026 A 
ATOM     35  C   UNL     1       9.825   4.605   8.081  0.00  0.00    +0.001 A 
ATOM     36  C   UNL     1       9.343   5.640   8.878  0.00  0.00    +0.002 A 
ATOM     46  H   UNL     1       8.253   8.898   6.424  0.00  0.00    +0.165 HD
ENDBRANCH  22  23
ENDBRANCH  19  22
ENDBRANCH   8  19
ENDBRANCH  14  17
TORSDOF 9
ENDMDL
MODEL 5
REMARK VINA RESULT:      -7.1     25.477     28.540
REMARK  Name = 11882032
REMARK  11 active torsions:
REMARK  status: ('A' for Active; 'I' for Inactive)
REMARK    1  A    between atoms: S_1  and  C_39
REMARK    2  A    between atoms: S_1  and  C_42
REMARK    3  A    between atoms: N_7  and  C_13
REMARK    4  A    between atoms: N_8  and  C_19
REMARK    5  A    between atoms: N_9  and  C_29
REMARK    6  A    between atoms: N_10  and  C_32
REMARK    7  A    between atoms: C_14  and  C_17
REMARK    8  A    between atoms: C_18  and  C_20
REMARK    9  A    between atoms: C_19  and  C_22
REMARK   10  A    between atoms: C_19  and  C_25
REMARK   11  A    between atoms: C_22  and  C_23
REMARK                            x       y       z     vdW  Elec       q    Type
REMARK                         _______ _______ _______ _____ _____    ______ ____
ROOT
ATOM      3  O   UNL     1      19.389 -11.657   3.305  0.00  0.00    -0.268 OA
ATOM      6  N   UNL     1      19.535 -10.670   1.225  0.00  0.00    -0.283 N 
ATOM     13  C   UNL     1      19.986  -9.340  -0.695  0.00  0.00    +0.094 C 
ATOM     14  C   UNL     1      20.807 -10.008   1.480  0.00  0.00    +0.164 C 
ATOM     15  C   UNL     1      21.274  -9.503   0.116  0.00  0.00    +0.056 C 
ATOM     16  C   UNL     1      19.076 -10.433  -0.146  0.00  0.00    +0.131 C 
ATOM     18  C   UNL     1      18.939 -11.513   2.168  0.00  0.00    +0.264 C 
ENDROOT
BRANCH  13   7
ATOM      4  O   UNL     1      19.658  -7.359  -2.739  0.00  0.00    -0.253 OA
ATOM      7  N   UNL     1      19.401  -8.032  -0.542  0.00  0.00    -0.295 N 
ATOM     10  N   UNL     1      18.674  -5.939  -1.150  0.00  0.00    -0.269 N 
ATOM     21  C   UNL     1      19.277  -7.118  -1.596  0.00  0.00    +0.304 C 
ATOM     43  H   UNL     1      19.124  -7.733   0.389  0.00  0.00    +0.151 HD
ATOM     45  H   UNL     1      18.417  -5.901  -0.167  0.00  0.00    +0.156 HD
BRANCH  10  32
ATOM     32  C   UNL     1      18.372  -4.779  -1.903  0.00  0.00    +0.036 A 
ATOM     37  C   UNL     1      19.349  -3.803  -2.101  0.00  0.00    +0.038 A 
ATOM     38  C   UNL     1      17.099  -4.612  -2.446  0.00  0.00    +0.023 A 
ATOM     39  C   UNL     1      19.052  -2.660  -2.843  0.00  0.00    +0.009 A 
ATOM     40  C   UNL     1      16.801  -3.469  -3.188  0.00  0.00    +0.003 A 
ATOM     41  C   UNL     1      17.778  -2.493  -3.387  0.00  0.00    +0.015 A 
BRANCH  39   1
ATOM      1  S   UNL     1      20.299  -1.412  -3.100  0.00  0.00    -0.129 S 
ATOM     42  C   UNL     1      21.806  -2.418  -3.224  0.00  0.00    +0.090 C 
ENDBRANCH  39   1
ENDBRANCH  10  32
ENDBRANCH  13   7
BRANCH  18  20
ATOM      9  N   UNL     1      16.453 -11.794   2.060  0.00  0.00    -0.346 N 
ATOM     20  C   UNL     1      17.724 -12.200   1.748  0.00  0.00    +0.104 A 
ATOM     24  C   UNL     1      17.627 -13.344   0.988  0.00  0.00    +0.032 A 
ATOM     26  C   UNL     1      15.546 -12.662   1.510  0.00  0.00    +0.086 A 
ATOM     28  C   UNL     1      16.250 -13.637   0.838  0.00  0.00    +0.020 A 
ATOM     29  C   UNL     1      16.104 -10.631   2.846  0.00  0.00    +0.149 C 
ENDBRANCH  18  20
BRANCH  14  17
ATOM      2  O   UNL     1      19.518  -8.260   2.473  0.00  0.00    -0.274 OA
ATOM      8  N   UNL     1      21.695  -8.618   3.215  0.00  0.00    -0.302 N 
ATOM     17  C   UNL     1      20.581  -8.874   2.435  0.00  0.00    +0.234 C 
ATOM     44  H   UNL     1      22.491  -9.247   3.158  0.00  0.00    +0.150 HD
BRANCH   8  19
ATOM     19  C   UNL     1      21.745  -7.560   4.200  0.00  0.00    +0.163 C 
BRANCH  19  25
ATOM      5  O   UNL     1      22.799  -9.277   5.559  0.00  0.00    -0.274 OA
ATOM     12  N   UNL     1      22.081  -7.350   6.584  0.00  0.00    -0.328 N 
ATOM     25  C   UNL     1      22.253  -8.178   5.495  0.00  0.00    +0.231 C 
ATOM     47  H   UNL     1      21.650  -6.435   6.512  0.00  0.00    +0.145 HD
ATOM     48  H   UNL     1      22.390  -7.636   7.508  0.00  0.00    +0.145 HD
ENDBRANCH  19  25
BRANCH  19  22
ATOM     22  C   UNL     1      22.653  -6.404   3.766  0.00  0.00    +0.069 C 
BRANCH  22  23
ATOM     11  N   UNL     1      21.429  -4.800   0.693  0.00  0.00    -0.360 N 
ATOM     23  C   UNL     1      22.353  -5.906   2.380  0.00  0.00    -0.020 A 
ATOM     27  C   UNL     1      23.011  -6.295   1.179  0.00  0.00    +0.003 A 
ATOM     30  C   UNL     1      21.386  -4.986   2.048  0.00  0.00    +0.087 A 
ATOM     31  C   UNL     1      22.412  -5.587   0.135  0.00  0.00    +0.047 A 
ATOM     33  C   UNL     1      24.061  -7.186   0.879  0.00  0.00    +0.010 A 
ATOM     34  C   UNL     1      22.812  -5.725  -1.198  0.00  0.00    +0.026 A 
ATOM     35  C   UNL     1      24.472  -7.333  -0.450  0.00  0.00    +0.001 A 
ATOM     36  C   UNL     1      23.856  -6.613  -1.471  0.00  0.00    +0.002 A 
ATOM     46  H   UNL     1      20.827  -4.176   0.175  0.00  0.00    +0.165 HD
ENDBRANCH  22  23
ENDBRANCH  19  22
ENDBRANCH   8  19
ENDBRANCH  14  17
TORSDOF 9
ENDMDL
MODEL 6
REMARK VINA RESULT:      -7.1     14.862     19.003
REMARK  Name = 11882032
REMARK  11 active torsions:
REMARK  status: ('A' for Active; 'I' for Inactive)
REMARK    1  A    between atoms: S_1  and  C_39
REMARK    2  A    between atoms: S_1  and  C_42
REMARK    3  A    between atoms: N_7  and  C_13
REMARK    4  A    between atoms: N_8  and  C_19
REMARK    5  A    between atoms: N_9  and  C_29
REMARK    6  A    between atoms: N_10  and  C_32
REMARK    7  A    between atoms: C_14  and  C_17
REMARK    8  A    between atoms: C_18  and  C_20
REMARK    9  A    between atoms: C_19  and  C_22
REMARK   10  A    between atoms: C_19  and  C_25
REMARK   11  A    between atoms: C_22  and  C_23
REMARK                            x       y       z     vdW  Elec       q    Type
REMARK                         _______ _______ _______ _____ _____    ______ ____
ROOT
ATOM      3  O   UNL     1      19.062   9.584   5.714  0.00  0.00    -0.268 OA
ATOM      6  N   UNL     1      18.255   8.890   3.667  0.00  0.00    -0.283 N 
ATOM     13  C   UNL     1      16.992   8.313   1.736  0.00  0.00    +0.094 C 
ATOM     14  C   UNL     1      17.042   9.694   3.722  0.00  0.00    +0.164 C 
ATOM     15  C   UNL     1      16.455   9.626   2.313  0.00  0.00    +0.056 C 
ATOM     16  C   UNL     1      18.355   8.161   2.401  0.00  0.00    +0.131 C 
ATOM     18  C   UNL     1      19.224   8.946   4.674  0.00  0.00    +0.264 C 
ENDROOT
BRANCH  13   7
ATOM      4  O   UNL     1      14.347   7.885   0.723  0.00  0.00    -0.253 OA
ATOM      7  N   UNL     1      16.130   7.194   2.022  0.00  0.00    -0.295 N 
ATOM     10  N   UNL     1      14.248   5.878   1.937  0.00  0.00    -0.269 N 
ATOM     21  C   UNL     1      14.844   7.059   1.483  0.00  0.00    +0.304 C 
ATOM     43  H   UNL     1      16.444   6.503   2.697  0.00  0.00    +0.151 HD
ATOM     45  H   UNL     1      14.799   5.302   2.567  0.00  0.00    +0.156 HD
BRANCH  10  32
ATOM     32  C   UNL     1      12.961   5.380   1.625  0.00  0.00    +0.036 A 
ATOM     37  C   UNL     1      12.694   4.886   0.348  0.00  0.00    +0.038 A 
ATOM     38  C   UNL     1      11.959   5.383   2.596  0.00  0.00    +0.023 A 
ATOM     39  C   UNL     1      11.425   4.394   0.042  0.00  0.00    +0.009 A 
ATOM     40  C   UNL     1      10.690   4.893   2.289  0.00  0.00    +0.003 A 
ATOM     41  C   UNL     1      10.422   4.398   1.013  0.00  0.00    +0.015 A 
BRANCH  39   1
ATOM      1  S   UNL     1      11.083   3.761  -1.588  0.00  0.00    -0.129 S 
ATOM     42  C   UNL     1      12.743   3.303  -2.162  0.00  0.00    +0.090 C 
ENDBRANCH  39   1
ENDBRANCH  10  32
ENDBRANCH  13   7
BRANCH  18  20
ATOM      9  N   UNL     1      21.581   8.677   3.874  0.00  0.00    -0.346 N 
ATOM     20  C   UNL     1      20.441   8.177   4.446  0.00  0.00    +0.104 A 
ATOM     24  C   UNL     1      20.667   6.853   4.750  0.00  0.00    +0.032 A 
ATOM     26  C   UNL     1      22.532   7.692   3.808  0.00  0.00    +0.086 A 
ATOM     28  C   UNL     1      21.989   6.545   4.346  0.00  0.00    +0.020 A 
ATOM     29  C   UNL     1      21.771  10.032   3.406  0.00  0.00    +0.149 C 
ENDBRANCH  18  20
BRANCH  14  17
ATOM      2  O   UNL     1      16.175   7.914   5.057  0.00  0.00    -0.274 OA
ATOM      8  N   UNL     1      15.193  10.019   5.208  0.00  0.00    -0.302 N 
ATOM     17  C   UNL     1      16.109   9.097   4.732  0.00  0.00    +0.234 C 
ATOM     44  H   UNL     1      15.288  10.993   4.933  0.00  0.00    +0.150 HD
BRANCH   8  19
ATOM     19  C   UNL     1      14.170   9.691   6.175  0.00  0.00    +0.163 C 
BRANCH  19  25
ATOM      5  O   UNL     1      14.698  11.913   7.003  0.00  0.00    -0.274 OA
ATOM     12  N   UNL     1      12.934  10.780   7.944  0.00  0.00    -0.328 N 
ATOM     25  C   UNL     1      13.996  10.907   7.074  0.00  0.00    +0.231 C 
ATOM     47  H   UNL     1      12.349   9.952   7.974  0.00  0.00    +0.145 HD
ATOM     48  H   UNL     1      12.700  11.527   8.590  0.00  0.00    +0.145 HD
ENDBRANCH  19  25
BRANCH  19  22
ATOM     22  C   UNL     1      12.838   9.323   5.509  0.00  0.00    +0.069 C 
BRANCH  22  23
ATOM     11  N   UNL     1      12.171   5.983   6.895  0.00  0.00    -0.360 N 
ATOM     23  C   UNL     1      12.313   7.983   5.943  0.00  0.00    -0.020 A 
ATOM     27  C   UNL     1      11.043   7.427   5.623  0.00  0.00    +0.003 A 
ATOM     30  C   UNL     1      12.983   7.072   6.726  0.00  0.00    +0.087 A 
ATOM     31  C   UNL     1      10.979   6.172   6.232  0.00  0.00    +0.047 A 
ATOM     33  C   UNL     1       9.938   7.872   4.870  0.00  0.00    +0.010 A 
ATOM     34  C   UNL     1       9.861   5.337   6.126  0.00  0.00    +0.026 A 
ATOM     35  C   UNL     1       8.813   7.047   4.756  0.00  0.00    +0.001 A 
ATOM     36  C   UNL     1       8.777   5.800   5.375  0.00  0.00    +0.002 A 
ATOM     46  H   UNL     1      12.410   5.160   7.429  0.00  0.00    +0.165 HD
ENDBRANCH  22  23
ENDBRANCH  19  22
ENDBRANCH   8  19
ENDBRANCH  14  17
TORSDOF 9
ENDMDL
MODEL 7
REMARK VINA RESULT:      -6.9     18.140     22.808
REMARK  Name = 11882032
REMARK  11 active torsions:
REMARK  status: ('A' for Active; 'I' for Inactive)
REMARK    1  A    between atoms: S_1  and  C_39
REMARK    2  A    between atoms: S_1  and  C_42
REMARK    3  A    between atoms: N_7  and  C_13
REMARK    4  A    between atoms: N_8  and  C_19
REMARK    5  A    between atoms: N_9  and  C_29
REMARK    6  A    between atoms: N_10  and  C_32
REMARK    7  A    between atoms: C_14  and  C_17
REMARK    8  A    between atoms: C_18  and  C_20
REMARK    9  A    between atoms: C_19  and  C_22
REMARK   10  A    between atoms: C_19  and  C_25
REMARK   11  A    between atoms: C_22  and  C_23
REMARK                            x       y       z     vdW  Elec       q    Type
REMARK                         _______ _______ _______ _____ _____    ______ ____
ROOT
ATOM      3  O   UNL     1       8.024   6.068  -4.233  0.00  0.00    -0.268 OA
ATOM      6  N   UNL     1       8.807   7.277  -2.431  0.00  0.00    -0.283 N 
ATOM     13  C   UNL     1       9.947   8.168  -0.542  0.00  0.00    +0.094 C 
ATOM     14  C   UNL     1      10.149   6.714  -2.465  0.00  0.00    +0.164 C 
ATOM     15  C   UNL     1      10.973   7.587  -1.520  0.00  0.00    +0.056 C 
ATOM     16  C   UNL     1       8.682   8.294  -1.384  0.00  0.00    +0.131 C 
ATOM     18  C   UNL     1       7.840   6.940  -3.383  0.00  0.00    +0.264 C 
ENDROOT
BRANCH  13   7
ATOM      4  O   UNL     1       9.946   8.980   2.205  0.00  0.00    -0.253 OA
ATOM      7  N   UNL     1       9.741   7.322   0.606  0.00  0.00    -0.295 N 
ATOM     10  N   UNL     1       9.528   6.754   2.822  0.00  0.00    -0.269 N 
ATOM     21  C   UNL     1       9.756   7.799   1.923  0.00  0.00    +0.304 C 
ATOM     43  H   UNL     1       9.645   6.322   0.458  0.00  0.00    +0.151 HD
ATOM     45  H   UNL     1       9.389   5.830   2.422  0.00  0.00    +0.156 HD
BRANCH  10  32
ATOM     32  C   UNL     1       9.466   6.820   4.234  0.00  0.00    +0.036 A 
ATOM     37  C   UNL     1      10.621   6.625   4.993  0.00  0.00    +0.038 A 
ATOM     38  C   UNL     1       8.251   7.082   4.867  0.00  0.00    +0.023 A 
ATOM     39  C   UNL     1      10.560   6.692   6.385  0.00  0.00    +0.009 A 
ATOM     40  C   UNL     1       8.190   7.147   6.259  0.00  0.00    +0.003 A 
ATOM     41  C   UNL     1       9.344   6.952   7.018  0.00  0.00    +0.015 A 
BRANCH  39   1
ATOM      1  S   UNL     1      12.034   6.444   7.356  0.00  0.00    -0.129 S 
ATOM     42  C   UNL     1      13.245   7.447   6.449  0.00  0.00    +0.090 C 
ENDBRANCH  39   1
ENDBRANCH  10  32
ENDBRANCH  13   7
BRANCH  18  20
ATOM      9  N   UNL     1       6.327   8.869  -3.892  0.00  0.00    -0.346 N 
ATOM     20  C   UNL     1       6.573   7.657  -3.303  0.00  0.00    +0.104 A 
ATOM     24  C   UNL     1       5.428   7.267  -2.644  0.00  0.00    +0.032 A 
ATOM     26  C   UNL     1       5.041   9.259  -3.619  0.00  0.00    +0.086 A 
ATOM     28  C   UNL     1       4.459   8.281  -2.843  0.00  0.00    +0.020 A 
ATOM     29  C   UNL     1       7.266   9.633  -4.684  0.00  0.00    +0.149 C 
ENDBRANCH  18  20
BRANCH  14  17
ATOM      2  O   UNL     1       9.672   5.001  -0.871  0.00  0.00    -0.274 OA
ATOM      8  N   UNL     1      10.577   4.404  -2.931  0.00  0.00    -0.302 N 
ATOM     17  C   UNL     1      10.092   5.294  -1.988  0.00  0.00    +0.234 C 
ATOM     44  H   UNL     1      10.818   4.751  -3.855  0.00  0.00    +0.150 HD
BRANCH   8  19
ATOM     19  C   UNL     1      10.651   2.978  -2.709  0.00  0.00    +0.163 C 
BRANCH  19  25
ATOM      5  O   UNL     1       9.526   2.735  -4.849  0.00  0.00    -0.274 OA
ATOM     12  N   UNL     1       9.120   1.176  -3.211  0.00  0.00    -0.328 N 
ATOM     25  C   UNL     1       9.709   2.320  -3.707  0.00  0.00    +0.231 C 
ATOM     47  H   UNL     1       9.300   0.832  -2.273  0.00  0.00    +0.145 HD
ATOM     48  H   UNL     1       8.480   0.632  -3.780  0.00  0.00    +0.145 HD
ENDBRANCH  19  25
BRANCH  19  22
ATOM     22  C   UNL     1      12.076   2.436  -2.880  0.00  0.00    +0.069 C 
BRANCH  22  23
ATOM     11  N   UNL     1      14.777   4.806  -2.102  0.00  0.00    -0.360 N 
ATOM     23  C   UNL     1      13.123   3.337  -2.289  0.00  0.00    -0.020 A 
ATOM     27  C   UNL     1      13.411   3.509  -0.906  0.00  0.00    +0.003 A 
ATOM     30  C   UNL     1      13.979   4.147  -2.999  0.00  0.00    +0.087 A 
ATOM     31  C   UNL     1      14.453   4.436  -0.816  0.00  0.00    +0.047 A 
ATOM     33  C   UNL     1      12.884   2.964   0.282  0.00  0.00    +0.010 A 
ATOM     34  C   UNL     1      14.995   4.845   0.407  0.00  0.00    +0.026 A 
ATOM     35  C   UNL     1      13.418   3.365   1.512  0.00  0.00    +0.001 A 
ATOM     36  C   UNL     1      14.456   4.291   1.572  0.00  0.00    +0.002 A 
ATOM     46  H   UNL     1      15.500   5.468  -2.346  0.00  0.00    +0.165 HD
ENDBRANCH  22  23
ENDBRANCH  19  22
ENDBRANCH   8  19
ENDBRANCH  14  17
TORSDOF 9
ENDMDL
MODEL 8
REMARK VINA RESULT:      -6.7     27.959     31.089
REMARK  Name = 11882032
REMARK  11 active torsions:
REMARK  status: ('A' for Active; 'I' for Inactive)
REMARK    1  A    between atoms: S_1  and  C_39
REMARK    2  A    between atoms: S_1  and  C_42
REMARK    3  A    between atoms: N_7  and  C_13
REMARK    4  A    between atoms: N_8  and  C_19
REMARK    5  A    between atoms: N_9  and  C_29
REMARK    6  A    between atoms: N_10  and  C_32
REMARK    7  A    between atoms: C_14  and  C_17
REMARK    8  A    between atoms: C_18  and  C_20
REMARK    9  A    between atoms: C_19  and  C_22
REMARK   10  A    between atoms: C_19  and  C_25
REMARK   11  A    between atoms: C_22  and  C_23
REMARK                            x       y       z     vdW  Elec       q    Type
REMARK                         _______ _______ _______ _____ _____    ______ ____
ROOT
ATOM      3  O   UNL     1      -3.477 -12.111  14.524  0.00  0.00    -0.268 OA
ATOM      6  N   UNL     1      -5.779 -12.257  14.515  0.00  0.00    -0.283 N 
ATOM     13  C   UNL     1      -8.110 -12.275  14.038  0.00  0.00    +0.094 C 
ATOM     14  C   UNL     1      -5.897 -12.433  13.075  0.00  0.00    +0.164 C 
ATOM     15  C   UNL     1      -7.348 -12.849  12.840  0.00  0.00    +0.056 C 
ATOM     16  C   UNL     1      -7.089 -12.324  15.169  0.00  0.00    +0.131 C 
ATOM     18  C   UNL     1      -4.536 -12.164  15.149  0.00  0.00    +0.264 C 
ENDROOT
BRANCH  13   7
ATOM      4  O   UNL     1     -10.050 -10.839  15.581  0.00  0.00    -0.253 OA
ATOM      7  N   UNL     1      -8.578 -10.933  13.800  0.00  0.00    -0.295 N 
ATOM     10  N   UNL     1      -9.789  -9.009  14.134  0.00  0.00    -0.269 N 
ATOM     21  C   UNL     1      -9.533 -10.299  14.606  0.00  0.00    +0.304 C 
ATOM     43  H   UNL     1      -8.248 -10.447  12.972  0.00  0.00    +0.151 HD
ATOM     45  H   UNL     1      -9.274  -8.714  13.309  0.00  0.00    +0.156 HD
BRANCH  10  32
ATOM     32  C   UNL     1     -10.685  -8.051  14.666  0.00  0.00    +0.036 A 
ATOM     37  C   UNL     1     -11.965  -7.918  14.127  0.00  0.00    +0.038 A 
ATOM     38  C   UNL     1     -10.287  -7.242  15.730  0.00  0.00    +0.023 A 
ATOM     39  C   UNL     1     -12.847  -6.974  14.652  0.00  0.00    +0.009 A 
ATOM     40  C   UNL     1     -11.170  -6.297  16.255  0.00  0.00    +0.003 A 
ATOM     41  C   UNL     1     -12.450  -6.163  15.716  0.00  0.00    +0.015 A 
BRANCH  39   1
ATOM      1  S   UNL     1     -14.483  -6.803  13.967  0.00  0.00    -0.129 S 
ATOM     42  C   UNL     1     -14.435  -5.108  13.318  0.00  0.00    +0.090 C 
ENDBRANCH  39   1
ENDBRANCH  10  32
ENDBRANCH  13   7
BRANCH  18  20
ATOM      9  N   UNL     1      -4.691 -13.187  17.429  0.00  0.00    -0.346 N 
ATOM     20  C   UNL     1      -4.554 -12.101  16.606  0.00  0.00    +0.104 A 
ATOM     24  C   UNL     1      -4.442 -10.981  17.398  0.00  0.00    +0.032 A 
ATOM     26  C   UNL     1      -4.668 -12.777  18.737  0.00  0.00    +0.086 A 
ATOM     28  C   UNL     1      -4.515 -11.408  18.747  0.00  0.00    +0.020 A 
ATOM     29  C   UNL     1      -4.838 -14.561  17.003  0.00  0.00    +0.149 C 
ENDBRANCH  18  20
BRANCH  14  17
ATOM      2  O   UNL     1      -6.337 -10.164  12.476  0.00  0.00    -0.274 OA
ATOM      8  N   UNL     1      -4.396 -11.180  11.692  0.00  0.00    -0.302 N 
ATOM     17  C   UNL     1      -5.584 -11.131  12.399  0.00  0.00    +0.234 C 
ATOM     44  H   UNL     1      -3.811 -12.008  11.770  0.00  0.00    +0.150 HD
BRANCH   8  19
ATOM     19  C   UNL     1      -3.880 -10.063  10.933  0.00  0.00    +0.163 C 
BRANCH  19  25
ATOM      5  O   UNL     1      -1.650  -9.109  10.785  0.00  0.00    -0.274 OA
ATOM     12  N   UNL     1      -2.106 -10.576  12.493  0.00  0.00    -0.328 N 
ATOM     25  C   UNL     1      -2.433  -9.862  11.360  0.00  0.00    +0.231 C 
ATOM     47  H   UNL     1      -2.770 -11.176  12.971  0.00  0.00    +0.145 HD
ATOM     48  H   UNL     1      -1.174 -10.521  12.892  0.00  0.00    +0.145 HD
ENDBRANCH  19  25
BRANCH  19  22
ATOM     22  C   UNL     1      -3.964 -10.299   9.421  0.00  0.00    +0.069 C 
BRANCH  22  23
ATOM     11  N   UNL     1      -6.804  -8.182   8.437  0.00  0.00    -0.360 N 
ATOM     23  C   UNL     1      -5.120  -9.587   8.777  0.00  0.00    -0.020 A 
ATOM     27  C   UNL     1      -5.668  -9.852   7.491  0.00  0.00    +0.003 A 
ATOM     30  C   UNL     1      -5.840  -8.555   9.334  0.00  0.00    +0.087 A 
ATOM     31  C   UNL     1      -6.723  -8.957   7.302  0.00  0.00    +0.047 A 
ATOM     33  C   UNL     1      -5.367 -10.771   6.465  0.00  0.00    +0.010 A 
ATOM     34  C   UNL     1      -7.495  -8.935   6.135  0.00  0.00    +0.026 A 
ATOM     35  C   UNL     1      -6.131 -10.759   5.293  0.00  0.00    +0.001 A 
ATOM     36  C   UNL     1      -7.177  -9.855   5.132  0.00  0.00    +0.002 A 
ATOM     46  H   UNL     1      -7.479  -7.445   8.585  0.00  0.00    +0.165 HD
ENDBRANCH  22  23
ENDBRANCH  19  22
ENDBRANCH   8  19
ENDBRANCH  14  17
TORSDOF 9
ENDMDL
MODEL 9
REMARK VINA RESULT:      -6.6     14.588     17.756
REMARK  Name = 11882032
REMARK  11 active torsions:
REMARK  status: ('A' for Active; 'I' for Inactive)
REMARK    1  A    between atoms: S_1  and  C_39
REMARK    2  A    between atoms: S_1  and  C_42
REMARK    3  A    between atoms: N_7  and  C_13
REMARK    4  A    between atoms: N_8  and  C_19
REMARK    5  A    between atoms: N_9  and  C_29
REMARK    6  A    between atoms: N_10  and  C_32
REMARK    7  A    between atoms: C_14  and  C_17
REMARK    8  A    between atoms: C_18  and  C_20
REMARK    9  A    between atoms: C_19  and  C_22
REMARK   10  A    between atoms: C_19  and  C_25
REMARK   11  A    between atoms: C_22  and  C_23
REMARK                            x       y       z     vdW  Elec       q    Type
REMARK                         _______ _______ _______ _____ _____    ______ ____
ROOT
ATOM      3  O   UNL     1       9.901   7.710   4.160  0.00  0.00    -0.268 OA
ATOM      6  N   UNL     1      11.651   8.586   5.382  0.00  0.00    -0.283 N 
ATOM     13  C   UNL     1      13.617   9.641   6.208  0.00  0.00    +0.094 C 
ATOM     14  C   UNL     1      12.030   9.575   4.383  0.00  0.00    +0.164 C 
ATOM     15  C   UNL     1      13.016  10.502   5.093  0.00  0.00    +0.056 C 
ATOM     16  C   UNL     1      12.480   8.699   6.585  0.00  0.00    +0.131 C 
ATOM     18  C   UNL     1      10.547   7.746   5.208  0.00  0.00    +0.264 C 
ENDROOT
BRANCH  13   7
ATOM      4  O   UNL     1      16.347  10.435   6.558  0.00  0.00    -0.253 OA
ATOM      7  N   UNL     1      14.787   8.919   5.775  0.00  0.00    -0.295 N 
ATOM     10  N   UNL     1      17.018   8.471   5.460  0.00  0.00    -0.269 N 
ATOM     21  C   UNL     1      16.093   9.377   5.986  0.00  0.00    +0.304 C 
ATOM     43  H   UNL     1      14.657   8.069   5.234  0.00  0.00    +0.151 HD
ATOM     45  H   UNL     1      16.640   7.639   5.015  0.00  0.00    +0.156 HD
BRANCH  10  32
ATOM     32  C   UNL     1      18.430   8.567   5.470  0.00  0.00    +0.036 A 
ATOM     37  C   UNL     1      19.126   8.734   4.272  0.00  0.00    +0.038 A 
ATOM     38  C   UNL     1      19.125   8.496   6.676  0.00  0.00    +0.023 A 
ATOM     39  C   UNL     1      20.517   8.830   4.281  0.00  0.00    +0.009 A 
ATOM     40  C   UNL     1      20.517   8.590   6.686  0.00  0.00    +0.003 A 
ATOM     41  C   UNL     1      21.213   8.757   5.489  0.00  0.00    +0.015 A 
BRANCH  39   1
ATOM      1  S   UNL     1      21.408   9.045   2.752  0.00  0.00    -0.129 S 
ATOM     42  C   UNL     1      20.648   7.774   1.701  0.00  0.00    +0.090 C 
ENDBRANCH  39   1
ENDBRANCH  10  32
ENDBRANCH  13   7
BRANCH  18  20
ATOM      9  N   UNL     1       9.515   7.278   7.440  0.00  0.00    -0.346 N 
ATOM     20  C   UNL     1      10.209   6.878   6.329  0.00  0.00    +0.104 A 
ATOM     24  C   UNL     1      10.513   5.543   6.479  0.00  0.00    +0.032 A 
ATOM     26  C   UNL     1       9.370   6.218   8.298  0.00  0.00    +0.086 A 
ATOM     28  C   UNL     1       9.983   5.126   7.725  0.00  0.00    +0.020 A 
ATOM     29  C   UNL     1       9.004   8.609   7.688  0.00  0.00    +0.149 C 
ENDBRANCH  18  20
BRANCH  14  17
ATOM      2  O   UNL     1      13.090   9.487   2.245  0.00  0.00    -0.274 OA
ATOM      8  N   UNL     1      12.711   7.501   3.400  0.00  0.00    -0.302 N 
ATOM     17  C   UNL     1      12.674   8.874   3.225  0.00  0.00    +0.234 C 
ATOM     44  H   UNL     1      12.416   7.111   4.290  0.00  0.00    +0.150 HD
BRANCH   8  19
ATOM     19  C   UNL     1      13.260   6.594   2.418  0.00  0.00    +0.163 C 
BRANCH  19  25
ATOM      5  O   UNL     1      15.270   6.709   3.779  0.00  0.00    -0.274 OA
ATOM     12  N   UNL     1      15.471   6.103   1.572  0.00  0.00    -0.328 N 
ATOM     25  C   UNL     1      14.756   6.499   2.682  0.00  0.00    +0.231 C 
ATOM     47  H   UNL     1      15.030   5.911   0.679  0.00  0.00    +0.145 HD
ATOM     48  H   UNL     1      16.479   5.988   1.616  0.00  0.00    +0.145 HD
ENDBRANCH  19  25
BRANCH  19  22
ATOM     22  C   UNL     1      12.616   5.204   2.486  0.00  0.00    +0.069 C 
BRANCH  22  23
ATOM     11  N   UNL     1       9.884   4.723   0.073  0.00  0.00    -0.360 N 
ATOM     23  C   UNL     1      11.707   4.918   1.324  0.00  0.00    -0.020 A 
ATOM     27  C   UNL     1      12.094   4.422   0.047  0.00  0.00    +0.003 A 
ATOM     30  C   UNL     1      10.343   5.094   1.309  0.00  0.00    +0.087 A 
ATOM     31  C   UNL     1      10.931   4.308  -0.718  0.00  0.00    +0.047 A 
ATOM     33  C   UNL     1      13.326   4.056  -0.532  0.00  0.00    +0.010 A 
ATOM     34  C   UNL     1      10.939   3.846  -2.039  0.00  0.00    +0.026 A 
ATOM     35  C   UNL     1      13.348   3.593  -1.852  0.00  0.00    +0.001 A 
ATOM     36  C   UNL     1      12.172   3.490  -2.592  0.00  0.00    +0.002 A 
ATOM     46  H   UNL     1       8.917   4.750  -0.217  0.00  0.00    +0.165 HD
ENDBRANCH  22  23
ENDBRANCH  19  22
ENDBRANCH   8  19
ENDBRANCH  14  17
TORSDOF 9
ENDMDL
MODEL 10
REMARK VINA RESULT:      -6.6      2.358      7.131
REMARK  Name = 11882032
REMARK  11 active torsions:
REMARK  status: ('A' for Active; 'I' for Inactive)
REMARK    1  A    between atoms: S_1  and  C_39
REMARK    2  A    between atoms: S_1  and  C_42
REMARK    3  A    between atoms: N_7  and  C_13
REMARK    4  A    between atoms: N_8  and  C_19
REMARK    5  A    between atoms: N_9  and  C_29
REMARK    6  A    between atoms: N_10  and  C_32
REMARK    7  A    between atoms: C_14  and  C_17
REMARK    8  A    between atoms: C_18  and  C_20
REMARK    9  A    between atoms: C_19  and  C_22
REMARK   10  A    between atoms: C_19  and  C_25
REMARK   11  A    between atoms: C_22  and  C_23
REMARK                            x       y       z     vdW  Elec       q    Type
REMARK                         _______ _______ _______ _____ _____    ______ ____
ROOT
ATOM      3  O   UNL     1      12.155  10.591  19.227  0.00  0.00    -0.268 OA
ATOM      6  N   UNL     1      13.474   8.710  19.438  0.00  0.00    -0.283 N 
ATOM     13  C   UNL     1      14.718   6.803  20.129  0.00  0.00    +0.094 C 
ATOM     14  C   UNL     1      12.872   8.264  20.687  0.00  0.00    +0.164 C 
ATOM     15  C   UNL     1      13.393   6.843  20.896  0.00  0.00    +0.056 C 
ATOM     16  C   UNL     1      14.488   7.763  18.967  0.00  0.00    +0.131 C 
ATOM     18  C   UNL     1      13.014   9.843  18.759  0.00  0.00    +0.264 C 
ENDROOT
BRANCH  13   7
ATOM      4  O   UNL     1      17.488   6.294  19.608  0.00  0.00    -0.253 OA
ATOM      7  N   UNL     1      15.836   7.208  20.942  0.00  0.00    -0.295 N 
ATOM     10  N   UNL     1      18.030   7.436  21.586  0.00  0.00    -0.269 N 
ATOM     21  C   UNL     1      17.167   6.919  20.615  0.00  0.00    +0.304 C 
ATOM     43  H   UNL     1      15.647   7.670  21.827  0.00  0.00    +0.151 HD
ATOM     45  H   UNL     1      17.600   7.929  22.363  0.00  0.00    +0.156 HD
BRANCH  10  32
ATOM     32  C   UNL     1      19.443   7.357  21.622  0.00  0.00    +0.036 A 
ATOM     37  C   UNL     1      20.066   6.156  21.964  0.00  0.00    +0.038 A 
ATOM     38  C   UNL     1      20.211   8.480  21.317  0.00  0.00    +0.023 A 
ATOM     39  C   UNL     1      21.458   6.078  21.999  0.00  0.00    +0.009 A 
ATOM     40  C   UNL     1      21.604   8.403  21.354  0.00  0.00    +0.003 A 
ATOM     41  C   UNL     1      22.227   7.203  21.694  0.00  0.00    +0.015 A 
BRANCH  39   1
ATOM      1  S   UNL     1      22.256   4.545  22.433  0.00  0.00    -0.129 S 
ATOM     42  C   UNL     1      23.293   4.244  20.973  0.00  0.00    +0.090 C 
ENDBRANCH  39   1
ENDBRANCH  10  32
ENDBRANCH  13   7
BRANCH  18  20
ATOM      9  N   UNL     1      13.071   9.795  16.256  0.00  0.00    -0.346 N 
ATOM     20  C   UNL     1      13.628  10.118  17.466  0.00  0.00    +0.104 A 
ATOM     24  C   UNL     1      14.837  10.729  17.224  0.00  0.00    +0.032 A 
ATOM     26  C   UNL     1      13.907  10.192  15.245  0.00  0.00    +0.086 A 
ATOM     28  C   UNL     1      15.015  10.775  15.820  0.00  0.00    +0.020 A 
ATOM     29  C   UNL     1      11.797   9.138  16.057  0.00  0.00    +0.149 C 
ENDBRANCH  18  20
BRANCH  14  17
ATOM      2  O   UNL     1      14.341   8.972  22.431  0.00  0.00    -0.274 OA
ATOM      8  N   UNL     1      12.426  10.221  21.993  0.00  0.00    -0.302 N 
ATOM     17  C   UNL     1      13.313   9.177  21.791  0.00  0.00    +0.234 C 
ATOM     44  H   UNL     1      11.652  10.340  21.346  0.00  0.00    +0.150 HD
BRANCH   8  19
ATOM     19  C   UNL     1      12.609  11.228  23.014  0.00  0.00    +0.163 C 
BRANCH  19  25
ATOM      5  O   UNL     1      13.551  13.385  22.409  0.00  0.00    -0.274 OA
ATOM     12  N   UNL     1      11.522  12.781  21.514  0.00  0.00    -0.328 N 
ATOM     25  C   UNL     1      12.628  12.578  22.312  0.00  0.00    +0.231 C 
ATOM     47  H   UNL     1      10.780  12.096  21.426  0.00  0.00    +0.145 HD
ATOM     48  H   UNL     1      11.417  13.637  20.979  0.00  0.00    +0.145 HD
ENDBRANCH  19  25
BRANCH  19  22
ATOM     22  C   UNL     1      11.501  11.190  24.073  0.00  0.00    +0.069 C 
BRANCH  22  23
ATOM     11  N   UNL     1      10.947  14.127  26.213  0.00  0.00    -0.360 N 
ATOM     23  C   UNL     1      11.550  12.357  25.018  0.00  0.00    -0.020 A 
ATOM     27  C   UNL     1      12.678  12.794  25.767  0.00  0.00    +0.003 A 
ATOM     30  C   UNL     1      10.501  13.196  25.314  0.00  0.00    +0.087 A 
ATOM     31  C   UNL     1      12.273  13.906  26.508  0.00  0.00    +0.047 A 
ATOM     33  C   UNL     1      14.010  12.349  25.886  0.00  0.00    +0.010 A 
ATOM     34  C   UNL     1      13.137  14.598  27.365  0.00  0.00    +0.026 A 
ATOM     35  C   UNL     1      14.884  13.031  26.739  0.00  0.00    +0.001 A 
ATOM     36  C   UNL     1      14.453  14.137  27.467  0.00  0.00    +0.002 A 
ATOM     46  H   UNL     1      10.385  14.870  26.605  0.00  0.00    +0.165 HD
ENDBRANCH  22  23
ENDBRANCH  19  22
ENDBRANCH   8  19
ENDBRANCH  14  17
TORSDOF 9
ENDMDL
