MODEL 1
REMARK VINA RESULT:      -6.1      0.000      0.000
REMARK  Name = 28960185
REMARK  11 active torsions:
REMARK  status: ('A' for Active; 'I' for Inactive)
REMARK    1  A    between atoms: O_2  and  C_22
REMARK    2  A    between atoms: N_6  and  C_19
REMARK    3  A    between atoms: N_6  and  C_23
REMARK    4  A    between atoms: N_6  and  C_25
REMARK    5  A    between atoms: N_7  and  C_24
REMARK    6  A    between atoms: C_8  and  C_13
REMARK    7  A    between atoms: C_9  and  C_15
REMARK    8  A    between atoms: C_13  and  C_19
REMARK    9  A    between atoms: C_14  and  C_16
REMARK   10  A    between atoms: C_15  and  C_22
REMARK   11  A    between atoms: C_23  and  C_24
REMARK                            x       y       z     vdW  Elec       q    Type
REMARK                         _______ _______ _______ _____ _____    ______ ____
ROOT
ATOM      1  O   UNL     1      -2.006  -9.924  12.015  0.00  0.00    -0.275 OA
ATOM      5  N   UNL     1      -3.057 -11.301  13.572  0.00  0.00    -0.301 N 
ATOM      8  C   UNL     1      -4.728 -11.680  15.369  0.00  0.00    +0.012 C 
ATOM      9  C   UNL     1      -3.569 -11.664  16.398  0.00  0.00    +0.006 C 
ATOM     10  C   UNL     1      -4.198 -12.122  13.993  0.00  0.00    +0.111 C 
ATOM     11  C   UNL     1      -2.375 -10.833  15.894  0.00  0.00    +0.023 C 
ATOM     12  C   UNL     1      -1.931 -11.286  14.506  0.00  0.00    +0.108 C 
ATOM     16  C   UNL     1      -2.976 -10.589  12.372  0.00  0.00    +0.219 C 
ENDROOT
BRANCH  16  14
ATOM     14  C   UNL     1      -4.162 -10.643  11.459  0.00  0.00    +0.075 C 
ATOM     17  C   UNL     1      -3.713 -10.547   9.997  0.00  0.00    +0.013 C 
ATOM     18  C   UNL     1      -5.086  -9.448  11.703  0.00  0.00    +0.013 C 
ATOM     20  C   UNL     1      -4.466  -9.360   9.407  0.00  0.00    +0.001 C 
ATOM     21  C   UNL     1      -4.733  -8.460  10.600  0.00  0.00    +0.001 C 
ENDBRANCH  16  14
BRANCH   8  13
ATOM     13  C   UNL     1      -5.474 -10.345  15.248  0.00  0.00    +0.024 C 
BRANCH  13  19
ATOM     19  C   UNL     1      -6.962 -10.533  15.002  0.00  0.00    +0.105 C 
BRANCH  19   6
ATOM      6  N   UNL     1      -7.727 -10.175  16.173  0.00  0.00    -0.329 N 
BRANCH   6  25
ATOM     25  C   UNL     1      -7.653 -10.928  17.352  0.00  0.00    +0.030 A 
ATOM     28  C   UNL     1      -7.311 -10.309  18.555  0.00  0.00    +0.023 A 
ATOM     29  C   UNL     1      -7.921 -12.296  17.324  0.00  0.00    +0.023 A 
ATOM     32  C   UNL     1      -7.238 -11.059  19.729  0.00  0.00    +0.002 A 
ATOM     33  C   UNL     1      -7.848 -13.046  18.498  0.00  0.00    +0.002 A 
ATOM     34  C   UNL     1      -7.506 -12.427  19.700  0.00  0.00    +0.000 A 
ENDBRANCH   6  25
BRANCH   6  23
ATOM     23  C   UNL     1      -8.600  -9.002  16.106  0.00  0.00    +0.120 C 
BRANCH  23  24
ATOM     24  C   UNL     1      -9.960  -9.406  15.550  0.00  0.00    +0.103 C 
BRANCH  24   7
ATOM      4  O   UNL     1     -13.545  -9.386  17.731  0.00  0.00    -0.377 OA
ATOM      7  N   UNL     1     -11.025  -9.001  16.464  0.00  0.00    -0.297 NA
ATOM     26  C   UNL     1     -11.206  -9.999  17.529  0.00  0.00    +0.112 C 
ATOM     27  C   UNL     1     -12.288  -8.805  15.739  0.00  0.00    +0.112 C 
ATOM     30  C   UNL     1     -12.331  -9.561  18.462  0.00  0.00    +0.175 C 
ATOM     31  C   UNL     1     -13.386  -8.394  16.715  0.00  0.00    +0.175 C 
ENDBRANCH  24   7
ENDBRANCH  23  24
ENDBRANCH   6  23
ENDBRANCH  19   6
ENDBRANCH  13  19
ENDBRANCH   8  13
BRANCH   9  15
ATOM     15  C   UNL     1      -4.004 -11.193  17.786  0.00  0.00    +0.124 C 
BRANCH  15  22
ATOM      3  O   UNL     1      -3.347 -12.170  19.921  0.00  0.00    -0.251 OA
ATOM     22  C   UNL     1      -3.852 -12.280  18.813  0.00  0.00    +0.305 C 
BRANCH  22   2
ATOM      2  O   UNL     1      -4.368 -13.440  18.332  0.00  0.00    -0.481 OA
ATOM     35  H   UNL     1      -4.785 -13.318  17.452  0.00  0.00    +0.295 HD
ENDBRANCH  22   2
ENDBRANCH  15  22
ENDBRANCH   9  15
TORSDOF 11
ENDMDL
MODEL 2
REMARK VINA RESULT:      -5.8      2.348      7.229
REMARK  Name = 28960185
REMARK  11 active torsions:
REMARK  status: ('A' for Active; 'I' for Inactive)
REMARK    1  A    between atoms: O_2  and  C_22
REMARK    2  A    between atoms: N_6  and  C_19
REMARK    3  A    between atoms: N_6  and  C_23
REMARK    4  A    between atoms: N_6  and  C_25
REMARK    5  A    between atoms: N_7  and  C_24
REMARK    6  A    between atoms: C_8  and  C_13
REMARK    7  A    between atoms: C_9  and  C_15
REMARK    8  A    between atoms: C_13  and  C_19
REMARK    9  A    between atoms: C_14  and  C_16
REMARK   10  A    between atoms: C_15  and  C_22
REMARK   11  A    between atoms: C_23  and  C_24
REMARK                            x       y       z     vdW  Elec       q    Type
REMARK                         _______ _______ _______ _____ _____    ______ ____
ROOT
ATOM      1  O   UNL     1      -7.998 -11.319  20.033  0.00  0.00    -0.275 OA
ATOM      5  N   UNL     1      -6.757 -10.402  18.290  0.00  0.00    -0.301 N 
ATOM      8  C   UNL     1      -5.778 -10.527  16.011  0.00  0.00    +0.012 C 
ATOM      9  C   UNL     1      -4.392 -10.772  16.661  0.00  0.00    +0.006 C 
ATOM     10  C   UNL     1      -6.678  -9.741  16.982  0.00  0.00    +0.111 C 
ATOM     11  C   UNL     1      -4.525 -11.421  18.050  0.00  0.00    +0.023 C 
ATOM     12  C   UNL     1      -5.469 -10.624  18.946  0.00  0.00    +0.108 C 
ATOM     16  C   UNL     1      -7.939 -10.788  18.927  0.00  0.00    +0.219 C 
ENDROOT
BRANCH  16  14
ATOM     14  C   UNL     1      -9.225 -10.537  18.201  0.00  0.00    +0.075 C 
ATOM     17  C   UNL     1     -10.340 -10.197  19.197  0.00  0.00    +0.013 C 
ATOM     18  C   UNL     1      -9.681 -11.794  17.459  0.00  0.00    +0.013 C 
ATOM     20  C   UNL     1     -11.453 -11.206  18.935  0.00  0.00    +0.001 C 
ATOM     21  C   UNL     1     -10.733 -12.415  18.368  0.00  0.00    +0.001 C 
ENDBRANCH  16  14
BRANCH   8  13
ATOM     13  C   UNL     1      -6.485 -11.806  15.546  0.00  0.00    +0.024 C 
BRANCH  13  19
ATOM     19  C   UNL     1      -6.611 -11.883  14.033  0.00  0.00    +0.105 C 
BRANCH  19   6
ATOM      6  N   UNL     1      -7.395 -10.782  13.526  0.00  0.00    -0.329 N 
BRANCH   6  25
ATOM     25  C   UNL     1      -8.736 -10.608  13.895  0.00  0.00    +0.030 A 
ATOM     28  C   UNL     1      -9.153  -9.402  14.459  0.00  0.00    +0.023 A 
ATOM     29  C   UNL     1      -9.653 -11.640  13.700  0.00  0.00    +0.023 A 
ATOM     32  C   UNL     1     -10.488  -9.228  14.826  0.00  0.00    +0.002 A 
ATOM     33  C   UNL     1     -10.987 -11.467  14.067  0.00  0.00    +0.002 A 
ATOM     34  C   UNL     1     -11.405 -10.261  14.630  0.00  0.00    +0.000 A 
ENDBRANCH   6  25
BRANCH   6  23
ATOM     23  C   UNL     1      -6.762  -9.841  12.601  0.00  0.00    +0.120 C 
BRANCH  23  24
ATOM     24  C   UNL     1      -6.811 -10.403  11.186  0.00  0.00    +0.103 C 
BRANCH  24   7
ATOM      4  O   UNL     1      -2.965  -9.038  10.207  0.00  0.00    -0.377 OA
ATOM      7  N   UNL     1      -5.504 -10.280  10.544  0.00  0.00    -0.297 NA
ATOM     26  C   UNL     1      -4.423 -10.464  11.522  0.00  0.00    +0.112 C 
ATOM     27  C   UNL     1      -5.369  -8.974   9.884  0.00  0.00    +0.112 C 
ATOM     30  C   UNL     1      -3.070 -10.318  10.832  0.00  0.00    +0.175 C 
ATOM     31  C   UNL     1      -3.994  -8.865   9.231  0.00  0.00    +0.175 C 
ENDBRANCH  24   7
ENDBRANCH  23  24
ENDBRANCH   6  23
ENDBRANCH  19   6
ENDBRANCH  13  19
ENDBRANCH   8  13
BRANCH   9  15
ATOM     15  C   UNL     1      -3.449 -11.586  15.775  0.00  0.00    +0.124 C 
BRANCH  15  22
ATOM      3  O   UNL     1      -1.829 -10.242  14.546  0.00  0.00    -0.251 OA
ATOM     22  C   UNL     1      -2.148 -10.870  15.544  0.00  0.00    +0.305 C 
BRANCH  22   2
ATOM      2  O   UNL     1      -1.346 -11.016  16.631  0.00  0.00    -0.481 OA
ATOM     35  H   UNL     1      -0.548 -10.448  16.576  0.00  0.00    +0.295 HD
ENDBRANCH  22   2
ENDBRANCH  15  22
ENDBRANCH   9  15
TORSDOF 11
ENDMDL
MODEL 3
REMARK VINA RESULT:      -5.7     24.251     27.988
REMARK  Name = 28960185
REMARK  11 active torsions:
REMARK  status: ('A' for Active; 'I' for Inactive)
REMARK    1  A    between atoms: O_2  and  C_22
REMARK    2  A    between atoms: N_6  and  C_19
REMARK    3  A    between atoms: N_6  and  C_23
REMARK    4  A    between atoms: N_6  and  C_25
REMARK    5  A    between atoms: N_7  and  C_24
REMARK    6  A    between atoms: C_8  and  C_13
REMARK    7  A    between atoms: C_9  and  C_15
REMARK    8  A    between atoms: C_13  and  C_19
REMARK    9  A    between atoms: C_14  and  C_16
REMARK   10  A    between atoms: C_15  and  C_22
REMARK   11  A    between atoms: C_23  and  C_24
REMARK                            x       y       z     vdW  Elec       q    Type
REMARK                         _______ _______ _______ _____ _____    ______ ____
ROOT
ATOM      1  O   UNL     1       7.480  10.014   3.754  0.00  0.00    -0.275 OA
ATOM      5  N   UNL     1       9.160   8.815   4.831  0.00  0.00    -0.301 N 
ATOM      8  C   UNL     1      10.466   6.733   5.187  0.00  0.00    +0.012 C 
ATOM      9  C   UNL     1       9.677   6.509   6.503  0.00  0.00    +0.006 C 
ATOM     10  C   UNL     1      10.508   8.235   4.854  0.00  0.00    +0.111 C 
ATOM     11  C   UNL     1       8.291   7.175   6.453  0.00  0.00    +0.023 C 
ATOM     12  C   UNL     1       8.397   8.647   6.068  0.00  0.00    +0.108 C 
ATOM     16  C   UNL     1       8.600   9.510   3.756  0.00  0.00    +0.219 C 
ENDROOT
BRANCH  16  14
ATOM     14  C   UNL     1       9.431   9.645   2.517  0.00  0.00    +0.075 C 
ATOM     17  C   UNL     1       9.139  10.980   1.823  0.00  0.00    +0.013 C 
ATOM     18  C   UNL     1       9.077   8.551   1.507  0.00  0.00    +0.013 C 
ATOM     20  C   UNL     1       8.721  10.627   0.400  0.00  0.00    +0.001 C 
ATOM     21  C   UNL     1       8.138   9.231   0.520  0.00  0.00    +0.001 C 
ENDBRANCH  16  14
BRANCH   8  13
ATOM     13  C   UNL     1       9.925   5.937   3.992  0.00  0.00    +0.024 C 
BRANCH  13  19
ATOM     19  C   UNL     1      10.664   4.624   3.786  0.00  0.00    +0.105 C 
BRANCH  19   6
ATOM      6  N   UNL     1      11.081   4.478   2.412  0.00  0.00    -0.329 N 
BRANCH   6  25
ATOM     25  C   UNL     1      12.431   4.565   2.045  0.00  0.00    +0.030 A 
ATOM     28  C   UNL     1      13.118   3.422   1.636  0.00  0.00    +0.023 A 
ATOM     29  C   UNL     1      13.088   5.795   2.089  0.00  0.00    +0.023 A 
ATOM     32  C   UNL     1      14.462   3.509   1.270  0.00  0.00    +0.002 A 
ATOM     33  C   UNL     1      14.430   5.883   1.723  0.00  0.00    +0.002 A 
ATOM     34  C   UNL     1      15.118   4.740   1.314  0.00  0.00    +0.000 A 
ENDBRANCH   6  25
BRANCH   6  23
ATOM     23  C   UNL     1      10.059   4.242   1.392  0.00  0.00    +0.120 C 
BRANCH  23  24
ATOM     24  C   UNL     1      10.302   5.161   0.201  0.00  0.00    +0.103 C 
BRANCH  24   7
ATOM      4  O   UNL     1      10.321   4.064  -3.850  0.00  0.00    -0.377 OA
ATOM      7  N   UNL     1      10.010   4.462  -1.049  0.00  0.00    -0.297 NA
ATOM     26  C   UNL     1      11.229   3.862  -1.609  0.00  0.00    +0.112 C 
ATOM     27  C   UNL     1       9.403   5.375  -2.027  0.00  0.00    +0.112 C 
ATOM     30  C   UNL     1      10.901   3.151  -2.918  0.00  0.00    +0.175 C 
ATOM     31  C   UNL     1       9.117   4.627  -3.325  0.00  0.00    +0.175 C 
ENDBRANCH  24   7
ENDBRANCH  23  24
ENDBRANCH   6  23
ENDBRANCH  19   6
ENDBRANCH  13  19
ENDBRANCH   8  13
BRANCH   9  15
ATOM     15  C   UNL     1       9.552   5.033   6.884  0.00  0.00    +0.124 C 
BRANCH  15  22
ATOM      3  O   UNL     1       9.202   5.495   9.252  0.00  0.00    -0.251 OA
ATOM     22  C   UNL     1       9.711   4.827   8.364  0.00  0.00    +0.305 C 
BRANCH  22   2
ATOM      2  O   UNL     1      10.524   3.763   8.593  0.00  0.00    -0.481 OA
ATOM     35  H   UNL     1      10.057   3.041   9.067  0.00  0.00    +0.295 HD
ENDBRANCH  22   2
ENDBRANCH  15  22
ENDBRANCH   9  15
TORSDOF 11
ENDMDL
MODEL 4
REMARK VINA RESULT:      -5.5     25.522     29.430
REMARK  Name = 28960185
REMARK  11 active torsions:
REMARK  status: ('A' for Active; 'I' for Inactive)
REMARK    1  A    between atoms: O_2  and  C_22
REMARK    2  A    between atoms: N_6  and  C_19
REMARK    3  A    between atoms: N_6  and  C_23
REMARK    4  A    between atoms: N_6  and  C_25
REMARK    5  A    between atoms: N_7  and  C_24
REMARK    6  A    between atoms: C_8  and  C_13
REMARK    7  A    between atoms: C_9  and  C_15
REMARK    8  A    between atoms: C_13  and  C_19
REMARK    9  A    between atoms: C_14  and  C_16
REMARK   10  A    between atoms: C_15  and  C_22
REMARK   11  A    between atoms: C_23  and  C_24
REMARK                            x       y       z     vdW  Elec       q    Type
REMARK                         _______ _______ _______ _____ _____    ______ ____
ROOT
ATOM      1  O   UNL     1      12.637   6.249   7.596  0.00  0.00    -0.275 OA
ATOM      5  N   UNL     1      13.375   7.954   6.192  0.00  0.00    -0.301 N 
ATOM      8  C   UNL     1      13.874   8.853   3.932  0.00  0.00    +0.012 C 
ATOM      9  C   UNL     1      15.383   8.658   4.230  0.00  0.00    +0.006 C 
ATOM     10  C   UNL     1      13.103   9.046   5.250  0.00  0.00    +0.111 C 
ATOM     11  C   UNL     1      15.617   7.538   5.258  0.00  0.00    +0.023 C 
ATOM     12  C   UNL     1      14.787   7.760   6.519  0.00  0.00    +0.108 C 
ATOM     16  C   UNL     1      12.403   7.145   6.789  0.00  0.00    +0.219 C 
ENDROOT
BRANCH  16  14
ATOM     14  C   UNL     1      10.975   7.392   6.411  0.00  0.00    +0.075 C 
ATOM     17  C   UNL     1      10.303   8.305   7.442  0.00  0.00    +0.013 C 
ATOM     18  C   UNL     1      10.182   6.085   6.413  0.00  0.00    +0.013 C 
ATOM     20  C   UNL     1       9.081   7.540   7.939  0.00  0.00    +0.001 C 
ATOM     21  C   UNL     1       9.453   6.081   7.750  0.00  0.00    +0.001 C 
ENDBRANCH  16  14
BRANCH   8  13
ATOM     13  C   UNL     1      13.249   7.719   3.110  0.00  0.00    +0.024 C 
BRANCH  13  19
ATOM     19  C   UNL     1      12.333   8.234   2.011  0.00  0.00    +0.105 C 
BRANCH  19   6
ATOM      6  N   UNL     1      11.026   7.630   2.104  0.00  0.00    -0.329 N 
BRANCH   6  25
ATOM     25  C   UNL     1      10.027   8.171   2.924  0.00  0.00    +0.030 A 
ATOM     28  C   UNL     1      10.126   9.490   3.368  0.00  0.00    +0.023 A 
ATOM     29  C   UNL     1       8.932   7.392   3.296  0.00  0.00    +0.023 A 
ATOM     32  C   UNL     1       9.131  10.029   4.183  0.00  0.00    +0.002 A 
ATOM     33  C   UNL     1       7.936   7.930   4.111  0.00  0.00    +0.002 A 
ATOM     34  C   UNL     1       8.036   9.249   4.555  0.00  0.00    +0.000 A 
ENDBRANCH   6  25
BRANCH   6  23
ATOM     23  C   UNL     1      10.758   6.420   1.325  0.00  0.00    +0.120 C 
BRANCH  23  24
ATOM     24  C   UNL     1      11.794   6.286   0.216  0.00  0.00    +0.103 C 
BRANCH  24   7
ATOM      4  O   UNL     1      14.275   3.233   1.678  0.00  0.00    -0.377 OA
ATOM      7  N   UNL     1      12.507   5.016   0.337  0.00  0.00    -0.297 NA
ATOM     26  C   UNL     1      12.101   4.304   1.558  0.00  0.00    +0.112 C 
ATOM     27  C   UNL     1      13.960   5.232   0.341  0.00  0.00    +0.112 C 
ATOM     30  C   UNL     1      12.868   2.990   1.670  0.00  0.00    +0.175 C 
ATOM     31  C   UNL     1      14.682   3.895   0.480  0.00  0.00    +0.175 C 
ENDBRANCH  24   7
ENDBRANCH  23  24
ENDBRANCH   6  23
ENDBRANCH  19   6
ENDBRANCH  13  19
ENDBRANCH   8  13
BRANCH   9  15
ATOM     15  C   UNL     1      16.217   8.416   2.971  0.00  0.00    +0.124 C 
BRANCH  15  22
ATOM      3  O   UNL     1      18.134   9.629   3.865  0.00  0.00    -0.251 OA
ATOM     22  C   UNL     1      17.673   8.709   3.207  0.00  0.00    +0.305 C 
BRANCH  22   2
ATOM      2  O   UNL     1      18.435   7.783   2.568  0.00  0.00    -0.481 OA
ATOM     35  H   UNL     1      19.256   8.174   2.202  0.00  0.00    +0.295 HD
ENDBRANCH  22   2
ENDBRANCH  15  22
ENDBRANCH   9  15
TORSDOF 11
ENDMDL
MODEL 5
REMARK VINA RESULT:      -5.5      2.261      7.902
REMARK  Name = 28960185
REMARK  11 active torsions:
REMARK  status: ('A' for Active; 'I' for Inactive)
REMARK    1  A    between atoms: O_2  and  C_22
REMARK    2  A    between atoms: N_6  and  C_19
REMARK    3  A    between atoms: N_6  and  C_23
REMARK    4  A    between atoms: N_6  and  C_25
REMARK    5  A    between atoms: N_7  and  C_24
REMARK    6  A    between atoms: C_8  and  C_13
REMARK    7  A    between atoms: C_9  and  C_15
REMARK    8  A    between atoms: C_13  and  C_19
REMARK    9  A    between atoms: C_14  and  C_16
REMARK   10  A    between atoms: C_15  and  C_22
REMARK   11  A    between atoms: C_23  and  C_24
REMARK                            x       y       z     vdW  Elec       q    Type
REMARK                         _______ _______ _______ _____ _____    ______ ____
ROOT
ATOM      1  O   UNL     1     -10.748 -10.436  17.051  0.00  0.00    -0.275 OA
ATOM      5  N   UNL     1      -8.570 -10.183  17.834  0.00  0.00    -0.301 N 
ATOM      8  C   UNL     1      -6.114 -10.430  17.562  0.00  0.00    +0.012 C 
ATOM      9  C   UNL     1      -6.164 -11.625  18.549  0.00  0.00    +0.006 C 
ATOM     10  C   UNL     1      -7.286  -9.473  17.844  0.00  0.00    +0.111 C 
ATOM     11  C   UNL     1      -7.543 -12.308  18.542  0.00  0.00    +0.023 C 
ATOM     12  C   UNL     1      -8.663 -11.298  18.775  0.00  0.00    +0.108 C 
ATOM     16  C   UNL     1      -9.668  -9.851  17.035  0.00  0.00    +0.219 C 
ENDROOT
BRANCH  16  14
ATOM     14  C   UNL     1      -9.508  -8.700  16.090  0.00  0.00    +0.075 C 
ATOM     17  C   UNL     1     -10.212  -7.456  16.644  0.00  0.00    +0.013 C 
ATOM     18  C   UNL     1     -10.173  -9.006  14.748  0.00  0.00    +0.013 C 
ATOM     20  C   UNL     1     -11.195  -7.019  15.563  0.00  0.00    +0.001 C 
ATOM     21  C   UNL     1     -11.519  -8.299  14.816  0.00  0.00    +0.001 C 
ENDBRANCH  16  14
BRANCH   8  13
ATOM     13  C   UNL     1      -6.105 -10.842  16.084  0.00  0.00    +0.024 C 
BRANCH  13  19
ATOM     19  C   UNL     1      -4.891 -10.308  15.341  0.00  0.00    +0.105 C 
BRANCH  19   6
ATOM      6  N   UNL     1      -4.551 -11.163  14.229  0.00  0.00    -0.329 N 
BRANCH   6  25
ATOM     25  C   UNL     1      -3.884 -10.665  13.101  0.00  0.00    +0.030 A 
ATOM     28  C   UNL     1      -4.614 -10.177  12.018  0.00  0.00    +0.023 A 
ATOM     29  C   UNL     1      -2.490 -10.659  13.063  0.00  0.00    +0.023 A 
ATOM     32  C   UNL     1      -3.949  -9.681  10.896  0.00  0.00    +0.002 A 
ATOM     33  C   UNL     1      -1.825 -10.163  11.942  0.00  0.00    +0.002 A 
ATOM     34  C   UNL     1      -2.555  -9.675  10.858  0.00  0.00    +0.000 A 
ENDBRANCH   6  25
BRANCH   6  23
ATOM     23  C   UNL     1      -4.926 -12.577  14.293  0.00  0.00    +0.120 C 
BRANCH  23  24
ATOM     24  C   UNL     1      -3.754 -13.393  14.823  0.00  0.00    +0.103 C 
BRANCH  24   7
ATOM      4  O   UNL     1      -2.243 -16.199  12.093  0.00  0.00    -0.377 OA
ATOM      7  N   UNL     1      -3.587 -14.614  14.037  0.00  0.00    -0.297 NA
ATOM     26  C   UNL     1      -2.292 -15.247  14.324  0.00  0.00    +0.112 C 
ATOM     27  C   UNL     1      -3.700 -14.327  12.600  0.00  0.00    +0.112 C 
ATOM     30  C   UNL     1      -2.136 -16.509  13.482  0.00  0.00    +0.175 C 
ATOM     31  C   UNL     1      -3.512 -15.612  11.800  0.00  0.00    +0.175 C 
ENDBRANCH  24   7
ENDBRANCH  23  24
ENDBRANCH   6  23
ENDBRANCH  19   6
ENDBRANCH  13  19
ENDBRANCH   8  13
BRANCH   9  15
ATOM     15  C   UNL     1      -5.055 -12.649  18.309  0.00  0.00    +0.124 C 
BRANCH  15  22
ATOM      3  O   UNL     1      -3.385 -12.250  20.040  0.00  0.00    -0.251 OA
ATOM     22  C   UNL     1      -3.740 -12.186  18.872  0.00  0.00    +0.305 C 
BRANCH  22   2
ATOM      2  O   UNL     1      -2.973 -11.670  17.878  0.00  0.00    -0.481 OA
ATOM     35  H   UNL     1      -3.134 -10.710  17.751  0.00  0.00    +0.295 HD
ENDBRANCH  22   2
ENDBRANCH  15  22
ENDBRANCH   9  15
TORSDOF 11
ENDMDL
MODEL 6
REMARK VINA RESULT:      -5.5     24.118     27.923
REMARK  Name = 28960185
REMARK  11 active torsions:
REMARK  status: ('A' for Active; 'I' for Inactive)
REMARK    1  A    between atoms: O_2  and  C_22
REMARK    2  A    between atoms: N_6  and  C_19
REMARK    3  A    between atoms: N_6  and  C_23
REMARK    4  A    between atoms: N_6  and  C_25
REMARK    5  A    between atoms: N_7  and  C_24
REMARK    6  A    between atoms: C_8  and  C_13
REMARK    7  A    between atoms: C_9  and  C_15
REMARK    8  A    between atoms: C_13  and  C_19
REMARK    9  A    between atoms: C_14  and  C_16
REMARK   10  A    between atoms: C_15  and  C_22
REMARK   11  A    between atoms: C_23  and  C_24
REMARK                            x       y       z     vdW  Elec       q    Type
REMARK                         _______ _______ _______ _____ _____    ______ ____
ROOT
ATOM      1  O   UNL     1      10.438  11.009   5.304  0.00  0.00    -0.275 OA
ATOM      5  N   UNL     1      11.055   9.226   6.670  0.00  0.00    -0.301 N 
ATOM      8  C   UNL     1      11.172   6.795   7.159  0.00  0.00    +0.012 C 
ATOM      9  C   UNL     1      10.031   6.987   8.191  0.00  0.00    +0.006 C 
ATOM     10  C   UNL     1      11.952   8.111   6.994  0.00  0.00    +0.111 C 
ATOM     11  C   UNL     1       9.146   8.196   7.838  0.00  0.00    +0.023 C 
ATOM     12  C   UNL     1       9.983   9.455   7.638  0.00  0.00    +0.108 C 
ATOM     16  C   UNL     1      11.179  10.061   5.556  0.00  0.00    +0.219 C 
ENDROOT
BRANCH  16  14
ATOM     14  C   UNL     1      12.296   9.773   4.600  0.00  0.00    +0.075 C 
ATOM     17  C   UNL     1      13.502  10.668   4.907  0.00  0.00    +0.013 C 
ATOM     18  C   UNL     1      11.876  10.096   3.166  0.00  0.00    +0.013 C 
ATOM     20  C   UNL     1      13.809  11.409   3.611  0.00  0.00    +0.001 C 
ATOM     21  C   UNL     1      12.475  11.469   2.891  0.00  0.00    +0.001 C 
ENDBRANCH  16  14
BRANCH   8  13
ATOM     13  C   UNL     1      10.698   6.281   5.794  0.00  0.00    +0.024 C 
BRANCH  13  19
ATOM     19  C   UNL     1      11.794   6.333   4.742  0.00  0.00    +0.105 C 
BRANCH  19   6
ATOM      6  N   UNL     1      11.327   5.803   3.484  0.00  0.00    -0.329 N 
BRANCH   6  25
ATOM     25  C   UNL     1      12.186   5.117   2.615  0.00  0.00    +0.030 A 
ATOM     28  C   UNL     1      11.910   3.798   2.256  0.00  0.00    +0.023 A 
ATOM     29  C   UNL     1      13.318   5.755   2.107  0.00  0.00    +0.023 A 
ATOM     32  C   UNL     1      12.766   3.116   1.391  0.00  0.00    +0.002 A 
ATOM     33  C   UNL     1      14.174   5.074   1.242  0.00  0.00    +0.002 A 
ATOM     34  C   UNL     1      13.898   3.754   0.884  0.00  0.00    +0.000 A 
ENDBRANCH   6  25
BRANCH   6  23
ATOM     23  C   UNL     1       9.923   6.000   3.120  0.00  0.00    +0.120 C 
BRANCH  23  24
ATOM     24  C   UNL     1       9.808   7.155   2.133  0.00  0.00    +0.103 C 
BRANCH  24   7
ATOM      4  O   UNL     1       7.248  10.319   3.159  0.00  0.00    -0.377 OA
ATOM      7  N   UNL     1       8.598   7.932   2.397  0.00  0.00    -0.297 NA
ATOM     26  C   UNL     1       8.511   9.087   1.493  0.00  0.00    +0.112 C 
ATOM     27  C   UNL     1       8.563   8.382   3.795  0.00  0.00    +0.112 C 
ATOM     30  C   UNL     1       7.249   9.889   1.798  0.00  0.00    +0.175 C 
ATOM     31  C   UNL     1       7.299   9.199   4.045  0.00  0.00    +0.175 C 
ENDBRANCH  24   7
ENDBRANCH  23  24
ENDBRANCH   6  23
ENDBRANCH  19   6
ENDBRANCH  13  19
ENDBRANCH   8  13
BRANCH   9  15
ATOM     15  C   UNL     1       9.177   5.733   8.383  0.00  0.00    +0.124 C 
BRANCH  15  22
ATOM      3  O   UNL     1      10.131   4.696  10.372  0.00  0.00    -0.251 OA
ATOM     22  C   UNL     1       9.905   4.681   9.171  0.00  0.00    +0.305 C 
BRANCH  22   2
ATOM      2  O   UNL     1      10.293   3.675   8.344  0.00  0.00    -0.481 OA
ATOM     35  H   UNL     1      10.473   3.998   7.435  0.00  0.00    +0.295 HD
ENDBRANCH  22   2
ENDBRANCH  15  22
ENDBRANCH   9  15
TORSDOF 11
ENDMDL
MODEL 7
REMARK VINA RESULT:      -5.4     24.690     27.468
REMARK  Name = 28960185
REMARK  11 active torsions:
REMARK  status: ('A' for Active; 'I' for Inactive)
REMARK    1  A    between atoms: O_2  and  C_22
REMARK    2  A    between atoms: N_6  and  C_19
REMARK    3  A    between atoms: N_6  and  C_23
REMARK    4  A    between atoms: N_6  and  C_25
REMARK    5  A    between atoms: N_7  and  C_24
REMARK    6  A    between atoms: C_8  and  C_13
REMARK    7  A    between atoms: C_9  and  C_15
REMARK    8  A    between atoms: C_13  and  C_19
REMARK    9  A    between atoms: C_14  and  C_16
REMARK   10  A    between atoms: C_15  and  C_22
REMARK   11  A    between atoms: C_23  and  C_24
REMARK                            x       y       z     vdW  Elec       q    Type
REMARK                         _______ _______ _______ _____ _____    ______ ____
ROOT
ATOM      1  O   UNL     1       9.871   3.945   5.521  0.00  0.00    -0.275 OA
ATOM      5  N   UNL     1      10.861   5.189   3.819  0.00  0.00    -0.301 N 
ATOM      8  C   UNL     1      10.740   6.873   1.998  0.00  0.00    +0.012 C 
ATOM      9  C   UNL     1      10.802   5.712   0.973  0.00  0.00    +0.006 C 
ATOM     10  C   UNL     1      11.422   6.446   3.311  0.00  0.00    +0.111 C 
ATOM     11  C   UNL     1      10.249   4.404   1.565  0.00  0.00    +0.023 C 
ATOM     12  C   UNL     1      10.928   4.063   2.888  0.00  0.00    +0.108 C 
ATOM     16  C   UNL     1      10.317   5.008   5.094  0.00  0.00    +0.219 C 
ENDROOT
BRANCH  16  14
ATOM     14  C   UNL     1      10.274   6.200   6.000  0.00  0.00    +0.075 C 
ATOM     17  C   UNL     1      11.492   6.204   6.931  0.00  0.00    +0.013 C 
ATOM     18  C   UNL     1       9.043   6.147   6.905  0.00  0.00    +0.013 C 
ATOM     20  C   UNL     1      10.931   6.255   8.348  0.00  0.00    +0.001 C 
ATOM     21  C   UNL     1       9.564   5.608   8.230  0.00  0.00    +0.001 C 
ENDBRANCH  16  14
BRANCH   8  13
ATOM     13  C   UNL     1       9.321   7.385   2.277  0.00  0.00    +0.024 C 
BRANCH  13  19
ATOM     19  C   UNL     1       9.279   8.890   2.492  0.00  0.00    +0.105 C 
BRANCH  19   6
ATOM      6  N   UNL     1       8.658   9.212   3.754  0.00  0.00    -0.329 N 
BRANCH   6  25
ATOM     25  C   UNL     1       9.422   9.480   4.898  0.00  0.00    +0.030 A 
ATOM     28  C   UNL     1      10.805   9.629   4.794  0.00  0.00    +0.023 A 
ATOM     29  C   UNL     1       8.800   9.597   6.140  0.00  0.00    +0.023 A 
ATOM     32  C   UNL     1      11.566   9.895   5.933  0.00  0.00    +0.002 A 
ATOM     33  C   UNL     1       9.559   9.864   7.279  0.00  0.00    +0.002 A 
ATOM     34  C   UNL     1      10.942  10.013   7.175  0.00  0.00    +0.000 A 
ENDBRANCH   6  25
BRANCH   6  23
ATOM     23  C   UNL     1       7.196   9.250   3.825  0.00  0.00    +0.120 C 
BRANCH  23  24
ATOM     24  C   UNL     1       6.667  10.343   2.905  0.00  0.00    +0.103 C 
BRANCH  24   7
ATOM      4  O   UNL     1       3.212  10.308   0.523  0.00  0.00    -0.377 OA
ATOM      7  N   UNL     1       5.396   9.935   2.309  0.00  0.00    -0.297 NA
ATOM     26  C   UNL     1       5.542   9.724   0.862  0.00  0.00    +0.112 C 
ATOM     27  C   UNL     1       4.354  10.937   2.569  0.00  0.00    +0.112 C 
ATOM     30  C   UNL     1       4.201   9.313   0.261  0.00  0.00    +0.175 C 
ATOM     31  C   UNL     1       3.041  10.496   1.929  0.00  0.00    +0.175 C 
ENDBRANCH  24   7
ENDBRANCH  23  24
ENDBRANCH   6  23
ENDBRANCH  19   6
ENDBRANCH  13  19
ENDBRANCH   8  13
BRANCH   9  15
ATOM     15  C   UNL     1      10.106   6.041  -0.349  0.00  0.00    +0.124 C 
BRANCH  15  22
ATOM      3  O   UNL     1       9.624   4.378  -2.065  0.00  0.00    -0.251 OA
ATOM     22  C   UNL     1      10.427   5.027  -1.411  0.00  0.00    +0.305 C 
BRANCH  22   2
ATOM      2  O   UNL     1      11.774   4.924  -1.554  0.00  0.00    -0.481 OA
ATOM     35  H   UNL     1      12.250   5.607  -1.035  0.00  0.00    +0.295 HD
ENDBRANCH  22   2
ENDBRANCH  15  22
ENDBRANCH   9  15
TORSDOF 11
ENDMDL
MODEL 8
REMARK VINA RESULT:      -5.4      2.944      7.172
REMARK  Name = 28960185
REMARK  11 active torsions:
REMARK  status: ('A' for Active; 'I' for Inactive)
REMARK    1  A    between atoms: O_2  and  C_22
REMARK    2  A    between atoms: N_6  and  C_19
REMARK    3  A    between atoms: N_6  and  C_23
REMARK    4  A    between atoms: N_6  and  C_25
REMARK    5  A    between atoms: N_7  and  C_24
REMARK    6  A    between atoms: C_8  and  C_13
REMARK    7  A    between atoms: C_9  and  C_15
REMARK    8  A    between atoms: C_13  and  C_19
REMARK    9  A    between atoms: C_14  and  C_16
REMARK   10  A    between atoms: C_15  and  C_22
REMARK   11  A    between atoms: C_23  and  C_24
REMARK                            x       y       z     vdW  Elec       q    Type
REMARK                         _______ _______ _______ _____ _____    ______ ____
ROOT
ATOM      1  O   UNL     1      -7.780 -12.164  19.429  0.00  0.00    -0.275 OA
ATOM      5  N   UNL     1      -6.361 -10.726  18.271  0.00  0.00    -0.301 N 
ATOM      8  C   UNL     1      -5.295  -9.942  16.170  0.00  0.00    +0.012 C 
ATOM      9  C   UNL     1      -3.978 -10.618  16.630  0.00  0.00    +0.006 C 
ATOM     10  C   UNL     1      -6.145  -9.567  17.397  0.00  0.00    +0.111 C 
ATOM     11  C   UNL     1      -4.250 -11.796  17.583  0.00  0.00    +0.023 C 
ATOM     12  C   UNL     1      -5.139 -11.372  18.749  0.00  0.00    +0.108 C 
ATOM     16  C   UNL     1      -7.608 -11.208  18.677  0.00  0.00    +0.219 C 
ENDROOT
BRANCH  16  14
ATOM     14  C   UNL     1      -8.822 -10.504  18.151  0.00  0.00    +0.075 C 
ATOM     17  C   UNL     1      -9.953 -10.550  19.184  0.00  0.00    +0.013 C 
ATOM     18  C   UNL     1      -9.354 -11.207  16.901  0.00  0.00    +0.013 C 
ATOM     20  C   UNL     1     -11.141 -11.187  18.472  0.00  0.00    +0.001 C 
ATOM     21  C   UNL     1     -10.509 -12.061  17.405  0.00  0.00    +0.001 C 
ENDBRANCH  16  14
BRANCH   8  13
ATOM     13  C   UNL     1      -6.118 -10.784  15.187  0.00  0.00    +0.024 C 
BRANCH  13  19
ATOM     19  C   UNL     1      -6.480 -10.016  13.926  0.00  0.00    +0.105 C 
BRANCH  19   6
ATOM      6  N   UNL     1      -6.048 -10.729  12.748  0.00  0.00    -0.329 N 
BRANCH   6  25
ATOM     25  C   UNL     1      -5.014 -10.242  11.937  0.00  0.00    +0.030 A 
ATOM     28  C   UNL     1      -5.241  -9.155  11.092  0.00  0.00    +0.023 A 
ATOM     29  C   UNL     1      -3.756 -10.844  11.974  0.00  0.00    +0.023 A 
ATOM     32  C   UNL     1      -4.211  -8.670  10.286  0.00  0.00    +0.002 A 
ATOM     33  C   UNL     1      -2.726 -10.360  11.168  0.00  0.00    +0.002 A 
ATOM     34  C   UNL     1      -2.954  -9.273  10.324  0.00  0.00    +0.000 A 
ENDBRANCH   6  25
BRANCH   6  23
ATOM     23  C   UNL     1      -6.721 -11.982  12.402  0.00  0.00    +0.120 C 
BRANCH  23  24
ATOM     24  C   UNL     1      -8.167 -11.697  12.015  0.00  0.00    +0.103 C 
BRANCH  24   7
ATOM      4  O   UNL     1      -9.622  -9.762   8.587  0.00  0.00    -0.377 OA
ATOM      7  N   UNL     1      -8.220 -10.942  10.765  0.00  0.00    -0.297 NA
ATOM     26  C   UNL     1      -9.002  -9.709  10.932  0.00  0.00    +0.112 C 
ATOM     27  C   UNL     1      -8.793 -11.759   9.687  0.00  0.00    +0.112 C 
ATOM     30  C   UNL     1      -9.054  -8.946   9.612  0.00  0.00    +0.175 C 
ATOM     31  C   UNL     1      -8.848 -10.948   8.396  0.00  0.00    +0.175 C 
ENDBRANCH  24   7
ENDBRANCH  23  24
ENDBRANCH   6  23
ENDBRANCH  19   6
ENDBRANCH  13  19
ENDBRANCH   8  13
BRANCH   9  15
ATOM     15  C   UNL     1      -3.091 -11.062  15.466  0.00  0.00    +0.124 C 
BRANCH  15  22
ATOM      3  O   UNL     1      -1.198  -9.688  14.779  0.00  0.00    -0.251 OA
ATOM     22  C   UNL     1      -1.712 -10.471  15.563  0.00  0.00    +0.305 C 
BRANCH  22   2
ATOM      2  O   UNL     1      -1.091 -10.938  16.678  0.00  0.00    -0.481 OA
ATOM     35  H   UNL     1      -0.253 -11.401  16.463  0.00  0.00    +0.295 HD
ENDBRANCH  22   2
ENDBRANCH  15  22
ENDBRANCH   9  15
TORSDOF 11
ENDMDL
MODEL 9
REMARK VINA RESULT:      -5.3     24.705     27.470
REMARK  Name = 28960185
REMARK  11 active torsions:
REMARK  status: ('A' for Active; 'I' for Inactive)
REMARK    1  A    between atoms: O_2  and  C_22
REMARK    2  A    between atoms: N_6  and  C_19
REMARK    3  A    between atoms: N_6  and  C_23
REMARK    4  A    between atoms: N_6  and  C_25
REMARK    5  A    between atoms: N_7  and  C_24
REMARK    6  A    between atoms: C_8  and  C_13
REMARK    7  A    between atoms: C_9  and  C_15
REMARK    8  A    between atoms: C_13  and  C_19
REMARK    9  A    between atoms: C_14  and  C_16
REMARK   10  A    between atoms: C_15  and  C_22
REMARK   11  A    between atoms: C_23  and  C_24
REMARK                            x       y       z     vdW  Elec       q    Type
REMARK                         _______ _______ _______ _____ _____    ______ ____
ROOT
ATOM      1  O   UNL     1       9.852   3.949   5.467  0.00  0.00    -0.275 OA
ATOM      5  N   UNL     1      10.868   5.175   3.769  0.00  0.00    -0.301 N 
ATOM      8  C   UNL     1      10.775   6.834   1.923  0.00  0.00    +0.012 C 
ATOM      9  C   UNL     1      10.862   5.659   0.915  0.00  0.00    +0.006 C 
ATOM     10  C   UNL     1      11.433   6.428   3.254  0.00  0.00    +0.111 C 
ATOM     11  C   UNL     1      10.304   4.356   1.514  0.00  0.00    +0.023 C 
ATOM     12  C   UNL     1      10.960   4.037   2.854  0.00  0.00    +0.108 C 
ATOM     16  C   UNL     1      10.301   5.008   5.035  0.00  0.00    +0.219 C 
ENDROOT
BRANCH  16  14
ATOM     14  C   UNL     1      10.234   6.212   5.923  0.00  0.00    +0.075 C 
ATOM     17  C   UNL     1      11.440   6.242   6.869  0.00  0.00    +0.013 C 
ATOM     18  C   UNL     1       8.992   6.158   6.814  0.00  0.00    +0.013 C 
ATOM     20  C   UNL     1      10.861   6.306   8.278  0.00  0.00    +0.001 C 
ATOM     21  C   UNL     1       9.502   5.643   8.153  0.00  0.00    +0.001 C 
ENDBRANCH  16  14
BRANCH   8  13
ATOM     13  C   UNL     1       9.348   7.342   2.167  0.00  0.00    +0.024 C 
BRANCH  13  19
ATOM     19  C   UNL     1       9.298   8.845   2.390  0.00  0.00    +0.105 C 
BRANCH  19   6
ATOM      6  N   UNL     1       8.658   9.158   3.645  0.00  0.00    -0.329 N 
BRANCH   6  25
ATOM     25  C   UNL     1       9.406   9.454   4.793  0.00  0.00    +0.030 A 
ATOM     28  C   UNL     1      10.790   9.607   4.704  0.00  0.00    +0.023 A 
ATOM     29  C   UNL     1       8.767   9.597   6.024  0.00  0.00    +0.023 A 
ATOM     32  C   UNL     1      11.534   9.902   5.846  0.00  0.00    +0.002 A 
ATOM     33  C   UNL     1       9.510   9.892   7.166  0.00  0.00    +0.002 A 
ATOM     34  C   UNL     1      10.894  10.045   7.077  0.00  0.00    +0.000 A 
ENDBRANCH   6  25
BRANCH   6  23
ATOM     23  C   UNL     1       7.196   9.155   3.705  0.00  0.00    +0.120 C 
BRANCH  23  24
ATOM     24  C   UNL     1       6.631   9.850   2.472  0.00  0.00    +0.103 C 
BRANCH  24   7
ATOM      4  O   UNL     1       3.457  11.900   4.300  0.00  0.00    -0.377 OA
ATOM      7  N   UNL     1       5.710  10.915   2.866  0.00  0.00    -0.297 NA
ATOM     26  C   UNL     1       5.761  11.139   4.318  0.00  0.00    +0.112 C 
ATOM     27  C   UNL     1       4.337  10.594   2.454  0.00  0.00    +0.112 C 
ATOM     30  C   UNL     1       4.782  12.243   4.706  0.00  0.00    +0.175 C 
ATOM     31  C   UNL     1       3.393  11.712   2.885  0.00  0.00    +0.175 C 
ENDBRANCH  24   7
ENDBRANCH  23  24
ENDBRANCH   6  23
ENDBRANCH  19   6
ENDBRANCH  13  19
ENDBRANCH   8  13
BRANCH   9  15
ATOM     15  C   UNL     1      10.191   5.966  -0.424  0.00  0.00    +0.124 C 
BRANCH  15  22
ATOM      3  O   UNL     1      11.837   4.937  -1.899  0.00  0.00    -0.251 OA
ATOM     22  C   UNL     1      10.683   5.055  -1.514  0.00  0.00    +0.305 C 
BRANCH  22   2
ATOM      2  O   UNL     1       9.640   4.354  -2.030  0.00  0.00    -0.481 OA
ATOM     35  H   UNL     1       9.208   3.790  -1.353  0.00  0.00    +0.295 HD
ENDBRANCH  22   2
ENDBRANCH  15  22
ENDBRANCH   9  15
TORSDOF 11
ENDMDL
MODEL 10
REMARK VINA RESULT:      -5.3     25.548     28.269
REMARK  Name = 28960185
REMARK  11 active torsions:
REMARK  status: ('A' for Active; 'I' for Inactive)
REMARK    1  A    between atoms: O_2  and  C_22
REMARK    2  A    between atoms: N_6  and  C_19
REMARK    3  A    between atoms: N_6  and  C_23
REMARK    4  A    between atoms: N_6  and  C_25
REMARK    5  A    between atoms: N_7  and  C_24
REMARK    6  A    between atoms: C_8  and  C_13
REMARK    7  A    between atoms: C_9  and  C_15
REMARK    8  A    between atoms: C_13  and  C_19
REMARK    9  A    between atoms: C_14  and  C_16
REMARK   10  A    between atoms: C_15  and  C_22
REMARK   11  A    between atoms: C_23  and  C_24
REMARK                            x       y       z     vdW  Elec       q    Type
REMARK                         _______ _______ _______ _____ _____    ______ ____
ROOT
ATOM      1  O   UNL     1      14.006   4.118  -2.424  0.00  0.00    -0.275 OA
ATOM      5  N   UNL     1      14.147   4.167  -0.101  0.00  0.00    -0.301 N 
ATOM      8  C   UNL     1      13.394   5.011   2.111  0.00  0.00    +0.012 C 
ATOM      9  C   UNL     1      14.675   5.883   2.170  0.00  0.00    +0.006 C 
ATOM     10  C   UNL     1      13.644   3.779   1.222  0.00  0.00    +0.111 C 
ATOM     11  C   UNL     1      15.193   6.225   0.762  0.00  0.00    +0.023 C 
ATOM     12  C   UNL     1      15.371   4.967  -0.083  0.00  0.00    +0.108 C 
ATOM     16  C   UNL     1      13.565   3.809  -1.320  0.00  0.00    +0.219 C 
ENDROOT
BRANCH  16  14
ATOM     14  C   UNL     1      12.311   2.991  -1.270  0.00  0.00    +0.075 C 
ATOM     17  C   UNL     1      12.202   2.109  -2.519  0.00  0.00    +0.013 C 
ATOM     18  C   UNL     1      11.077   3.894  -1.274  0.00  0.00    +0.013 C 
ATOM     20  C   UNL     1      10.860   2.454  -3.155  0.00  0.00    +0.001 C 
ATOM     21  C   UNL     1      10.599   3.884  -2.720  0.00  0.00    +0.001 C 
ENDBRANCH  16  14
BRANCH   8  13
ATOM     13  C   UNL     1      12.146   5.766   1.636  0.00  0.00    +0.024 C 
BRANCH  13  19
ATOM     19  C   UNL     1      10.870   5.231   2.265  0.00  0.00    +0.105 C 
BRANCH  19   6
ATOM      6  N   UNL     1      10.199   6.260   3.023  0.00  0.00    -0.329 N 
BRANCH   6  25
ATOM     25  C   UNL     1      10.216   6.265   4.424  0.00  0.00    +0.030 A 
ATOM     28  C   UNL     1       9.029   6.098   5.137  0.00  0.00    +0.023 A 
ATOM     29  C   UNL     1      11.421   6.437   5.106  0.00  0.00    +0.023 A 
ATOM     32  C   UNL     1       9.047   6.103   6.532  0.00  0.00    +0.002 A 
ATOM     33  C   UNL     1      11.439   6.442   6.500  0.00  0.00    +0.002 A 
ATOM     34  C   UNL     1      10.252   6.274   7.213  0.00  0.00    +0.000 A 
ENDBRANCH   6  25
BRANCH   6  23
ATOM     23  C   UNL     1       9.484   7.310   2.296  0.00  0.00    +0.120 C 
BRANCH  23  24
ATOM     24  C   UNL     1      10.044   8.673   2.682  0.00  0.00    +0.103 C 
BRANCH  24   7
ATOM      4  O   UNL     1       6.699  10.127   4.758  0.00  0.00    -0.377 OA
ATOM      7  N   UNL     1       8.971   9.552   3.143  0.00  0.00    -0.297 NA
ATOM     26  C   UNL     1       9.099   9.822   4.582  0.00  0.00    +0.112 C 
ATOM     27  C   UNL     1       7.656   8.962   2.857  0.00  0.00    +0.112 C 
ATOM     30  C   UNL     1       7.962  10.729   5.042  0.00  0.00    +0.175 C 
ATOM     31  C   UNL     1       6.553   9.891   3.356  0.00  0.00    +0.175 C 
ENDBRANCH  24   7
ENDBRANCH  23  24
ENDBRANCH   6  23
ENDBRANCH  19   6
ENDBRANCH  13  19
ENDBRANCH   8  13
BRANCH   9  15
ATOM     15  C   UNL     1      14.497   7.154   3.001  0.00  0.00    +0.124 C 
BRANCH  15  22
ATOM      3  O   UNL     1      15.061   7.072   5.372  0.00  0.00    -0.251 OA
ATOM     22  C   UNL     1      15.402   7.163   4.202  0.00  0.00    +0.305 C 
BRANCH  22   2
ATOM      2  O   UNL     1      16.694   7.290   3.800  0.00  0.00    -0.481 OA
ATOM     35  H   UNL     1      17.235   6.513   4.058  0.00  0.00    +0.295 HD
ENDBRANCH  22   2
ENDBRANCH  15  22
ENDBRANCH   9  15
TORSDOF 11
ENDMDL
