MODEL 1
REMARK VINA RESULT:      -6.9      0.000      0.000
REMARK  Name = 28963137
REMARK  10 active torsions:
REMARK  status: ('A' for Active; 'I' for Inactive)
REMARK    1  A    between atoms: O_1  and  C_10
REMARK    2  A    between atoms: N_4  and  C_14
REMARK    3  A    between atoms: N_5  and  C_23
REMARK    4  A    between atoms: N_6  and  C_29
REMARK    5  A    between atoms: C_7  and  C_17
REMARK    6  A    between atoms: C_9  and  C_19
REMARK    7  A    between atoms: C_12  and  C_18
REMARK    8  A    between atoms: C_18  and  C_20
REMARK    9  A    between atoms: C_18  and  C_21
REMARK   10  A    between atoms: C_29  and  C_30
REMARK                            x       y       z     vdW  Elec       q    Type
REMARK                         _______ _______ _______ _____ _____    ______ ____
ROOT
ATOM      7  C   UNL     1      -3.541 -10.697  10.712  0.00  0.00    -0.027 C 
ATOM      8  C   UNL     1      -4.880 -10.327  11.435  0.00  0.00    +0.028 C 
ATOM      9  C   UNL     1      -5.620  -9.164  10.679  0.00  0.00    +0.012 C 
ATOM     10  C   UNL     1      -4.653 -10.096  12.957  0.00  0.00    +0.122 C 
ATOM     11  C   UNL     1      -2.897 -11.916  11.413  0.00  0.00    +0.007 C 
ATOM     12  C   UNL     1      -3.914 -11.274  13.633  0.00  0.00    +0.029 C 
ATOM     13  C   UNL     1      -3.853 -11.104   9.254  0.00  0.00    +0.009 C 
ATOM     14  C   UNL     1      -5.861  -9.556   9.194  0.00  0.00    +0.078 C 
ATOM     15  C   UNL     1      -2.637 -11.679  12.896  0.00  0.00    +0.007 C 
ATOM     16  C   UNL     1      -4.595 -10.027   8.477  0.00  0.00    +0.023 C 
ATOM     17  C   UNL     1      -2.525  -9.528  10.709  0.00  0.00    +0.011 C 
ATOM     19  C   UNL     1      -6.960  -8.768  11.322  0.00  0.00    +0.010 C 
ENDROOT
BRANCH  14   4
ATOM      3  O   UNL     1      -7.905  -9.733   7.164  0.00  0.00    -0.253 OA
ATOM      4  N   UNL     1      -6.437  -8.464   8.439  0.00  0.00    -0.296 N 
ATOM      6  N   UNL     1      -7.796  -7.430   6.904  0.00  0.00    -0.300 N 
ATOM     22  C   UNL     1      -7.423  -8.644   7.475  0.00  0.00    +0.300 C 
ATOM     31  H   UNL     1      -6.049  -7.533   8.562  0.00  0.00    +0.151 HD
ATOM     34  H   UNL     1      -7.352  -6.578   7.233  0.00  0.00    +0.150 HD
BRANCH   6  29
ATOM     29  C   UNL     1      -8.803  -7.326   5.874  0.00  0.00    +0.102 C 
ATOM     30  C   UNL     1     -10.143  -6.915   6.447  0.00  0.00    +0.024 C 
ENDBRANCH   6  29
ENDBRANCH  14   4
BRANCH  10   1
ATOM      1  O   UNL     1      -5.915  -9.974  13.614  0.00  0.00    -0.391 OA
ATOM     32  H   UNL     1      -6.400 -10.809  13.495  0.00  0.00    +0.210 HD
ENDBRANCH  10   1
BRANCH  12  18
ATOM     18  C   UNL     1      -3.584 -10.973  15.100  0.00  0.00    +0.077 C 
ATOM     20  C   UNL     1      -2.075 -10.856  15.285  0.00  0.00    +0.017 C 
BRANCH  18  21
ATOM      2  O   UNL     1      -4.176 -13.245  15.689  0.00  0.00    -0.276 OA
ATOM      5  N   UNL     1      -4.692 -11.544  17.178  0.00  0.00    -0.312 N 
ATOM     21  C   UNL     1      -4.173 -12.056  15.998  0.00  0.00    +0.216 C 
ATOM     33  H   UNL     1      -4.629 -10.547  17.361  0.00  0.00    +0.149 HD
BRANCH   5  23
ATOM     23  C   UNL     1      -5.306 -12.376  18.189  0.00  0.00    +0.073 C 
ATOM     24  C   UNL     1      -5.273 -11.692  19.560  0.00  0.00    +0.022 C 
ATOM     25  C   UNL     1      -6.736 -12.758  17.794  0.00  0.00    +0.022 C 
ATOM     26  C   UNL     1      -6.243 -10.514  19.650  0.00  0.00    +0.002 C 
ATOM     27  C   UNL     1      -7.705 -11.579  17.887  0.00  0.00    +0.002 C 
ATOM     28  C   UNL     1      -7.662 -10.922  19.263  0.00  0.00    +0.000 C 
ENDBRANCH   5  23
ENDBRANCH  18  21
ENDBRANCH  12  18
TORSDOF 6
ENDMDL
MODEL 2
REMARK VINA RESULT:      -6.6     28.132     30.604
REMARK  Name = 28963137
REMARK  10 active torsions:
REMARK  status: ('A' for Active; 'I' for Inactive)
REMARK    1  A    between atoms: O_1  and  C_10
REMARK    2  A    between atoms: N_4  and  C_14
REMARK    3  A    between atoms: N_5  and  C_23
REMARK    4  A    between atoms: N_6  and  C_29
REMARK    5  A    between atoms: C_7  and  C_17
REMARK    6  A    between atoms: C_9  and  C_19
REMARK    7  A    between atoms: C_12  and  C_18
REMARK    8  A    between atoms: C_18  and  C_20
REMARK    9  A    between atoms: C_18  and  C_21
REMARK   10  A    between atoms: C_29  and  C_30
REMARK                            x       y       z     vdW  Elec       q    Type
REMARK                         _______ _______ _______ _____ _____    ______ ____
ROOT
ATOM      7  C   UNL     1      13.287   8.022  21.030  0.00  0.00    -0.027 C 
ATOM      8  C   UNL     1      14.200   9.172  21.574  0.00  0.00    +0.028 C 
ATOM      9  C   UNL     1      13.497  10.568  21.412  0.00  0.00    +0.012 C 
ATOM     10  C   UNL     1      15.638   9.076  20.986  0.00  0.00    +0.122 C 
ATOM     11  C   UNL     1      13.958   6.657  21.308  0.00  0.00    +0.007 C 
ATOM     12  C   UNL     1      16.264   7.675  21.175  0.00  0.00    +0.029 C 
ATOM     13  C   UNL     1      11.940   8.048  21.789  0.00  0.00    +0.009 C 
ATOM     14  C   UNL     1      12.110  10.557  22.115  0.00  0.00    +0.078 C 
ATOM     15  C   UNL     1      15.351   6.545  20.700  0.00  0.00    +0.007 C 
ATOM     16  C   UNL     1      11.223   9.386  21.690  0.00  0.00    +0.023 C 
ATOM     17  C   UNL     1      13.018   8.146  19.509  0.00  0.00    +0.011 C 
ATOM     19  C   UNL     1      14.329  11.743  21.953  0.00  0.00    +0.010 C 
ENDROOT
BRANCH  14   4
ATOM      3  O   UNL     1      10.704  12.136  24.079  0.00  0.00    -0.253 OA
ATOM      4  N   UNL     1      11.384  11.788  21.887  0.00  0.00    -0.296 N 
ATOM      6  N   UNL     1      10.117  13.631  22.406  0.00  0.00    -0.300 N 
ATOM     22  C   UNL     1      10.733  12.484  22.899  0.00  0.00    +0.300 C 
ATOM     31  H   UNL     1      11.279  12.118  20.932  0.00  0.00    +0.151 HD
ATOM     34  H   UNL     1      10.205  13.847  21.417  0.00  0.00    +0.150 HD
BRANCH   6  29
ATOM     29  C   UNL     1       9.369  14.540  23.242  0.00  0.00    +0.102 C 
ATOM     30  C   UNL     1       8.220  15.172  22.486  0.00  0.00    +0.024 C 
ENDBRANCH   6  29
ENDBRANCH  14   4
BRANCH  10   1
ATOM      1  O   UNL     1      16.492  10.000  21.662  0.00  0.00    -0.391 OA
ATOM     32  H   UNL     1      17.185  10.282  21.041  0.00  0.00    +0.210 HD
ENDBRANCH  10   1
BRANCH  12  18
ATOM     18  C   UNL     1      17.625   7.561  20.476  0.00  0.00    +0.077 C 
ATOM     20  C   UNL     1      17.678   6.289  19.636  0.00  0.00    +0.017 C 
BRANCH  18  21
ATOM      2  O   UNL     1      18.813   8.450  22.389  0.00  0.00    -0.276 OA
ATOM      5  N   UNL     1      19.655   6.559  21.341  0.00  0.00    -0.312 N 
ATOM     21  C   UNL     1      18.745   7.593  21.511  0.00  0.00    +0.216 C 
ATOM     33  H   UNL     1      19.509   5.882  20.600  0.00  0.00    +0.149 HD
BRANCH   5  23
ATOM     23  C   UNL     1      20.804   6.381  22.200  0.00  0.00    +0.073 C 
ATOM     24  C   UNL     1      21.303   4.932  22.159  0.00  0.00    +0.022 C 
ATOM     25  C   UNL     1      21.923   7.362  21.834  0.00  0.00    +0.022 C 
ATOM     26  C   UNL     1      21.981   4.583  20.835  0.00  0.00    +0.002 C 
ATOM     27  C   UNL     1      22.601   7.010  20.510  0.00  0.00    +0.002 C 
ATOM     28  C   UNL     1      23.098   5.567  20.498  0.00  0.00    +0.000 C 
ENDBRANCH   5  23
ENDBRANCH  18  21
ENDBRANCH  12  18
TORSDOF 6
ENDMDL
MODEL 3
REMARK VINA RESULT:      -6.6     20.469     22.847
REMARK  Name = 28963137
REMARK  10 active torsions:
REMARK  status: ('A' for Active; 'I' for Inactive)
REMARK    1  A    between atoms: O_1  and  C_10
REMARK    2  A    between atoms: N_4  and  C_14
REMARK    3  A    between atoms: N_5  and  C_23
REMARK    4  A    between atoms: N_6  and  C_29
REMARK    5  A    between atoms: C_7  and  C_17
REMARK    6  A    between atoms: C_9  and  C_19
REMARK    7  A    between atoms: C_12  and  C_18
REMARK    8  A    between atoms: C_18  and  C_20
REMARK    9  A    between atoms: C_18  and  C_21
REMARK   10  A    between atoms: C_29  and  C_30
REMARK                            x       y       z     vdW  Elec       q    Type
REMARK                         _______ _______ _______ _____ _____    ______ ____
ROOT
ATOM      7  C   UNL     1     -15.202   7.387  20.440  0.00  0.00    -0.027 C 
ATOM      8  C   UNL     1     -13.996   6.528  20.948  0.00  0.00    +0.028 C 
ATOM      9  C   UNL     1     -14.349   5.815  22.303  0.00  0.00    +0.012 C 
ATOM     10  C   UNL     1     -12.677   7.354  20.952  0.00  0.00    +0.122 C 
ATOM     11  C   UNL     1     -14.863   7.981  19.053  0.00  0.00    +0.007 C 
ATOM     12  C   UNL     1     -12.397   8.032  19.591  0.00  0.00    +0.029 C 
ATOM     13  C   UNL     1     -16.436   6.472  20.271  0.00  0.00    +0.009 C 
ATOM     14  C   UNL     1     -15.635   4.957  22.140  0.00  0.00    +0.078 C 
ATOM     15  C   UNL     1     -13.593   8.824  19.062  0.00  0.00    +0.007 C 
ATOM     16  C   UNL     1     -16.812   5.732  21.546  0.00  0.00    +0.023 C 
ATOM     17  C   UNL     1     -15.555   8.546  21.406  0.00  0.00    +0.011 C 
ATOM     19  C   UNL     1     -13.215   4.929  22.847  0.00  0.00    +0.010 C 
ENDROOT
BRANCH  14   4
ATOM      3  O   UNL     1     -16.654   2.292  22.574  0.00  0.00    -0.253 OA
ATOM      4  N   UNL     1     -16.056   4.378  23.399  0.00  0.00    -0.296 N 
ATOM      6  N   UNL     1     -16.868   2.779  24.832  0.00  0.00    -0.300 N 
ATOM     22  C   UNL     1     -16.536   3.078  23.513  0.00  0.00    +0.300 C 
ATOM     31  H   UNL     1     -16.075   4.973  24.222  0.00  0.00    +0.151 HD
ATOM     34  H   UNL     1     -16.726   3.488  25.545  0.00  0.00    +0.150 HD
BRANCH   6  29
ATOM     29  C   UNL     1     -17.392   1.496  25.236  0.00  0.00    +0.102 C 
ATOM     30  C   UNL     1     -16.915   1.112  26.621  0.00  0.00    +0.024 C 
ENDBRANCH   6  29
ENDBRANCH  14   4
BRANCH  10   1
ATOM      1  O   UNL     1     -11.572   6.487  21.212  0.00  0.00    -0.391 OA
ATOM     32  H   UNL     1     -10.774   7.034  21.304  0.00  0.00    +0.210 HD
ENDBRANCH  10   1
BRANCH  12  18
ATOM     18  C   UNL     1     -11.166   8.946  19.652  0.00  0.00    +0.077 C 
ATOM     20  C   UNL     1     -11.512  10.244  20.375  0.00  0.00    +0.017 C 
BRANCH  18  21
ATOM      2  O   UNL     1     -10.443   8.315  17.429  0.00  0.00    -0.276 OA
ATOM      5  N   UNL     1     -10.437  10.563  18.001  0.00  0.00    -0.312 N 
ATOM     21  C   UNL     1     -10.647   9.213  18.243  0.00  0.00    +0.216 C 
ATOM     33  H   UNL     1     -10.652  11.240  18.727  0.00  0.00    +0.149 HD
BRANCH   5  23
ATOM     23  C   UNL     1      -9.945  11.064  16.737  0.00  0.00    +0.073 C 
ATOM     24  C   UNL     1     -11.092  11.262  15.740  0.00  0.00    +0.022 C 
ATOM     25  C   UNL     1      -9.147  12.357  16.930  0.00  0.00    +0.022 C 
ATOM     26  C   UNL     1     -11.980  12.454  16.098  0.00  0.00    +0.002 C 
ATOM     27  C   UNL     1     -10.038  13.547  17.287  0.00  0.00    +0.002 C 
ATOM     28  C   UNL     1     -11.164  13.731  16.274  0.00  0.00    +0.000 C 
ENDBRANCH   5  23
ENDBRANCH  18  21
ENDBRANCH  12  18
TORSDOF 6
ENDMDL
MODEL 4
REMARK VINA RESULT:      -6.6      3.258      9.484
REMARK  Name = 28963137
REMARK  10 active torsions:
REMARK  status: ('A' for Active; 'I' for Inactive)
REMARK    1  A    between atoms: O_1  and  C_10
REMARK    2  A    between atoms: N_4  and  C_14
REMARK    3  A    between atoms: N_5  and  C_23
REMARK    4  A    between atoms: N_6  and  C_29
REMARK    5  A    between atoms: C_7  and  C_17
REMARK    6  A    between atoms: C_9  and  C_19
REMARK    7  A    between atoms: C_12  and  C_18
REMARK    8  A    between atoms: C_18  and  C_20
REMARK    9  A    between atoms: C_18  and  C_21
REMARK   10  A    between atoms: C_29  and  C_30
REMARK                            x       y       z     vdW  Elec       q    Type
REMARK                         _______ _______ _______ _____ _____    ______ ____
ROOT
ATOM      7  C   UNL     1      -5.073 -11.233  18.024  0.00  0.00    -0.027 C 
ATOM      8  C   UNL     1      -5.841 -12.249  17.115  0.00  0.00    +0.028 C 
ATOM      9  C   UNL     1      -6.621 -13.300  17.985  0.00  0.00    +0.012 C 
ATOM     10  C   UNL     1      -4.907 -12.847  16.023  0.00  0.00    +0.122 C 
ATOM     11  C   UNL     1      -4.411 -10.149  17.141  0.00  0.00    +0.007 C 
ATOM     12  C   UNL     1      -4.167 -11.758  15.212  0.00  0.00    +0.029 C 
ATOM     13  C   UNL     1      -6.084 -10.528  18.956  0.00  0.00    +0.009 C 
ATOM     14  C   UNL     1      -7.580 -12.575  18.971  0.00  0.00    +0.078 C 
ATOM     15  C   UNL     1      -3.465 -10.729  16.097  0.00  0.00    +0.007 C 
ATOM     16  C   UNL     1      -6.890 -11.497  19.808  0.00  0.00    +0.023 C 
ATOM     17  C   UNL     1      -3.977 -11.914  18.882  0.00  0.00    +0.011 C 
ATOM     19  C   UNL     1      -7.423 -14.314  17.152  0.00  0.00    +0.010 C 
ENDROOT
BRANCH  14   4
ATOM      3  O   UNL     1     -10.150 -12.259  20.245  0.00  0.00    -0.253 OA
ATOM      4  N   UNL     1      -8.229 -13.507  19.869  0.00  0.00    -0.296 N 
ATOM      6  N   UNL     1      -9.862 -14.326  21.259  0.00  0.00    -0.300 N 
ATOM     22  C   UNL     1      -9.475 -13.270  20.438  0.00  0.00    +0.300 C 
ATOM     31  H   UNL     1      -7.717 -14.336  20.157  0.00  0.00    +0.151 HD
ATOM     34  H   UNL     1      -9.245 -15.127  21.349  0.00  0.00    +0.150 HD
BRANCH   6  29
ATOM     29  C   UNL     1     -11.115 -14.341  21.976  0.00  0.00    +0.102 C 
ATOM     30  C   UNL     1     -10.915 -14.692  23.435  0.00  0.00    +0.024 C 
ENDBRANCH   6  29
ENDBRANCH  14   4
BRANCH  10   1
ATOM      1  O   UNL     1      -5.684 -13.597  15.088  0.00  0.00    -0.391 OA
ATOM     32  H   UNL     1      -6.008 -12.985  14.405  0.00  0.00    +0.210 HD
ENDBRANCH  10   1
BRANCH  12  18
ATOM     18  C   UNL     1      -3.155 -12.366  14.233  0.00  0.00    +0.077 C 
ATOM     20  C   UNL     1      -1.897 -11.506  14.177  0.00  0.00    +0.017 C 
BRANCH  18  21
ATOM      2  O   UNL     1      -3.955 -13.606  12.314  0.00  0.00    -0.276 OA
ATOM      5  N   UNL     1      -4.149 -11.295  12.300  0.00  0.00    -0.312 N 
ATOM     21  C   UNL     1      -3.790 -12.515  12.854  0.00  0.00    +0.216 C 
ATOM     33  H   UNL     1      -3.993 -10.442  12.827  0.00  0.00    +0.149 HD
BRANCH   5  23
ATOM     23  C   UNL     1      -4.768 -11.179  10.998  0.00  0.00    +0.073 C 
ATOM     24  C   UNL     1      -6.009 -10.283  11.056  0.00  0.00    +0.022 C 
ATOM     25  C   UNL     1      -3.766 -10.672   9.955  0.00  0.00    +0.022 C 
ATOM     26  C   UNL     1      -5.658  -8.807  11.246  0.00  0.00    +0.002 C 
ATOM     27  C   UNL     1      -3.418  -9.196  10.146  0.00  0.00    +0.002 C 
ATOM     28  C   UNL     1      -4.669  -8.323  10.190  0.00  0.00    +0.000 C 
ENDBRANCH   5  23
ENDBRANCH  18  21
ENDBRANCH  12  18
TORSDOF 6
ENDMDL
MODEL 5
REMARK VINA RESULT:      -6.6     27.582     29.446
REMARK  Name = 28963137
REMARK  10 active torsions:
REMARK  status: ('A' for Active; 'I' for Inactive)
REMARK    1  A    between atoms: O_1  and  C_10
REMARK    2  A    between atoms: N_4  and  C_14
REMARK    3  A    between atoms: N_5  and  C_23
REMARK    4  A    between atoms: N_6  and  C_29
REMARK    5  A    between atoms: C_7  and  C_17
REMARK    6  A    between atoms: C_9  and  C_19
REMARK    7  A    between atoms: C_12  and  C_18
REMARK    8  A    between atoms: C_18  and  C_20
REMARK    9  A    between atoms: C_18  and  C_21
REMARK   10  A    between atoms: C_29  and  C_30
REMARK                            x       y       z     vdW  Elec       q    Type
REMARK                         _______ _______ _______ _____ _____    ______ ____
ROOT
ATOM      7  C   UNL     1      12.268   8.905  17.825  0.00  0.00    -0.027 C 
ATOM      8  C   UNL     1      12.998  10.122  18.484  0.00  0.00    +0.028 C 
ATOM      9  C   UNL     1      14.377  10.395  17.781  0.00  0.00    +0.012 C 
ATOM     10  C   UNL     1      13.056   9.974  20.032  0.00  0.00    +0.122 C 
ATOM     11  C   UNL     1      10.869   8.735  18.464  0.00  0.00    +0.007 C 
ATOM     12  C   UNL     1      11.668   9.700  20.655  0.00  0.00    +0.029 C 
ATOM     13  C   UNL     1      12.066   9.194  16.320  0.00  0.00    +0.009 C 
ATOM     14  C   UNL     1      14.168  10.610  16.255  0.00  0.00    +0.078 C 
ATOM     15  C   UNL     1      10.925   8.550  19.975  0.00  0.00    +0.007 C 
ATOM     16  C   UNL     1      13.366   9.493  15.588  0.00  0.00    +0.023 C 
ATOM     17  C   UNL     1      13.055   7.580  17.988  0.00  0.00    +0.011 C 
ATOM     19  C   UNL     1      15.137  11.599  18.363  0.00  0.00    +0.010 C 
ENDROOT
BRANCH  14   4
ATOM      3  O   UNL     1      14.735  12.344  14.018  0.00  0.00    -0.253 OA
ATOM      4  N   UNL     1      15.429  10.749  15.557  0.00  0.00    -0.296 N 
ATOM      6  N   UNL     1      16.915  11.550  14.001  0.00  0.00    -0.300 N 
ATOM     22  C   UNL     1      15.611  11.615  14.484  0.00  0.00    +0.300 C 
ATOM     31  H   UNL     1      16.193  10.131  15.812  0.00  0.00    +0.151 HD
ATOM     34  H   UNL     1      17.575  10.927  14.457  0.00  0.00    +0.150 HD
BRANCH   6  29
ATOM     29  C   UNL     1      17.379  12.345  12.888  0.00  0.00    +0.102 C 
ATOM     30  C   UNL     1      18.881  12.529  12.925  0.00  0.00    +0.024 C 
ENDBRANCH   6  29
ENDBRANCH  14   4
BRANCH  10   1
ATOM      1  O   UNL     1      13.531  11.190  20.611  0.00  0.00    -0.391 OA
ATOM     32  H   UNL     1      13.169  11.259  21.511  0.00  0.00    +0.210 HD
ENDBRANCH  10   1
BRANCH  12  18
ATOM     18  C   UNL     1      11.764   9.427  22.162  0.00  0.00    +0.077 C 
ATOM     20  C   UNL     1      10.974   8.171  22.519  0.00  0.00    +0.017 C 
BRANCH  18  21
ATOM      2  O   UNL     1      10.918  10.573  24.119  0.00  0.00    -0.276 OA
ATOM      5  N   UNL     1      11.255  11.796  22.178  0.00  0.00    -0.312 N 
ATOM     21  C   UNL     1      11.266  10.639  22.943  0.00  0.00    +0.216 C 
ATOM     33  H   UNL     1      11.580  11.762  21.217  0.00  0.00    +0.149 HD
BRANCH   5  23
ATOM     23  C   UNL     1      10.821  13.073  22.698  0.00  0.00    +0.073 C 
ATOM     24  C   UNL     1      11.967  13.792  23.419  0.00  0.00    +0.022 C 
ATOM     25  C   UNL     1      10.229  13.948  21.589  0.00  0.00    +0.022 C 
ATOM     26  C   UNL     1      13.029  14.316  22.452  0.00  0.00    +0.002 C 
ATOM     27  C   UNL     1      11.293  14.472  20.625  0.00  0.00    +0.002 C 
ATOM     28  C   UNL     1      12.417  15.193  21.364  0.00  0.00    +0.000 C 
ENDBRANCH   5  23
ENDBRANCH  18  21
ENDBRANCH  12  18
TORSDOF 6
ENDMDL
MODEL 6
REMARK VINA RESULT:      -6.5     18.936     22.234
REMARK  Name = 28963137
REMARK  10 active torsions:
REMARK  status: ('A' for Active; 'I' for Inactive)
REMARK    1  A    between atoms: O_1  and  C_10
REMARK    2  A    between atoms: N_4  and  C_14
REMARK    3  A    between atoms: N_5  and  C_23
REMARK    4  A    between atoms: N_6  and  C_29
REMARK    5  A    between atoms: C_7  and  C_17
REMARK    6  A    between atoms: C_9  and  C_19
REMARK    7  A    between atoms: C_12  and  C_18
REMARK    8  A    between atoms: C_18  and  C_20
REMARK    9  A    between atoms: C_18  and  C_21
REMARK   10  A    between atoms: C_29  and  C_30
REMARK                            x       y       z     vdW  Elec       q    Type
REMARK                         _______ _______ _______ _____ _____    ______ ____
ROOT
ATOM      7  C   UNL     1     -14.458   8.460  20.037  0.00  0.00    -0.027 C 
ATOM      8  C   UNL     1     -13.490   7.249  20.253  0.00  0.00    +0.028 C 
ATOM      9  C   UNL     1     -13.624   6.679  21.712  0.00  0.00    +0.012 C 
ATOM     10  C   UNL     1     -12.042   7.597  19.802  0.00  0.00    +0.122 C 
ATOM     11  C   UNL     1     -14.384   8.922  18.563  0.00  0.00    +0.007 C 
ATOM     12  C   UNL     1     -11.987   8.158  18.363  0.00  0.00    +0.029 C 
ATOM     13  C   UNL     1     -15.908   8.000  20.314  0.00  0.00    +0.009 C 
ATOM     14  C   UNL     1     -15.100   6.291  22.004  0.00  0.00    +0.078 C 
ATOM     15  C   UNL     1     -12.973   9.302  18.130  0.00  0.00    +0.007 C 
ATOM     16  C   UNL     1     -16.094   7.413  21.705  0.00  0.00    +0.023 C 
ATOM     17  C   UNL     1     -14.120   9.661  20.954  0.00  0.00    +0.011 C 
ATOM     19  C   UNL     1     -12.718   5.466  21.984  0.00  0.00    +0.010 C 
ENDROOT
BRANCH  14   4
ATOM      3  O   UNL     1     -15.858   3.665  22.934  0.00  0.00    -0.253 OA
ATOM      4  N   UNL     1     -15.282   5.870  23.377  0.00  0.00    -0.296 N 
ATOM      6  N   UNL     1     -15.753   4.447  25.116  0.00  0.00    -0.300 N 
ATOM     22  C   UNL     1     -15.650   4.578  23.733  0.00  0.00    +0.300 C 
ATOM     31  H   UNL     1     -15.214   6.571  24.110  0.00  0.00    +0.151 HD
ATOM     34  H   UNL     1     -15.550   5.252  25.699  0.00  0.00    +0.150 HD
BRANCH   6  29
ATOM     29  C   UNL     1     -16.121   3.208  25.759  0.00  0.00    +0.102 C 
ATOM     30  C   UNL     1     -16.108   3.341  27.267  0.00  0.00    +0.024 C 
ENDBRANCH   6  29
ENDBRANCH  14   4
BRANCH  10   1
ATOM      1  O   UNL     1     -11.242   6.414  19.811  0.00  0.00    -0.391 OA
ATOM     32  H   UNL     1     -11.233   6.061  20.718  0.00  0.00    +0.210 HD
ENDBRANCH  10   1
BRANCH  12  18
ATOM     18  C   UNL     1     -10.573   8.618  17.984  0.00  0.00    +0.077 C 
ATOM     20  C   UNL     1     -10.050   9.611  19.016  0.00  0.00    +0.017 C 
BRANCH  18  21
ATOM      2  O   UNL     1     -10.323  10.403  16.368  0.00  0.00    -0.276 OA
ATOM      5  N   UNL     1     -10.904   8.291  15.606  0.00  0.00    -0.312 N 
ATOM     21  C   UNL     1     -10.579   9.221  16.583  0.00  0.00    +0.216 C 
ATOM     33  H   UNL     1     -11.082   7.328  15.872  0.00  0.00    +0.149 HD
BRANCH   5  23
ATOM     23  C   UNL     1     -10.976   8.626  14.201  0.00  0.00    +0.073 C 
ATOM     24  C   UNL     1     -10.534   7.446  13.330  0.00  0.00    +0.022 C 
ATOM     25  C   UNL     1     -12.381   9.102  13.819  0.00  0.00    +0.022 C 
ATOM     26  C   UNL     1     -11.557   6.310  13.321  0.00  0.00    +0.002 C 
ATOM     27  C   UNL     1     -13.402   7.964  13.809  0.00  0.00    +0.002 C 
ATOM     28  C   UNL     1     -12.946   6.806  12.928  0.00  0.00    +0.000 C 
ENDBRANCH   5  23
ENDBRANCH  18  21
ENDBRANCH  12  18
TORSDOF 6
ENDMDL
MODEL 7
REMARK VINA RESULT:      -6.5      2.843      8.163
REMARK  Name = 28963137
REMARK  10 active torsions:
REMARK  status: ('A' for Active; 'I' for Inactive)
REMARK    1  A    between atoms: O_1  and  C_10
REMARK    2  A    between atoms: N_4  and  C_14
REMARK    3  A    between atoms: N_5  and  C_23
REMARK    4  A    between atoms: N_6  and  C_29
REMARK    5  A    between atoms: C_7  and  C_17
REMARK    6  A    between atoms: C_9  and  C_19
REMARK    7  A    between atoms: C_12  and  C_18
REMARK    8  A    between atoms: C_18  and  C_20
REMARK    9  A    between atoms: C_18  and  C_21
REMARK   10  A    between atoms: C_29  and  C_30
REMARK                            x       y       z     vdW  Elec       q    Type
REMARK                         _______ _______ _______ _____ _____    ______ ____
ROOT
ATOM      7  C   UNL     1      -4.733 -11.156  16.959  0.00  0.00    -0.027 C 
ATOM      8  C   UNL     1      -5.633 -10.746  15.745  0.00  0.00    +0.028 C 
ATOM      9  C   UNL     1      -7.147 -11.037  16.049  0.00  0.00    +0.012 C 
ATOM     10  C   UNL     1      -5.091 -11.345  14.415  0.00  0.00    +0.122 C 
ATOM     11  C   UNL     1      -3.267 -10.753  16.673  0.00  0.00    +0.007 C 
ATOM     12  C   UNL     1      -3.596 -11.027  14.185  0.00  0.00    +0.029 C 
ATOM     13  C   UNL     1      -5.197 -10.382  18.213  0.00  0.00    +0.009 C 
ATOM     14  C   UNL     1      -7.582 -10.313  17.354  0.00  0.00    +0.078 C 
ATOM     15  C   UNL     1      -2.721 -11.369  15.391  0.00  0.00    +0.007 C 
ATOM     16  C   UNL     1      -6.666 -10.603  18.544  0.00  0.00    +0.023 C 
ATOM     17  C   UNL     1      -4.784 -12.677  17.250  0.00  0.00    +0.011 C 
ATOM     19  C   UNL     1      -8.093 -10.630  14.906  0.00  0.00    +0.010 C 
ENDROOT
BRANCH  14   4
ATOM      3  O   UNL     1      -9.803  -8.497  17.672  0.00  0.00    -0.253 OA
ATOM      4  N   UNL     1      -8.939 -10.652  17.728  0.00  0.00    -0.296 N 
ATOM      6  N   UNL     1     -11.153 -10.302  18.225  0.00  0.00    -0.300 N 
ATOM     22  C   UNL     1      -9.949  -9.705  17.857  0.00  0.00    +0.300 C 
ATOM     31  H   UNL     1      -9.144 -11.614  17.982  0.00  0.00    +0.151 HD
ATOM     34  H   UNL     1     -11.183 -11.310  18.344  0.00  0.00    +0.150 HD
BRANCH   6  29
ATOM     29  C   UNL     1     -12.369  -9.550  18.429  0.00  0.00    +0.102 C 
ATOM     30  C   UNL     1     -12.944  -9.789  19.809  0.00  0.00    +0.024 C 
ENDBRANCH   6  29
ENDBRANCH  14   4
BRANCH  10   1
ATOM      1  O   UNL     1      -5.804 -10.780  13.313  0.00  0.00    -0.391 OA
ATOM     32  H   UNL     1      -6.739 -10.695  13.569  0.00  0.00    +0.210 HD
ENDBRANCH  10   1
BRANCH  12  18
ATOM     18  C   UNL     1      -3.048 -11.733  12.938  0.00  0.00    +0.077 C 
ATOM     20  C   UNL     1      -1.769 -12.488  13.282  0.00  0.00    +0.017 C 
BRANCH  18  21
ATOM      2  O   UNL     1      -1.763 -10.088  11.712  0.00  0.00    -0.276 OA
ATOM      5  N   UNL     1      -3.906 -10.591  10.980  0.00  0.00    -0.312 N 
ATOM     21  C   UNL     1      -2.813 -10.716  11.826  0.00  0.00    +0.216 C 
ATOM     33  H   UNL     1      -4.727 -11.166  11.137  0.00  0.00    +0.149 HD
BRANCH   5  23
ATOM     23  C   UNL     1      -3.922  -9.687   9.851  0.00  0.00    +0.073 C 
ATOM     24  C   UNL     1      -4.490 -10.373   8.604  0.00  0.00    +0.022 C 
ATOM     25  C   UNL     1      -4.696  -8.407  10.182  0.00  0.00    +0.022 C 
ATOM     26  C   UNL     1      -5.998 -10.606   8.700  0.00  0.00    +0.002 C 
ATOM     27  C   UNL     1      -6.203  -8.642  10.275  0.00  0.00    +0.002 C 
ATOM     28  C   UNL     1      -6.747  -9.315   9.019  0.00  0.00    +0.000 C 
ENDBRANCH   5  23
ENDBRANCH  18  21
ENDBRANCH  12  18
TORSDOF 6
ENDMDL
MODEL 8
REMARK VINA RESULT:      -6.4      1.588      9.366
REMARK  Name = 28963137
REMARK  10 active torsions:
REMARK  status: ('A' for Active; 'I' for Inactive)
REMARK    1  A    between atoms: O_1  and  C_10
REMARK    2  A    between atoms: N_4  and  C_14
REMARK    3  A    between atoms: N_5  and  C_23
REMARK    4  A    between atoms: N_6  and  C_29
REMARK    5  A    between atoms: C_7  and  C_17
REMARK    6  A    between atoms: C_9  and  C_19
REMARK    7  A    between atoms: C_12  and  C_18
REMARK    8  A    between atoms: C_18  and  C_20
REMARK    9  A    between atoms: C_18  and  C_21
REMARK   10  A    between atoms: C_29  and  C_30
REMARK                            x       y       z     vdW  Elec       q    Type
REMARK                         _______ _______ _______ _____ _____    ______ ____
ROOT
ATOM      7  C   UNL     1      -3.373 -10.470  11.363  0.00  0.00    -0.027 C 
ATOM      8  C   UNL     1      -4.700 -10.106  12.111  0.00  0.00    +0.028 C 
ATOM      9  C   UNL     1      -4.848 -10.948  13.429  0.00  0.00    +0.012 C 
ATOM     10  C   UNL     1      -5.921 -10.152  11.147  0.00  0.00    +0.122 C 
ATOM     11  C   UNL     1      -3.203  -9.545  10.135  0.00  0.00    +0.007 C 
ATOM     12  C   UNL     1      -5.702  -9.308   9.870  0.00  0.00    +0.029 C 
ATOM     13  C   UNL     1      -2.177 -10.220  12.310  0.00  0.00    +0.009 C 
ATOM     14  C   UNL     1      -3.604 -10.747  14.339  0.00  0.00    +0.078 C 
ATOM     15  C   UNL     1      -4.380  -9.617   9.170  0.00  0.00    +0.007 C 
ATOM     16  C   UNL     1      -2.278 -10.990  13.618  0.00  0.00    +0.023 C 
ATOM     17  C   UNL     1      -3.346 -11.943  10.885  0.00  0.00    +0.011 C 
ATOM     19  C   UNL     1      -6.120 -10.619  14.230  0.00  0.00    +0.010 C 
ENDROOT
BRANCH  14   4
ATOM      3  O   UNL     1      -4.155  -9.939  17.055  0.00  0.00    -0.253 OA
ATOM      4  N   UNL     1      -3.653 -11.598  15.509  0.00  0.00    -0.296 N 
ATOM      6  N   UNL     1      -3.912 -12.148  17.723  0.00  0.00    -0.300 N 
ATOM     22  C   UNL     1      -3.928 -11.119  16.785  0.00  0.00    +0.300 C 
ATOM     31  H   UNL     1      -3.399 -12.576  15.406  0.00  0.00    +0.151 HD
ATOM     34  H   UNL     1      -3.727 -13.095  17.406  0.00  0.00    +0.150 HD
BRANCH   6  29
ATOM     29  C   UNL     1      -4.166 -11.931  19.128  0.00  0.00    +0.102 C 
ATOM     30  C   UNL     1      -5.649 -11.837  19.416  0.00  0.00    +0.024 C 
ENDBRANCH   6  29
ENDBRANCH  14   4
BRANCH  10   1
ATOM      1  O   UNL     1      -7.068  -9.610  11.804  0.00  0.00    -0.391 OA
ATOM     32  H   UNL     1      -7.018  -8.640  11.749  0.00  0.00    +0.210 HD
ENDBRANCH  10   1
BRANCH  12  18
ATOM     18  C   UNL     1      -6.858  -9.470   8.875  0.00  0.00    +0.077 C 
ATOM     20  C   UNL     1      -6.455 -10.418   7.752  0.00  0.00    +0.017 C 
BRANCH  18  21
ATOM      2  O   UNL     1      -6.828  -7.051   8.779  0.00  0.00    -0.276 OA
ATOM      5  N   UNL     1      -8.190  -8.202   7.296  0.00  0.00    -0.312 N 
ATOM     21  C   UNL     1      -7.272  -8.106   8.332  0.00  0.00    +0.216 C 
ATOM     33  H   UNL     1      -8.488  -9.118   6.977  0.00  0.00    +0.149 HD
BRANCH   5  23
ATOM     23  C   UNL     1      -8.732  -7.044   6.621  0.00  0.00    +0.073 C 
ATOM     24  C   UNL     1      -8.991  -7.341   5.140  0.00  0.00    +0.022 C 
ATOM     25  C   UNL     1     -10.002  -6.544   7.317  0.00  0.00    +0.022 C 
ATOM     26  C   UNL     1     -10.183  -8.275   4.930  0.00  0.00    +0.002 C 
ATOM     27  C   UNL     1     -11.193  -7.479   7.104  0.00  0.00    +0.002 C 
ATOM     28  C   UNL     1     -11.437  -7.751   5.623  0.00  0.00    +0.000 C 
ENDBRANCH   5  23
ENDBRANCH  18  21
ENDBRANCH  12  18
TORSDOF 6
ENDMDL
MODEL 9
REMARK VINA RESULT:      -6.4     23.765     26.799
REMARK  Name = 28963137
REMARK  10 active torsions:
REMARK  status: ('A' for Active; 'I' for Inactive)
REMARK    1  A    between atoms: O_1  and  C_10
REMARK    2  A    between atoms: N_4  and  C_14
REMARK    3  A    between atoms: N_5  and  C_23
REMARK    4  A    between atoms: N_6  and  C_29
REMARK    5  A    between atoms: C_7  and  C_17
REMARK    6  A    between atoms: C_9  and  C_19
REMARK    7  A    between atoms: C_12  and  C_18
REMARK    8  A    between atoms: C_18  and  C_20
REMARK    9  A    between atoms: C_18  and  C_21
REMARK   10  A    between atoms: C_29  and  C_30
REMARK                            x       y       z     vdW  Elec       q    Type
REMARK                         _______ _______ _______ _____ _____    ______ ____
ROOT
ATOM      7  C   UNL     1       9.571   6.056   5.781  0.00  0.00    -0.027 C 
ATOM      8  C   UNL     1      10.507   7.239   5.362  0.00  0.00    +0.028 C 
ATOM      9  C   UNL     1       9.990   8.598   5.956  0.00  0.00    +0.012 C 
ATOM     10  C   UNL     1      10.766   7.236   3.827  0.00  0.00    +0.122 C 
ATOM     11  C   UNL     1      10.169   4.722   5.276  0.00  0.00    +0.007 C 
ATOM     12  C   UNL     1      11.265   5.866   3.312  0.00  0.00    +0.029 C 
ATOM     13  C   UNL     1       9.505   5.989   7.324  0.00  0.00    +0.009 C 
ATOM     14  C   UNL     1       9.856   8.494   7.501  0.00  0.00    +0.078 C 
ATOM     15  C   UNL     1      10.388   4.701   3.769  0.00  0.00    +0.007 C 
ATOM     16  C   UNL     1       9.035   7.288   7.960  0.00  0.00    +0.023 C 
ATOM     17  C   UNL     1       8.136   6.204   5.215  0.00  0.00    +0.011 C 
ATOM     19  C   UNL     1      10.881   9.802   5.605  0.00  0.00    +0.010 C 
ENDROOT
BRANCH  14   4
ATOM      3  O   UNL     1      11.189  10.480   9.117  0.00  0.00    -0.253 OA
ATOM      4  N   UNL     1       9.272   9.690   8.070  0.00  0.00    -0.296 N 
ATOM      6  N   UNL     1       9.192  11.652   9.259  0.00  0.00    -0.300 N 
ATOM     22  C   UNL     1       9.995  10.595   8.840  0.00  0.00    +0.300 C 
ATOM     31  H   UNL     1       8.272   9.835   7.968  0.00  0.00    +0.151 HD
ATOM     34  H   UNL     1       8.218  11.670   8.972  0.00  0.00    +0.150 HD
BRANCH   6  29
ATOM     29  C   UNL     1       9.687  12.736  10.074  0.00  0.00    +0.102 C 
ATOM     30  C   UNL     1       9.586  12.412  11.550  0.00  0.00    +0.024 C 
ENDBRANCH   6  29
ENDBRANCH  14   4
BRANCH  10   1
ATOM      1  O   UNL     1      11.785   8.186   3.514  0.00  0.00    -0.391 OA
ATOM     32  H   UNL     1      11.975   8.124   2.562  0.00  0.00    +0.210 HD
ENDBRANCH  10   1
BRANCH  12  18
ATOM     18  C   UNL     1      11.389   5.844   1.783  0.00  0.00    +0.077 C 
ATOM     20  C   UNL     1      10.047   5.486   1.153  0.00  0.00    +0.017 C 
BRANCH  18  21
ATOM      2  O   UNL     1      13.432   4.580   2.088  0.00  0.00    -0.276 OA
ATOM      5  N   UNL     1      12.270   4.344   0.095  0.00  0.00    -0.312 N 
ATOM     21  C   UNL     1      12.480   4.863   1.364  0.00  0.00    +0.216 C 
ATOM     33  H   UNL     1      11.444   4.620  -0.427  0.00  0.00    +0.149 HD
BRANCH   5  23
ATOM     23  C   UNL     1      13.171   3.396  -0.521  0.00  0.00    +0.073 C 
ATOM     24  C   UNL     1      12.416   2.452  -1.465  0.00  0.00    +0.022 C 
ATOM     25  C   UNL     1      14.312   4.112  -1.250  0.00  0.00    +0.022 C 
ATOM     26  C   UNL     1      11.951   3.151  -2.742  0.00  0.00    +0.002 C 
ATOM     27  C   UNL     1      13.845   4.808  -2.528  0.00  0.00    +0.002 C 
ATOM     28  C   UNL     1      13.107   3.847  -3.455  0.00  0.00    +0.000 C 
ENDBRANCH   5  23
ENDBRANCH  18  21
ENDBRANCH  12  18
TORSDOF 6
ENDMDL
MODEL 10
REMARK VINA RESULT:      -6.3      3.572      7.704
REMARK  Name = 28963137
REMARK  10 active torsions:
REMARK  status: ('A' for Active; 'I' for Inactive)
REMARK    1  A    between atoms: O_1  and  C_10
REMARK    2  A    between atoms: N_4  and  C_14
REMARK    3  A    between atoms: N_5  and  C_23
REMARK    4  A    between atoms: N_6  and  C_29
REMARK    5  A    between atoms: C_7  and  C_17
REMARK    6  A    between atoms: C_9  and  C_19
REMARK    7  A    between atoms: C_12  and  C_18
REMARK    8  A    between atoms: C_18  and  C_20
REMARK    9  A    between atoms: C_18  and  C_21
REMARK   10  A    between atoms: C_29  and  C_30
REMARK                            x       y       z     vdW  Elec       q    Type
REMARK                         _______ _______ _______ _____ _____    ______ ____
ROOT
ATOM      7  C   UNL     1      -6.218 -11.466  18.525  0.00  0.00    -0.027 C 
ATOM      8  C   UNL     1      -6.244 -10.447  17.337  0.00  0.00    +0.028 C 
ATOM      9  C   UNL     1      -7.688 -10.334  16.728  0.00  0.00    +0.012 C 
ATOM     10  C   UNL     1      -5.109 -10.744  16.314  0.00  0.00    +0.122 C 
ATOM     11  C   UNL     1      -4.813 -11.468  19.171  0.00  0.00    +0.007 C 
ATOM     12  C   UNL     1      -3.719 -10.849  16.983  0.00  0.00    +0.029 C 
ATOM     13  C   UNL     1      -7.231 -11.011  19.600  0.00  0.00    +0.009 C 
ATOM     14  C   UNL     1      -8.710  -9.950  17.835  0.00  0.00    +0.078 C 
ATOM     15  C   UNL     1      -3.703 -11.798  18.181  0.00  0.00    +0.007 C 
ATOM     16  C   UNL     1      -8.646 -10.858  19.063  0.00  0.00    +0.023 C 
ATOM     17  C   UNL     1      -6.563 -12.909  18.077  0.00  0.00    +0.011 C 
ATOM     19  C   UNL     1      -7.792  -9.326  15.571  0.00  0.00    +0.010 C 
ENDROOT
BRANCH  14   4
ATOM      3  O   UNL     1     -10.394  -7.652  17.372  0.00  0.00    -0.253 OA
ATOM      4  N   UNL     1     -10.068  -9.950  17.334  0.00  0.00    -0.296 N 
ATOM      6  N   UNL     1     -12.078  -9.076  16.652  0.00  0.00    -0.300 N 
ATOM     22  C   UNL     1     -10.807  -8.788  17.142  0.00  0.00    +0.300 C 
ATOM     31  H   UNL     1     -10.530 -10.844  17.190  0.00  0.00    +0.151 HD
ATOM     34  H   UNL     1     -12.328 -10.045  16.480  0.00  0.00    +0.150 HD
BRANCH   6  29
ATOM     29  C   UNL     1     -13.055  -8.053  16.363  0.00  0.00    +0.102 C 
ATOM     30  C   UNL     1     -14.455  -8.506  16.720  0.00  0.00    +0.024 C 
ENDBRANCH   6  29
ENDBRANCH  14   4
BRANCH  10   1
ATOM      1  O   UNL     1      -5.029  -9.677  15.368  0.00  0.00    -0.391 OA
ATOM     32  H   UNL     1      -5.665  -9.857  14.654  0.00  0.00    +0.210 HD
ENDBRANCH  10   1
BRANCH  12  18
ATOM     18  C   UNL     1      -2.636 -11.271  15.982  0.00  0.00    +0.077 C 
ATOM     20  C   UNL     1      -1.833 -10.054  15.534  0.00  0.00    +0.017 C 
BRANCH  18  21
ATOM      2  O   UNL     1      -3.689 -13.140  14.860  0.00  0.00    -0.276 OA
ATOM      5  N   UNL     1      -3.328 -11.188  13.660  0.00  0.00    -0.312 N 
ATOM     21  C   UNL     1      -3.275 -11.985  14.795  0.00  0.00    +0.216 C 
ATOM     33  H   UNL     1      -2.980 -10.236  13.703  0.00  0.00    +0.149 HD
BRANCH   5  23
ATOM     23  C   UNL     1      -3.889 -11.646  12.409  0.00  0.00    +0.073 C 
ATOM     24  C   UNL     1      -5.284 -11.055  12.182  0.00  0.00    +0.022 C 
ATOM     25  C   UNL     1      -2.954 -11.328  11.237  0.00  0.00    +0.022 C 
ATOM     26  C   UNL     1      -5.242  -9.563  11.852  0.00  0.00    +0.002 C 
ATOM     27  C   UNL     1      -2.915  -9.835  10.908  0.00  0.00    +0.002 C 
ATOM     28  C   UNL     1      -4.314  -9.273  10.676  0.00  0.00    +0.000 C 
ENDBRANCH   5  23
ENDBRANCH  18  21
ENDBRANCH  12  18
TORSDOF 6
ENDMDL
