MODEL 1
REMARK VINA RESULT:      -6.6      0.000      0.000
REMARK  Name = 7143040
REMARK  9 active torsions:
REMARK  status: ('A' for Active; 'I' for Inactive)
REMARK    1  A    between atoms: O_4  and  C_28
REMARK    2  A    between atoms: O_4  and  C_33
REMARK    3  A    between atoms: N_7  and  C_21
REMARK    4  A    between atoms: N_8  and  C_27
REMARK    5  A    between atoms: C_16  and  C_19
REMARK    6  A    between atoms: C_19  and  C_20
REMARK    7  A    between atoms: C_20  and  C_23
REMARK    8  A    between atoms: C_20  and  C_24
REMARK    9  A    between atoms: C_20  and  C_25
REMARK                            x       y       z     vdW  Elec       q    Type
REMARK                         _______ _______ _______ _____ _____    ______ ____
ROOT
ATOM      1  O   UNL     1      -5.421 -14.652  12.718  0.00  0.00    -0.276 OA
ATOM      2  O   UNL     1      -6.431  -9.547  13.980  0.00  0.00    -0.266 OA
ATOM      5  N   UNL     1      -3.452 -13.515  13.195  0.00  0.00    -0.301 N 
ATOM      6  N   UNL     1      -4.330 -10.565  14.063  0.00  0.00    -0.310 N 
ATOM      9  C   UNL     1      -3.095 -11.368  11.969  0.00  0.00    +0.027 C 
ATOM     10  C   UNL     1      -2.078 -11.691  14.184  0.00  0.00    +0.054 C 
ATOM     11  C   UNL     1      -1.834 -11.122  12.787  0.00  0.00    +0.018 C 
ATOM     12  C   UNL     1      -3.395 -12.874  11.879  0.00  0.00    +0.113 C 
ATOM     13  C   UNL     1      -2.324 -13.209  14.088  0.00  0.00    +0.117 C 
ATOM     14  C   UNL     1      -4.255 -10.585  12.596  0.00  0.00    +0.130 C 
ATOM     15  C   UNL     1      -3.264 -11.018  14.849  0.00  0.00    +0.027 A 
ATOM     16  C   UNL     1      -4.483 -14.410  13.482  0.00  0.00    +0.216 C 
ATOM     17  C   UNL     1      -3.306 -10.883  16.185  0.00  0.00    +0.024 A 
ATOM     18  C   UNL     1      -5.477  -9.975  14.630  0.00  0.00    +0.273 A 
ATOM     21  C   UNL     1      -5.494  -9.867  16.124  0.00  0.00    +0.100 A 
ATOM     22  C   UNL     1      -4.445 -10.297  16.832  0.00  0.00    +0.030 A 
ENDROOT
BRANCH  21   7
ATOM      3  O   UNL     1      -7.895 -11.230  16.808  0.00  0.00    -0.252 OA
ATOM      7  N   UNL     1      -6.593  -9.313  16.713  0.00  0.00    -0.265 N 
ATOM      8  N   UNL     1      -8.695  -9.180  17.624  0.00  0.00    -0.266 N 
ATOM     26  C   UNL     1      -7.754 -10.029  17.031  0.00  0.00    +0.308 C 
ATOM     34  H   UNL     1      -6.663  -8.299  16.695  0.00  0.00    +0.157 HD
ATOM     35  H   UNL     1      -8.424  -8.207  17.737  0.00  0.00    +0.156 HD
BRANCH   8  27
ATOM     27  C   UNL     1      -9.990  -9.507  18.089  0.00  0.00    +0.077 A 
ATOM     28  C   UNL     1     -10.159 -10.297  19.227  0.00  0.00    +0.141 A 
ATOM     29  C   UNL     1     -11.105  -9.031  17.398  0.00  0.00    +0.027 A 
ATOM     30  C   UNL     1     -11.444 -10.612  19.672  0.00  0.00    +0.047 A 
ATOM     31  C   UNL     1     -12.388  -9.347  17.844  0.00  0.00    +0.002 A 
ATOM     32  C   UNL     1     -12.557 -10.136  18.982  0.00  0.00    +0.004 A 
BRANCH  28   4
ATOM      4  O   UNL     1      -9.083 -10.771  19.916  0.00  0.00    -0.493 OA
ATOM     33  C   UNL     1      -8.893 -12.185  19.927  0.00  0.00    +0.277 C 
ENDBRANCH  28   4
ENDBRANCH   8  27
ENDBRANCH  21   7
BRANCH  16  19
ATOM     19  C   UNL     1      -4.424 -15.101  14.819  0.00  0.00    +0.102 C 
BRANCH  19  20
ATOM     20  C   UNL     1      -5.483 -14.583  15.809  0.00  0.00    -0.029 C 
ATOM     23  C   UNL     1      -6.434 -15.749  16.137  0.00  0.00    +0.011 C 
ATOM     24  C   UNL     1      -4.832 -14.096  17.115  0.00  0.00    +0.011 C 
ATOM     25  C   UNL     1      -6.305 -13.439  15.191  0.00  0.00    +0.011 C 
ENDBRANCH  19  20
ENDBRANCH  16  19
TORSDOF 5
ENDMDL
MODEL 2
REMARK VINA RESULT:      -6.3     19.015     21.261
REMARK  Name = 7143040
REMARK  9 active torsions:
REMARK  status: ('A' for Active; 'I' for Inactive)
REMARK    1  A    between atoms: O_4  and  C_28
REMARK    2  A    between atoms: O_4  and  C_33
REMARK    3  A    between atoms: N_7  and  C_21
REMARK    4  A    between atoms: N_8  and  C_27
REMARK    5  A    between atoms: C_16  and  C_19
REMARK    6  A    between atoms: C_19  and  C_20
REMARK    7  A    between atoms: C_20  and  C_23
REMARK    8  A    between atoms: C_20  and  C_24
REMARK    9  A    between atoms: C_20  and  C_25
REMARK                            x       y       z     vdW  Elec       q    Type
REMARK                         _______ _______ _______ _____ _____    ______ ____
ROOT
ATOM      1  O   UNL     1     -14.350   9.699  16.469  0.00  0.00    -0.276 OA
ATOM      2  O   UNL     1     -15.576   7.710  21.287  0.00  0.00    -0.266 OA
ATOM      5  N   UNL     1     -12.655  10.136  17.998  0.00  0.00    -0.301 N 
ATOM      6  N   UNL     1     -13.547   8.724  20.725  0.00  0.00    -0.310 N 
ATOM      9  C   UNL     1     -13.356  11.210  20.142  0.00  0.00    +0.027 C 
ATOM     10  C   UNL     1     -11.352   9.786  20.089  0.00  0.00    +0.054 C 
ATOM     11  C   UNL     1     -11.930  11.079  20.661  0.00  0.00    +0.018 C 
ATOM     12  C   UNL     1     -13.367  11.263  18.605  0.00  0.00    +0.113 C 
ATOM     13  C   UNL     1     -11.318   9.872  18.550  0.00  0.00    +0.117 C 
ATOM     14  C   UNL     1     -14.191  10.044  20.685  0.00  0.00    +0.130 C 
ATOM     15  C   UNL     1     -12.171   8.583  20.520  0.00  0.00    +0.027 A 
ATOM     16  C   UNL     1     -13.225   9.462  16.918  0.00  0.00    +0.216 C 
ATOM     17  C   UNL     1     -11.584   7.385  20.675  0.00  0.00    +0.024 A 
ATOM     18  C   UNL     1     -14.365   7.632  21.080  0.00  0.00    +0.273 A 
ATOM     21  C   UNL     1     -13.676   6.310  21.219  0.00  0.00    +0.100 A 
ATOM     22  C   UNL     1     -12.355   6.227  21.031  0.00  0.00    +0.030 A 
ENDROOT
BRANCH  21   7
ATOM      3  O   UNL     1     -14.510   5.581  23.839  0.00  0.00    -0.252 OA
ATOM      7  N   UNL     1     -14.434   5.225  21.549  0.00  0.00    -0.265 N 
ATOM      8  N   UNL     1     -15.589   3.740  22.863  0.00  0.00    -0.266 N 
ATOM     26  C   UNL     1     -14.820   4.909  22.858  0.00  0.00    +0.308 C 
ATOM     34  H   UNL     1     -14.513   4.489  20.851  0.00  0.00    +0.157 HD
ATOM     35  H   UNL     1     -15.755   3.298  21.963  0.00  0.00    +0.156 HD
BRANCH   8  27
ATOM     27  C   UNL     1     -16.169   3.087  23.975  0.00  0.00    +0.077 A 
ATOM     28  C   UNL     1     -17.017   1.993  23.796  0.00  0.00    +0.141 A 
ATOM     29  C   UNL     1     -15.886   3.546  25.262  0.00  0.00    +0.027 A 
ATOM     30  C   UNL     1     -17.582   1.359  24.903  0.00  0.00    +0.047 A 
ATOM     31  C   UNL     1     -16.452   2.912  26.369  0.00  0.00    +0.002 A 
ATOM     32  C   UNL     1     -17.299   1.819  26.189  0.00  0.00    +0.004 A 
BRANCH  28   4
ATOM      4  O   UNL     1     -17.306   1.528  22.547  0.00  0.00    -0.493 OA
ATOM     33  C   UNL     1     -18.647   1.107  22.308  0.00  0.00    +0.277 C 
ENDBRANCH  28   4
ENDBRANCH   8  27
ENDBRANCH  21   7
BRANCH  16  19
ATOM     19  C   UNL     1     -12.394   8.375  16.285  0.00  0.00    +0.102 C 
BRANCH  19  20
ATOM     20  C   UNL     1     -11.819   8.781  14.917  0.00  0.00    -0.029 C 
ATOM     23  C   UNL     1     -10.458   8.080  14.749  0.00  0.00    +0.011 C 
ATOM     24  C   UNL     1     -12.744   8.338  13.771  0.00  0.00    +0.011 C 
ATOM     25  C   UNL     1     -11.599  10.302  14.836  0.00  0.00    +0.011 C 
ENDBRANCH  19  20
ENDBRANCH  16  19
TORSDOF 5
ENDMDL
MODEL 3
REMARK VINA RESULT:      -6.2     25.271     28.769
REMARK  Name = 7143040
REMARK  9 active torsions:
REMARK  status: ('A' for Active; 'I' for Inactive)
REMARK    1  A    between atoms: O_4  and  C_28
REMARK    2  A    between atoms: O_4  and  C_33
REMARK    3  A    between atoms: N_7  and  C_21
REMARK    4  A    between atoms: N_8  and  C_27
REMARK    5  A    between atoms: C_16  and  C_19
REMARK    6  A    between atoms: C_19  and  C_20
REMARK    7  A    between atoms: C_20  and  C_23
REMARK    8  A    between atoms: C_20  and  C_24
REMARK    9  A    between atoms: C_20  and  C_25
REMARK                            x       y       z     vdW  Elec       q    Type
REMARK                         _______ _______ _______ _____ _____    ______ ____
ROOT
ATOM      1  O   UNL     1      11.858   6.519   7.658  0.00  0.00    -0.276 OA
ATOM      2  O   UNL     1      12.316   8.786   2.829  0.00  0.00    -0.266 OA
ATOM      5  N   UNL     1      10.251   8.172   7.368  0.00  0.00    -0.301 N 
ATOM      6  N   UNL     1      10.631   9.249   4.381  0.00  0.00    -0.310 N 
ATOM      9  C   UNL     1      11.090  10.403   6.620  0.00  0.00    +0.027 C 
ATOM     10  C   UNL     1       8.801   9.707   6.052  0.00  0.00    +0.054 C 
ATOM     11  C   UNL     1       9.652  10.893   6.503  0.00  0.00    +0.018 C 
ATOM     12  C   UNL     1      11.190   9.262   7.646  0.00  0.00    +0.113 C 
ATOM     13  C   UNL     1       8.865   8.591   7.112  0.00  0.00    +0.117 C 
ATOM     14  C   UNL     1      11.583   9.976   5.232  0.00  0.00    +0.130 C 
ATOM     15  C   UNL     1       9.275   9.174   4.713  0.00  0.00    +0.027 A 
ATOM     16  C   UNL     1      10.689   6.850   7.444  0.00  0.00    +0.216 C 
ATOM     17  C   UNL     1       8.403   8.605   3.863  0.00  0.00    +0.024 A 
ATOM     18  C   UNL     1      11.134   8.727   3.172  0.00  0.00    +0.273 A 
ATOM     21  C   UNL     1      10.133   8.080   2.265  0.00  0.00    +0.100 A 
ATOM     22  C   UNL     1       8.844   8.048   2.616  0.00  0.00    +0.030 A 
ENDROOT
BRANCH  21   7
ATOM      3  O   UNL     1      10.222   5.317   1.596  0.00  0.00    -0.252 OA
ATOM      7  N   UNL     1      10.582   7.551   1.090  0.00  0.00    -0.265 N 
ATOM      8  N   UNL     1      11.119   5.961  -0.474  0.00  0.00    -0.266 N 
ATOM     26  C   UNL     1      10.605   6.179   0.809  0.00  0.00    +0.308 C 
ATOM     34  H   UNL     1      11.146   8.156   0.499  0.00  0.00    +0.157 HD
ATOM     35  H   UNL     1      11.395   6.785  -1.002  0.00  0.00    +0.156 HD
BRANCH   8  27
ATOM     27  C   UNL     1      11.308   4.725  -1.136  0.00  0.00    +0.077 A 
ATOM     28  C   UNL     1      12.342   3.867  -0.759  0.00  0.00    +0.141 A 
ATOM     29  C   UNL     1      10.447   4.366  -2.173  0.00  0.00    +0.027 A 
ATOM     30  C   UNL     1      12.516   2.652  -1.422  0.00  0.00    +0.047 A 
ATOM     31  C   UNL     1      10.622   3.151  -2.835  0.00  0.00    +0.002 A 
ATOM     32  C   UNL     1      11.656   2.294  -2.459  0.00  0.00    +0.004 A 
BRANCH  28   4
ATOM      4  O   UNL     1      13.194   4.199   0.252  0.00  0.00    -0.493 OA
ATOM     33  C   UNL     1      13.255   3.310   1.366  0.00  0.00    +0.277 C 
ENDBRANCH  28   4
ENDBRANCH   8  27
ENDBRANCH  21   7
BRANCH  16  19
ATOM     19  C   UNL     1       9.647   5.781   7.237  0.00  0.00    +0.102 C 
BRANCH  19  20
ATOM     20  C   UNL     1       9.710   5.145   5.837  0.00  0.00    -0.029 C 
ATOM     23  C   UNL     1       9.899   3.627   6.015  0.00  0.00    +0.011 C 
ATOM     24  C   UNL     1       8.408   5.390   5.056  0.00  0.00    +0.011 C 
ATOM     25  C   UNL     1      10.900   5.695   5.032  0.00  0.00    +0.011 C 
ENDBRANCH  19  20
ENDBRANCH  16  19
TORSDOF 5
ENDMDL
MODEL 4
REMARK VINA RESULT:      -6.2     26.251     30.489
REMARK  Name = 7143040
REMARK  9 active torsions:
REMARK  status: ('A' for Active; 'I' for Inactive)
REMARK    1  A    between atoms: O_4  and  C_28
REMARK    2  A    between atoms: O_4  and  C_33
REMARK    3  A    between atoms: N_7  and  C_21
REMARK    4  A    between atoms: N_8  and  C_27
REMARK    5  A    between atoms: C_16  and  C_19
REMARK    6  A    between atoms: C_19  and  C_20
REMARK    7  A    between atoms: C_20  and  C_23
REMARK    8  A    between atoms: C_20  and  C_24
REMARK    9  A    between atoms: C_20  and  C_25
REMARK                            x       y       z     vdW  Elec       q    Type
REMARK                         _______ _______ _______ _____ _____    ______ ____
ROOT
ATOM      1  O   UNL     1      10.648   4.344   3.823  0.00  0.00    -0.276 OA
ATOM      2  O   UNL     1      13.997   6.597   7.341  0.00  0.00    -0.266 OA
ATOM      5  N   UNL     1       9.533   5.897   5.144  0.00  0.00    -0.301 N 
ATOM      6  N   UNL     1      11.761   7.201   7.032  0.00  0.00    -0.310 N 
ATOM      9  C   UNL     1       9.813   5.644   7.614  0.00  0.00    +0.027 C 
ATOM     10  C   UNL     1       9.359   7.864   6.659  0.00  0.00    +0.054 C 
ATOM     11  C   UNL     1       9.028   6.933   7.824  0.00  0.00    +0.018 C 
ATOM     12  C   UNL     1       9.418   4.983   6.282  0.00  0.00    +0.113 C 
ATOM     13  C   UNL     1       8.909   7.215   5.335  0.00  0.00    +0.117 C 
ATOM     14  C   UNL     1      11.312   5.959   7.678  0.00  0.00    +0.130 C 
ATOM     15  C   UNL     1      10.845   8.167   6.606  0.00  0.00    +0.027 A 
ATOM     16  C   UNL     1      10.128   5.455   3.962  0.00  0.00    +0.216 C 
ATOM     17  C   UNL     1      11.279   9.344   6.124  0.00  0.00    +0.024 A 
ATOM     18  C   UNL     1      13.153   7.409   6.962  0.00  0.00    +0.273 A 
ATOM     21  C   UNL     1      13.596   8.724   6.397  0.00  0.00    +0.100 A 
ATOM     22  C   UNL     1      12.683   9.624   6.019  0.00  0.00    +0.030 A 
ENDROOT
BRANCH  21   7
ATOM      3  O   UNL     1      15.373   7.550   4.512  0.00  0.00    -0.252 OA
ATOM      7  N   UNL     1      14.936   8.960   6.300  0.00  0.00    -0.265 N 
ATOM      8  N   UNL     1      17.086   8.804   5.511  0.00  0.00    -0.266 N 
ATOM     26  C   UNL     1      15.770   8.355   5.351  0.00  0.00    +0.308 C 
ATOM     34  H   UNL     1      15.384   9.401   7.099  0.00  0.00    +0.157 HD
ATOM     35  H   UNL     1      17.251   9.474   6.258  0.00  0.00    +0.156 HD
BRANCH   8  27
ATOM     27  C   UNL     1      18.226   8.439   4.760  0.00  0.00    +0.077 A 
ATOM     28  C   UNL     1      19.415   8.082   5.398  0.00  0.00    +0.141 A 
ATOM     29  C   UNL     1      18.155   8.436   3.367  0.00  0.00    +0.027 A 
ATOM     30  C   UNL     1      20.532   7.724   4.642  0.00  0.00    +0.047 A 
ATOM     31  C   UNL     1      19.272   8.079   2.612  0.00  0.00    +0.002 A 
ATOM     32  C   UNL     1      20.460   7.722   3.250  0.00  0.00    +0.004 A 
BRANCH  28   4
ATOM      4  O   UNL     1      19.506   8.078   6.758  0.00  0.00    -0.493 OA
ATOM     33  C   UNL     1      20.570   8.830   7.338  0.00  0.00    +0.277 C 
ENDBRANCH  28   4
ENDBRANCH   8  27
ENDBRANCH  21   7
BRANCH  16  19
ATOM     19  C   UNL     1      10.128   6.419   2.804  0.00  0.00    +0.102 C 
BRANCH  19  20
ATOM     20  C   UNL     1      11.518   7.020   2.526  0.00  0.00    -0.029 C 
ATOM     23  C   UNL     1      11.986   6.511   1.150  0.00  0.00    +0.011 C 
ATOM     24  C   UNL     1      11.461   8.557   2.488  0.00  0.00    +0.011 C 
ATOM     25  C   UNL     1      12.538   6.573   3.587  0.00  0.00    +0.011 C 
ENDBRANCH  19  20
ENDBRANCH  16  19
TORSDOF 5
ENDMDL
MODEL 5
REMARK VINA RESULT:      -6.2      3.744      5.742
REMARK  Name = 7143040
REMARK  9 active torsions:
REMARK  status: ('A' for Active; 'I' for Inactive)
REMARK    1  A    between atoms: O_4  and  C_28
REMARK    2  A    between atoms: O_4  and  C_33
REMARK    3  A    between atoms: N_7  and  C_21
REMARK    4  A    between atoms: N_8  and  C_27
REMARK    5  A    between atoms: C_16  and  C_19
REMARK    6  A    between atoms: C_19  and  C_20
REMARK    7  A    between atoms: C_20  and  C_23
REMARK    8  A    between atoms: C_20  and  C_24
REMARK    9  A    between atoms: C_20  and  C_25
REMARK                            x       y       z     vdW  Elec       q    Type
REMARK                         _______ _______ _______ _____ _____    ______ ____
ROOT
ATOM      1  O   UNL     1      -6.686 -14.024   8.484  0.00  0.00    -0.276 OA
ATOM      2  O   UNL     1      -8.585  -9.863  11.268  0.00  0.00    -0.266 OA
ATOM      5  N   UNL     1      -6.087 -12.016   7.479  0.00  0.00    -0.301 N 
ATOM      6  N   UNL     1      -7.193  -9.710   9.398  0.00  0.00    -0.310 N 
ATOM      9  C   UNL     1      -7.945 -10.402   7.051  0.00  0.00    +0.027 C 
ATOM     10  C   UNL     1      -5.660  -9.566   7.403  0.00  0.00    +0.054 C 
ATOM     11  C   UNL     1      -6.928  -9.374   6.573  0.00  0.00    +0.018 C 
ATOM     12  C   UNL     1      -7.402 -11.828   6.860  0.00  0.00    +0.113 C 
ATOM     13  C   UNL     1      -5.094 -10.979   7.163  0.00  0.00    +0.117 C 
ATOM     14  C   UNL     1      -8.297 -10.110   8.515  0.00  0.00    +0.130 C 
ATOM     15  C   UNL     1      -5.940  -9.367   8.882  0.00  0.00    +0.027 A 
ATOM     16  C   UNL     1      -5.837 -13.165   8.230  0.00  0.00    +0.216 C 
ATOM     17  C   UNL     1      -4.981  -8.893   9.695  0.00  0.00    +0.024 A 
ATOM     18  C   UNL     1      -7.493  -9.591  10.770  0.00  0.00    +0.273 A 
ATOM     21  C   UNL     1      -6.389  -9.082  11.645  0.00  0.00    +0.100 A 
ATOM     22  C   UNL     1      -5.213  -8.750  11.104  0.00  0.00    +0.030 A 
ENDROOT
BRANCH  21   7
ATOM      3  O   UNL     1      -5.406 -10.800  13.688  0.00  0.00    -0.252 OA
ATOM      7  N   UNL     1      -6.634  -8.964  12.982  0.00  0.00    -0.265 N 
ATOM      8  N   UNL     1      -6.557  -9.449  15.224  0.00  0.00    -0.266 N 
ATOM     26  C   UNL     1      -6.125  -9.838  13.951  0.00  0.00    +0.308 C 
ATOM     34  H   UNL     1      -7.411  -8.368  13.256  0.00  0.00    +0.157 HD
ATOM     35  H   UNL     1      -7.153  -8.627  15.272  0.00  0.00    +0.156 HD
BRANCH   8  27
ATOM     27  C   UNL     1      -6.268 -10.063  16.465  0.00  0.00    +0.077 A 
ATOM     28  C   UNL     1      -7.297 -10.493  17.303  0.00  0.00    +0.141 A 
ATOM     29  C   UNL     1      -4.938 -10.237  16.847  0.00  0.00    +0.027 A 
ATOM     30  C   UNL     1      -6.995 -11.097  18.524  0.00  0.00    +0.047 A 
ATOM     31  C   UNL     1      -4.637 -10.840  18.069  0.00  0.00    +0.002 A 
ATOM     32  C   UNL     1      -5.666 -11.270  18.907  0.00  0.00    +0.004 A 
BRANCH  28   4
ATOM      4  O   UNL     1      -8.603 -10.333  16.947  0.00  0.00    -0.493 OA
ATOM     33  C   UNL     1      -9.562 -10.297  18.003  0.00  0.00    +0.277 C 
ENDBRANCH  28   4
ENDBRANCH   8  27
ENDBRANCH  21   7
BRANCH  16  19
ATOM     19  C   UNL     1      -4.435 -13.335   8.757  0.00  0.00    +0.102 C 
BRANCH  19  20
ATOM     20  C   UNL     1      -4.339 -13.127  10.279  0.00  0.00    -0.029 C 
ATOM     23  C   UNL     1      -3.374 -11.955  10.535  0.00  0.00    +0.011 C 
ATOM     24  C   UNL     1      -5.710 -12.776  10.880  0.00  0.00    +0.011 C 
ATOM     25  C   UNL     1      -3.782 -14.381  10.975  0.00  0.00    +0.011 C 
ENDBRANCH  19  20
ENDBRANCH  16  19
TORSDOF 5
ENDMDL
MODEL 6
REMARK VINA RESULT:      -6.0     18.297     21.088
REMARK  Name = 7143040
REMARK  9 active torsions:
REMARK  status: ('A' for Active; 'I' for Inactive)
REMARK    1  A    between atoms: O_4  and  C_28
REMARK    2  A    between atoms: O_4  and  C_33
REMARK    3  A    between atoms: N_7  and  C_21
REMARK    4  A    between atoms: N_8  and  C_27
REMARK    5  A    between atoms: C_16  and  C_19
REMARK    6  A    between atoms: C_19  and  C_20
REMARK    7  A    between atoms: C_20  and  C_23
REMARK    8  A    between atoms: C_20  and  C_24
REMARK    9  A    between atoms: C_20  and  C_25
REMARK                            x       y       z     vdW  Elec       q    Type
REMARK                         _______ _______ _______ _____ _____    ______ ____
ROOT
ATOM      1  O   UNL     1     -11.205   6.812  18.607  0.00  0.00    -0.276 OA
ATOM      2  O   UNL     1     -12.152   7.361  13.365  0.00  0.00    -0.266 OA
ATOM      5  N   UNL     1     -11.609   9.037  18.070  0.00  0.00    -0.301 N 
ATOM      6  N   UNL     1     -12.296   9.075  14.947  0.00  0.00    -0.310 N 
ATOM      9  C   UNL     1     -10.253   9.981  16.196  0.00  0.00    +0.027 C 
ATOM     10  C   UNL     1     -12.483  10.901  16.673  0.00  0.00    +0.054 C 
ATOM     11  C   UNL     1     -11.054  11.274  16.283  0.00  0.00    +0.018 C 
ATOM     12  C   UNL     1     -10.257   9.253  17.551  0.00  0.00    +0.113 C 
ATOM     13  C   UNL     1     -12.481  10.221  18.056  0.00  0.00    +0.117 C 
ATOM     14  C   UNL     1     -10.832   9.113  15.074  0.00  0.00    +0.130 C 
ATOM     15  C   UNL     1     -13.106   9.976  15.644  0.00  0.00    +0.027 A 
ATOM     16  C   UNL     1     -11.952   7.795  18.605  0.00  0.00    +0.216 C 
ATOM     17  C   UNL     1     -14.432  10.001  15.426  0.00  0.00    +0.024 A 
ATOM     18  C   UNL     1     -12.826   8.161  14.015  0.00  0.00    +0.273 A 
ATOM     21  C   UNL     1     -14.311   8.204  13.819  0.00  0.00    +0.100 A 
ATOM     22  C   UNL     1     -15.043   9.095  14.495  0.00  0.00    +0.030 A 
ENDROOT
BRANCH  21   7
ATOM      3  O   UNL     1     -15.640   5.778  14.477  0.00  0.00    -0.252 OA
ATOM      7  N   UNL     1     -14.866   7.326  12.935  0.00  0.00    -0.265 N 
ATOM      8  N   UNL     1     -15.970   5.464  12.175  0.00  0.00    -0.266 N 
ATOM     26  C   UNL     1     -15.512   6.142  13.310  0.00  0.00    +0.308 C 
ATOM     34  H   UNL     1     -14.584   7.414  11.962  0.00  0.00    +0.157 HD
ATOM     35  H   UNL     1     -15.781   5.899  11.276  0.00  0.00    +0.156 HD
BRANCH   8  27
ATOM     27  C   UNL     1     -16.669   4.235  12.119  0.00  0.00    +0.077 A 
ATOM     28  C   UNL     1     -16.158   3.159  11.394  0.00  0.00    +0.141 A 
ATOM     29  C   UNL     1     -17.879   4.106  12.800  0.00  0.00    +0.027 A 
ATOM     30  C   UNL     1     -16.860   1.953  11.348  0.00  0.00    +0.047 A 
ATOM     31  C   UNL     1     -18.580   2.901  12.754  0.00  0.00    +0.002 A 
ATOM     32  C   UNL     1     -18.070   1.824  12.028  0.00  0.00    +0.004 A 
BRANCH  28   4
ATOM      4  O   UNL     1     -14.977   3.264  10.721  0.00  0.00    -0.493 OA
ATOM     33  C   UNL     1     -14.860   2.538   9.499  0.00  0.00    +0.277 C 
ENDBRANCH  28   4
ENDBRANCH   8  27
ENDBRANCH  21   7
BRANCH  16  19
ATOM     19  C   UNL     1     -13.329   7.674  19.205  0.00  0.00    +0.102 C 
BRANCH  19  20
ATOM     20  C   UNL     1     -13.306   7.556  20.739  0.00  0.00    -0.029 C 
ATOM     23  C   UNL     1     -14.757   7.370  21.221  0.00  0.00    +0.011 C 
ATOM     24  C   UNL     1     -12.479   6.340  21.191  0.00  0.00    +0.011 C 
ATOM     25  C   UNL     1     -12.735   8.830  21.385  0.00  0.00    +0.011 C 
ENDBRANCH  19  20
ENDBRANCH  16  19
TORSDOF 5
ENDMDL
MODEL 7
REMARK VINA RESULT:      -5.9      2.395      3.652
REMARK  Name = 7143040
REMARK  9 active torsions:
REMARK  status: ('A' for Active; 'I' for Inactive)
REMARK    1  A    between atoms: O_4  and  C_28
REMARK    2  A    between atoms: O_4  and  C_33
REMARK    3  A    between atoms: N_7  and  C_21
REMARK    4  A    between atoms: N_8  and  C_27
REMARK    5  A    between atoms: C_16  and  C_19
REMARK    6  A    between atoms: C_19  and  C_20
REMARK    7  A    between atoms: C_20  and  C_23
REMARK    8  A    between atoms: C_20  and  C_24
REMARK    9  A    between atoms: C_20  and  C_25
REMARK                            x       y       z     vdW  Elec       q    Type
REMARK                         _______ _______ _______ _____ _____    ______ ____
ROOT
ATOM      1  O   UNL     1      -7.601 -12.536  13.555  0.00  0.00    -0.276 OA
ATOM      2  O   UNL     1      -8.093  -9.092  17.625  0.00  0.00    -0.266 OA
ATOM      5  N   UNL     1      -5.685 -12.533  14.869  0.00  0.00    -0.301 N 
ATOM      6  N   UNL     1      -6.287 -10.536  17.293  0.00  0.00    -0.310 N 
ATOM      9  C   UNL     1      -4.667 -10.298  15.325  0.00  0.00    +0.027 C 
ATOM     10  C   UNL     1      -4.365 -12.128  16.939  0.00  0.00    +0.054 C 
ATOM     11  C   UNL     1      -3.658 -10.959  16.256  0.00  0.00    +0.018 C 
ATOM     12  C   UNL     1      -5.166 -11.301  14.271  0.00  0.00    +0.113 C 
ATOM     13  C   UNL     1      -4.814 -13.153  15.879  0.00  0.00    +0.117 C 
ATOM     14  C   UNL     1      -5.814  -9.724  16.164  0.00  0.00    +0.130 C 
ATOM     15  C   UNL     1      -5.566 -11.651  17.735  0.00  0.00    +0.027 A 
ATOM     16  C   UNL     1      -6.884 -13.073  14.403  0.00  0.00    +0.216 C 
ATOM     17  C   UNL     1      -5.953 -12.310  18.839  0.00  0.00    +0.024 A 
ATOM     18  C   UNL     1      -7.437 -10.077  17.966  0.00  0.00    +0.273 A 
ATOM     21  C   UNL     1      -7.848 -10.855  19.178  0.00  0.00    +0.100 A 
ATOM     22  C   UNL     1      -7.117 -11.902  19.572  0.00  0.00    +0.030 A 
ENDROOT
BRANCH  21   7
ATOM      3  O   UNL     1     -10.483 -11.861  18.811  0.00  0.00    -0.252 OA
ATOM      7  N   UNL     1      -8.964 -10.450  19.850  0.00  0.00    -0.265 N 
ATOM      8  N   UNL     1     -11.170 -10.357  20.476  0.00  0.00    -0.266 N 
ATOM     26  C   UNL     1     -10.243 -10.979  19.632  0.00  0.00    +0.308 C 
ATOM     34  H   UNL     1      -8.905  -9.566  20.348  0.00  0.00    +0.157 HD
ATOM     35  H   UNL     1     -10.809  -9.640  21.101  0.00  0.00    +0.156 HD
BRANCH   8  27
ATOM     27  C   UNL     1     -12.560 -10.600  20.569  0.00  0.00    +0.077 A 
ATOM     28  C   UNL     1     -13.039 -11.776  21.147  0.00  0.00    +0.141 A 
ATOM     29  C   UNL     1     -13.454  -9.649  20.078  0.00  0.00    +0.027 A 
ATOM     30  C   UNL     1     -14.414 -12.001  21.231  0.00  0.00    +0.047 A 
ATOM     31  C   UNL     1     -14.828  -9.875  20.162  0.00  0.00    +0.002 A 
ATOM     32  C   UNL     1     -15.308 -11.051  20.739  0.00  0.00    +0.004 A 
BRANCH  28   4
ATOM      4  O   UNL     1     -12.182 -12.718  21.633  0.00  0.00    -0.493 OA
ATOM     33  C   UNL     1     -12.729 -13.699  22.512  0.00  0.00    +0.277 C 
ENDBRANCH  28   4
ENDBRANCH   8  27
ENDBRANCH  21   7
BRANCH  16  19
ATOM     19  C   UNL     1      -7.308 -14.391  15.000  0.00  0.00    +0.102 C 
BRANCH  19  20
ATOM     20  C   UNL     1      -8.502 -14.256  15.961  0.00  0.00    -0.029 C 
ATOM     23  C   UNL     1      -9.680 -15.049  15.365  0.00  0.00    +0.011 C 
ATOM     24  C   UNL     1      -8.170 -14.838  17.346  0.00  0.00    +0.011 C 
ATOM     25  C   UNL     1      -8.928 -12.786  16.114  0.00  0.00    +0.011 C 
ENDBRANCH  19  20
ENDBRANCH  16  19
TORSDOF 5
ENDMDL
MODEL 8
REMARK VINA RESULT:      -5.8     26.024     28.882
REMARK  Name = 7143040
REMARK  9 active torsions:
REMARK  status: ('A' for Active; 'I' for Inactive)
REMARK    1  A    between atoms: O_4  and  C_28
REMARK    2  A    between atoms: O_4  and  C_33
REMARK    3  A    between atoms: N_7  and  C_21
REMARK    4  A    between atoms: N_8  and  C_27
REMARK    5  A    between atoms: C_16  and  C_19
REMARK    6  A    between atoms: C_19  and  C_20
REMARK    7  A    between atoms: C_20  and  C_23
REMARK    8  A    between atoms: C_20  and  C_24
REMARK    9  A    between atoms: C_20  and  C_25
REMARK                            x       y       z     vdW  Elec       q    Type
REMARK                         _______ _______ _______ _____ _____    ______ ____
ROOT
ATOM      1  O   UNL     1      12.961   6.179  -2.415  0.00  0.00    -0.276 OA
ATOM      2  O   UNL     1      13.331   7.868   2.652  0.00  0.00    -0.266 OA
ATOM      5  N   UNL     1      13.425   4.406  -0.987  0.00  0.00    -0.301 N 
ATOM      6  N   UNL     1      13.437   5.638   1.964  0.00  0.00    -0.310 N 
ATOM      9  C   UNL     1      15.365   4.714   0.556  0.00  0.00    +0.027 C 
ATOM     10  C   UNL     1      13.512   3.235   1.207  0.00  0.00    +0.054 C 
ATOM     11  C   UNL     1      15.032   3.385   1.223  0.00  0.00    +0.018 C 
ATOM     12  C   UNL     1      14.849   4.734  -0.893  0.00  0.00    +0.113 C 
ATOM     13  C   UNL     1      13.011   3.203  -0.250  0.00  0.00    +0.117 C 
ATOM     14  C   UNL     1      14.775   5.853   1.395  0.00  0.00    +0.130 C 
ATOM     15  C   UNL     1      12.843   4.372   1.957  0.00  0.00    +0.027 A 
ATOM     16  C   UNL     1      12.594   5.171  -1.806  0.00  0.00    +0.216 C 
ATOM     17  C   UNL     1      11.672   4.173   2.585  0.00  0.00    +0.024 A 
ATOM     18  C   UNL     1      12.838   6.741   2.604  0.00  0.00    +0.273 A 
ATOM     21  C   UNL     1      11.522   6.481   3.271  0.00  0.00    +0.100 A 
ATOM     22  C   UNL     1      11.001   5.251   3.254  0.00  0.00    +0.030 A 
ENDROOT
BRANCH  21   7
ATOM      3  O   UNL     1      11.963   7.346   5.945  0.00  0.00    -0.252 OA
ATOM      7  N   UNL     1      10.902   7.526   3.892  0.00  0.00    -0.265 N 
ATOM      8  N   UNL     1      10.362   9.016   5.552  0.00  0.00    -0.266 N 
ATOM     26  C   UNL     1      11.155   7.913   5.214  0.00  0.00    +0.308 C 
ATOM     34  H   UNL     1      10.052   7.879   3.459  0.00  0.00    +0.157 HD
ATOM     35  H   UNL     1       9.739   9.369   4.830  0.00  0.00    +0.156 HD
BRANCH   8  27
ATOM     27  C   UNL     1      10.315   9.707   6.785  0.00  0.00    +0.077 A 
ATOM     28  C   UNL     1       9.451   9.294   7.800  0.00  0.00    +0.141 A 
ATOM     29  C   UNL     1      11.146  10.810   6.982  0.00  0.00    +0.027 A 
ATOM     30  C   UNL     1       9.416   9.987   9.011  0.00  0.00    +0.047 A 
ATOM     31  C   UNL     1      11.111  11.502   8.193  0.00  0.00    +0.002 A 
ATOM     32  C   UNL     1      10.246  11.089   9.207  0.00  0.00    +0.004 A 
BRANCH  28   4
ATOM      4  O   UNL     1       8.631   8.219   7.628  0.00  0.00    -0.493 OA
ATOM     33  C   UNL     1       9.046   6.987   8.217  0.00  0.00    +0.277 C 
ENDBRANCH  28   4
ENDBRANCH   8  27
ENDBRANCH  21   7
BRANCH  16  19
ATOM     19  C   UNL     1      11.161   4.718  -1.926  0.00  0.00    +0.102 C 
BRANCH  19  20
ATOM     20  C   UNL     1      10.190   5.576  -1.094  0.00  0.00    -0.029 C 
ATOM     23  C   UNL     1       9.098   6.106  -2.042  0.00  0.00    +0.011 C 
ATOM     24  C   UNL     1       9.520   4.743   0.012  0.00  0.00    +0.011 C 
ATOM     25  C   UNL     1      10.914   6.776  -0.461  0.00  0.00    +0.011 C 
ENDBRANCH  19  20
ENDBRANCH  16  19
TORSDOF 5
ENDMDL
MODEL 9
REMARK VINA RESULT:      -5.8     21.420     23.662
REMARK  Name = 7143040
REMARK  9 active torsions:
REMARK  status: ('A' for Active; 'I' for Inactive)
REMARK    1  A    between atoms: O_4  and  C_28
REMARK    2  A    between atoms: O_4  and  C_33
REMARK    3  A    between atoms: N_7  and  C_21
REMARK    4  A    between atoms: N_8  and  C_27
REMARK    5  A    between atoms: C_16  and  C_19
REMARK    6  A    between atoms: C_19  and  C_20
REMARK    7  A    between atoms: C_20  and  C_23
REMARK    8  A    between atoms: C_20  and  C_24
REMARK    9  A    between atoms: C_20  and  C_25
REMARK                            x       y       z     vdW  Elec       q    Type
REMARK                         _______ _______ _______ _____ _____    ______ ____
ROOT
ATOM      1  O   UNL     1      -2.990  12.113   2.698  0.00  0.00    -0.276 OA
ATOM      2  O   UNL     1      -7.035  10.201   5.640  0.00  0.00    -0.266 OA
ATOM      5  N   UNL     1      -2.234  10.501   4.191  0.00  0.00    -0.301 N 
ATOM      6  N   UNL     1      -4.836   9.415   5.701  0.00  0.00    -0.310 N 
ATOM      9  C   UNL     1      -2.886  10.822   6.581  0.00  0.00    +0.027 C 
ATOM     10  C   UNL     1      -2.467   8.556   5.725  0.00  0.00    +0.054 C 
ATOM     11  C   UNL     1      -2.253   9.479   6.923  0.00  0.00    +0.018 C 
ATOM     12  C   UNL     1      -2.229  11.424   5.328  0.00  0.00    +0.113 C 
ATOM     13  C   UNL     1      -1.759   9.141   4.488  0.00  0.00    +0.117 C 
ATOM     14  C   UNL     1      -4.397  10.629   6.404  0.00  0.00    +0.130 C 
ATOM     15  C   UNL     1      -3.945   8.371   5.434  0.00  0.00    +0.027 A 
ATOM     16  C   UNL     1      -2.592  10.967   2.926  0.00  0.00    +0.216 C 
ATOM     17  C   UNL     1      -4.391   7.224   4.895  0.00  0.00    +0.024 A 
ATOM     18  C   UNL     1      -6.210   9.317   5.407  0.00  0.00    +0.273 A 
ATOM     21  C   UNL     1      -6.662   8.031   4.786  0.00  0.00    +0.100 A 
ATOM     22  C   UNL     1      -5.777   7.054   4.565  0.00  0.00    +0.030 A 
ENDROOT
BRANCH  21   7
ATOM      3  O   UNL     1      -8.630   6.697   6.347  0.00  0.00    -0.252 OA
ATOM      7  N   UNL     1      -7.984   7.901   4.474  0.00  0.00    -0.265 N 
ATOM      8  N   UNL     1     -10.182   7.275   4.684  0.00  0.00    -0.266 N 
ATOM     26  C   UNL     1      -8.915   7.233   5.279  0.00  0.00    +0.308 C 
ATOM     34  H   UNL     1      -8.249   8.082   3.509  0.00  0.00    +0.157 HD
ATOM     35  H   UNL     1     -10.252   7.759   3.793  0.00  0.00    +0.156 HD
BRANCH   8  27
ATOM     27  C   UNL     1     -11.389   6.722   5.171  0.00  0.00    +0.077 A 
ATOM     28  C   UNL     1     -12.263   7.489   5.941  0.00  0.00    +0.141 A 
ATOM     29  C   UNL     1     -11.702   5.396   4.872  0.00  0.00    +0.027 A 
ATOM     30  C   UNL     1     -13.451   6.929   6.415  0.00  0.00    +0.047 A 
ATOM     31  C   UNL     1     -12.889   4.836   5.347  0.00  0.00    +0.002 A 
ATOM     32  C   UNL     1     -13.763   5.603   6.117  0.00  0.00    +0.004 A 
BRANCH  28   4
ATOM      4  O   UNL     1     -11.976   8.787   6.244  0.00  0.00    -0.493 OA
ATOM     33  C   UNL     1     -11.382   9.039   7.516  0.00  0.00    +0.277 C 
ENDBRANCH  28   4
ENDBRANCH   8  27
ENDBRANCH  21   7
BRANCH  16  19
ATOM     19  C   UNL     1      -2.485   9.984   1.789  0.00  0.00    +0.102 C 
BRANCH  19  20
ATOM     20  C   UNL     1      -1.363  10.338   0.796  0.00  0.00    -0.029 C 
ATOM     23  C   UNL     1      -1.318   9.236  -0.279  0.00  0.00    +0.011 C 
ATOM     24  C   UNL     1      -1.636  11.686   0.106  0.00  0.00    +0.011 C 
ATOM     25  C   UNL     1       0.004  10.393   1.499  0.00  0.00    +0.011 C 
ENDBRANCH  19  20
ENDBRANCH  16  19
TORSDOF 5
ENDMDL
MODEL 10
REMARK VINA RESULT:      -5.8     27.058     31.224
REMARK  Name = 7143040
REMARK  9 active torsions:
REMARK  status: ('A' for Active; 'I' for Inactive)
REMARK    1  A    between atoms: O_4  and  C_28
REMARK    2  A    between atoms: O_4  and  C_33
REMARK    3  A    between atoms: N_7  and  C_21
REMARK    4  A    between atoms: N_8  and  C_27
REMARK    5  A    between atoms: C_16  and  C_19
REMARK    6  A    between atoms: C_19  and  C_20
REMARK    7  A    between atoms: C_20  and  C_23
REMARK    8  A    between atoms: C_20  and  C_24
REMARK    9  A    between atoms: C_20  and  C_25
REMARK                            x       y       z     vdW  Elec       q    Type
REMARK                         _______ _______ _______ _____ _____    ______ ____
ROOT
ATOM      1  O   UNL     1      10.185   8.798   5.045  0.00  0.00    -0.276 OA
ATOM      2  O   UNL     1      14.488   9.444   1.925  0.00  0.00    -0.266 OA
ATOM      5  N   UNL     1      10.080   7.397   3.195  0.00  0.00    -0.301 N 
ATOM      6  N   UNL     1      12.810   7.854   1.592  0.00  0.00    -0.310 N 
ATOM      9  C   UNL     1      10.408   8.485   0.970  0.00  0.00    +0.027 C 
ATOM     10  C   UNL     1      11.009   6.120   1.272  0.00  0.00    +0.054 C 
ATOM     11  C   UNL     1      10.367   7.114   0.306  0.00  0.00    +0.018 C 
ATOM     12  C   UNL     1       9.631   8.464   2.297  0.00  0.00    +0.113 C 
ATOM     13  C   UNL     1      10.192   6.067   2.577  0.00  0.00    +0.117 C 
ATOM     14  C   UNL     1      11.871   8.900   1.164  0.00  0.00    +0.130 C 
ATOM     15  C   UNL     1      12.445   6.504   1.577  0.00  0.00    +0.027 A 
ATOM     16  C   UNL     1      10.284   7.674   4.547  0.00  0.00    +0.216 C 
ATOM     17  C   UNL     1      13.354   5.556   1.861  0.00  0.00    +0.024 A 
ATOM     18  C   UNL     1      14.116   8.270   1.915  0.00  0.00    +0.273 A 
ATOM     21  C   UNL     1      15.092   7.184   2.249  0.00  0.00    +0.100 A 
ATOM     22  C   UNL     1      14.703   5.906   2.204  0.00  0.00    +0.030 A 
ENDROOT
BRANCH  21   7
ATOM      3  O   UNL     1      16.092   7.577   4.882  0.00  0.00    -0.252 OA
ATOM      7  N   UNL     1      16.365   7.547   2.580  0.00  0.00    -0.265 N 
ATOM      8  N   UNL     1      18.160   8.096   3.901  0.00  0.00    -0.266 N 
ATOM     26  C   UNL     1      16.810   7.728   3.896  0.00  0.00    +0.308 C 
ATOM     34  H   UNL     1      16.940   7.937   1.838  0.00  0.00    +0.157 HD
ATOM     35  H   UNL     1      18.613   8.180   2.995  0.00  0.00    +0.156 HD
BRANCH   8  27
ATOM     27  C   UNL     1      18.981   8.371   5.018  0.00  0.00    +0.077 A 
ATOM     28  C   UNL     1      20.122   7.608   5.268  0.00  0.00    +0.141 A 
ATOM     29  C   UNL     1      18.643   9.420   5.874  0.00  0.00    +0.027 A 
ATOM     30  C   UNL     1      20.922   7.891   6.375  0.00  0.00    +0.047 A 
ATOM     31  C   UNL     1      19.443   9.702   6.981  0.00  0.00    +0.002 A 
ATOM     32  C   UNL     1      20.583   8.938   7.231  0.00  0.00    +0.004 A 
BRANCH  28   4
ATOM      4  O   UNL     1      20.471   6.579   4.444  0.00  0.00    -0.493 OA
ATOM     33  C   UNL     1      21.807   6.574   3.944  0.00  0.00    +0.277 C 
ENDBRANCH  28   4
ENDBRANCH   8  27
ENDBRANCH  21   7
BRANCH  16  19
ATOM     19  C   UNL     1      10.654   6.508   5.427  0.00  0.00    +0.102 C 
BRANCH  19  20
ATOM     20  C   UNL     1       9.501   6.057   6.341  0.00  0.00    -0.029 C 
ATOM     23  C   UNL     1       9.727   4.575   6.691  0.00  0.00    +0.011 C 
ATOM     24  C   UNL     1       9.476   6.872   7.646  0.00  0.00    +0.011 C 
ATOM     25  C   UNL     1       8.144   6.192   5.629  0.00  0.00    +0.011 C 
ENDBRANCH  19  20
ENDBRANCH  16  19
TORSDOF 5
ENDMDL
