MODEL 1
REMARK VINA RESULT:      -7.6      0.000      0.000
REMARK  Name = 7142890
REMARK  7 active torsions:
REMARK  status: ('A' for Active; 'I' for Inactive)
REMARK    1  A    between atoms: O_4  and  C_27
REMARK    2  A    between atoms: O_4  and  C_29
REMARK    3  A    between atoms: O_5  and  C_28
REMARK    4  A    between atoms: O_5  and  C_30
REMARK    5  A    between atoms: N_8  and  C_19
REMARK    6  A    between atoms: C_18  and  C_21
REMARK    7  A    between atoms: C_24  and  C_28
REMARK                            x       y       z     vdW  Elec       q    Type
REMARK                         _______ _______ _______ _____ _____    ______ ____
ROOT
ATOM      1  O   UNL     1      13.592   9.054  16.189  0.00  0.00    -0.266 OA
ATOM      2  O   UNL     1      11.236   7.575  20.548  0.00  0.00    -0.270 OA
ATOM      6  N   UNL     1      13.500   7.895  21.040  0.00  0.00    -0.297 N 
ATOM      7  N   UNL     1      14.640   8.952  18.274  0.00  0.00    -0.310 N 
ATOM      9  C   UNL     1      15.078   6.743  19.497  0.00  0.00    +0.027 C 
ATOM     10  C   UNL     1      15.728   8.875  20.545  0.00  0.00    +0.054 C 
ATOM     11  C   UNL     1      16.240   7.493  20.138  0.00  0.00    +0.018 C 
ATOM     12  C   UNL     1      13.914   6.602  20.495  0.00  0.00    +0.113 C 
ATOM     13  C   UNL     1      14.656   7.483  18.221  0.00  0.00    +0.130 C 
ATOM     14  C   UNL     1      14.594   8.721  21.577  0.00  0.00    +0.117 C 
ATOM     15  C   UNL     1      15.222   9.645  19.340  0.00  0.00    +0.027 A 
ATOM     16  C   UNL     1      15.299  10.987  19.313  0.00  0.00    +0.024 A 
ATOM     17  C   UNL     1      14.100   9.620  17.157  0.00  0.00    +0.273 A 
ATOM     18  C   UNL     1      12.153   8.261  20.996  0.00  0.00    +0.247 C 
ATOM     19  C   UNL     1      14.180  11.116  17.178  0.00  0.00    +0.099 A 
ATOM     20  C   UNL     1      14.766  11.734  18.210  0.00  0.00    +0.030 A 
ENDROOT
BRANCH  18  21
ATOM     21  C   UNL     1      11.783   9.584  21.507  0.00  0.00    +0.037 A 
ATOM     22  C   UNL     1      11.182   9.704  22.761  0.00  0.00    +0.016 A 
ATOM     23  C   UNL     1      12.030  10.722  20.741  0.00  0.00    +0.016 A 
ATOM     25  C   UNL     1      10.829  10.963  23.248  0.00  0.00    +0.046 A 
ATOM     26  C   UNL     1      11.678  11.982  21.227  0.00  0.00    +0.046 A 
ATOM     27  C   UNL     1      11.077  12.101  22.480  0.00  0.00    +0.120 A 
BRANCH  27   4
ATOM      4  O   UNL     1      10.731  13.330  22.954  0.00  0.00    -0.495 OA
ATOM     29  C   UNL     1      10.325  13.409  24.320  0.00  0.00    +0.277 C 
ENDBRANCH  27   4
ENDBRANCH  18  21
BRANCH  19   8
ATOM      3  O   UNL     1      15.561  11.886  14.786  0.00  0.00    -0.272 OA
ATOM      8  N   UNL     1      13.653  11.801  16.123  0.00  0.00    -0.278 N 
ATOM     24  C   UNL     1      14.377  12.144  14.990  0.00  0.00    +0.255 C 
ATOM     36  H   UNL     1      12.760  12.262  16.277  0.00  0.00    +0.155 HD
BRANCH  24  28
ATOM     28  C   UNL     1      13.524  12.900  13.994  0.00  0.00    +0.324 C 
BRANCH  28   5
ATOM      5  O   UNL     1      13.479  12.221  12.757  0.00  0.00    -0.483 OA
BRANCH   5  30
ATOM     30  C   UNL     1      12.259  12.143  12.127  0.00  0.00    +0.121 A 
ATOM     31  C   UNL     1      12.194  12.114  10.735  0.00  0.00    +0.045 A 
ATOM     32  C   UNL     1      11.087  12.095  12.882  0.00  0.00    +0.045 A 
ATOM     33  C   UNL     1      10.957  12.036  10.096  0.00  0.00    +0.004 A 
ATOM     34  C   UNL     1       9.849  12.018  12.242  0.00  0.00    +0.004 A 
ATOM     35  C   UNL     1       9.784  11.988  10.850  0.00  0.00    +0.000 A 
ENDBRANCH   5  30
ENDBRANCH  28   5
ENDBRANCH  24  28
ENDBRANCH  19   8
TORSDOF 6
ENDMDL
MODEL 2
REMARK VINA RESULT:      -7.4     27.930     30.079
REMARK  Name = 7142890
REMARK  7 active torsions:
REMARK  status: ('A' for Active; 'I' for Inactive)
REMARK    1  A    between atoms: O_4  and  C_27
REMARK    2  A    between atoms: O_4  and  C_29
REMARK    3  A    between atoms: O_5  and  C_28
REMARK    4  A    between atoms: O_5  and  C_30
REMARK    5  A    between atoms: N_8  and  C_19
REMARK    6  A    between atoms: C_18  and  C_21
REMARK    7  A    between atoms: C_24  and  C_28
REMARK                            x       y       z     vdW  Elec       q    Type
REMARK                         _______ _______ _______ _____ _____    ______ ____
ROOT
ATOM      1  O   UNL     1     -10.621  -8.895  18.331  0.00  0.00    -0.266 OA
ATOM      2  O   UNL     1      -6.405 -10.956  20.503  0.00  0.00    -0.270 OA
ATOM      6  N   UNL     1      -7.403 -12.609  19.183  0.00  0.00    -0.297 N 
ATOM      7  N   UNL     1      -9.818 -11.037  17.857  0.00  0.00    -0.310 N 
ATOM      9  C   UNL     1      -9.839 -12.935  19.578  0.00  0.00    +0.027 C 
ATOM     10  C   UNL     1      -8.900 -13.324  17.335  0.00  0.00    +0.054 C 
ATOM     11  C   UNL     1      -9.906 -13.848  18.359  0.00  0.00    +0.018 C 
ATOM     12  C   UNL     1      -8.421 -12.945  20.178  0.00  0.00    +0.113 C 
ATOM     13  C   UNL     1     -10.279 -11.525  19.165  0.00  0.00    +0.130 C 
ATOM     14  C   UNL     1      -7.480 -13.381  17.931  0.00  0.00    +0.117 C 
ATOM     15  C   UNL     1      -9.228 -11.899  16.929  0.00  0.00    +0.027 A 
ATOM     16  C   UNL     1      -8.919 -11.459  15.697  0.00  0.00    +0.024 A 
ATOM     17  C   UNL     1     -10.090  -9.687  17.553  0.00  0.00    +0.273 A 
ATOM     18  C   UNL     1      -6.474 -11.604  19.460  0.00  0.00    +0.247 C 
ATOM     19  C   UNL     1      -9.704  -9.228  16.180  0.00  0.00    +0.099 A 
ATOM     20  C   UNL     1      -9.162 -10.096  15.319  0.00  0.00    +0.030 A 
ENDROOT
BRANCH  18  21
ATOM     21  C   UNL     1      -5.499 -11.262  18.420  0.00  0.00    +0.037 A 
ATOM     22  C   UNL     1      -4.216 -11.808  18.460  0.00  0.00    +0.016 A 
ATOM     23  C   UNL     1      -5.854 -10.389  17.392  0.00  0.00    +0.016 A 
ATOM     25  C   UNL     1      -3.288 -11.483  17.471  0.00  0.00    +0.046 A 
ATOM     26  C   UNL     1      -4.926 -10.063  16.402  0.00  0.00    +0.046 A 
ATOM     27  C   UNL     1      -3.643 -10.610  16.442  0.00  0.00    +0.120 A 
BRANCH  27   4
ATOM      4  O   UNL     1      -2.737 -10.291  15.477  0.00  0.00    -0.495 OA
ATOM     29  C   UNL     1      -1.357 -10.435  15.809  0.00  0.00    +0.277 C 
ENDBRANCH  27   4
ENDBRANCH  18  21
BRANCH  19   8
ATOM      3  O   UNL     1     -12.181  -8.116  15.256  0.00  0.00    -0.272 OA
ATOM      8  N   UNL     1      -9.935  -7.925  15.852  0.00  0.00    -0.278 N 
ATOM     24  C   UNL     1     -11.161  -7.448  15.410  0.00  0.00    +0.255 C 
ATOM     36  H   UNL     1      -9.118  -7.334  15.720  0.00  0.00    +0.155 HD
BRANCH  24  28
ATOM     28  C   UNL     1     -11.108  -5.962  15.124  0.00  0.00    +0.324 C 
BRANCH  28   5
ATOM      5  O   UNL     1     -12.334  -5.513  14.585  0.00  0.00    -0.483 OA
BRANCH   5  30
ATOM     30  C   UNL     1     -12.347  -5.171  13.254  0.00  0.00    +0.121 A 
ATOM     31  C   UNL     1     -12.449  -6.163  12.279  0.00  0.00    +0.045 A 
ATOM     32  C   UNL     1     -12.257  -3.831  12.878  0.00  0.00    +0.045 A 
ATOM     33  C   UNL     1     -12.461  -5.816  10.929  0.00  0.00    +0.004 A 
ATOM     34  C   UNL     1     -12.268  -3.483  11.526  0.00  0.00    +0.004 A 
ATOM     35  C   UNL     1     -12.370  -4.475  10.552  0.00  0.00    +0.000 A 
ENDBRANCH   5  30
ENDBRANCH  28   5
ENDBRANCH  24  28
ENDBRANCH  19   8
TORSDOF 6
ENDMDL
MODEL 3
REMARK VINA RESULT:      -7.4      8.802     13.073
REMARK  Name = 7142890
REMARK  7 active torsions:
REMARK  status: ('A' for Active; 'I' for Inactive)
REMARK    1  A    between atoms: O_4  and  C_27
REMARK    2  A    between atoms: O_4  and  C_29
REMARK    3  A    between atoms: O_5  and  C_28
REMARK    4  A    between atoms: O_5  and  C_30
REMARK    5  A    between atoms: N_8  and  C_19
REMARK    6  A    between atoms: C_18  and  C_21
REMARK    7  A    between atoms: C_24  and  C_28
REMARK                            x       y       z     vdW  Elec       q    Type
REMARK                         _______ _______ _______ _____ _____    ______ ____
ROOT
ATOM      1  O   UNL     1      12.803   7.295   3.533  0.00  0.00    -0.266 OA
ATOM      2  O   UNL     1       8.884   9.964   5.598  0.00  0.00    -0.270 OA
ATOM      6  N   UNL     1       9.038   7.930   6.743  0.00  0.00    -0.297 N 
ATOM      7  N   UNL     1      11.592   6.605   5.408  0.00  0.00    -0.310 N 
ATOM      9  C   UNL     1       9.128   5.914   5.286  0.00  0.00    +0.027 C 
ATOM     10  C   UNL     1      10.296   5.911   7.453  0.00  0.00    +0.054 C 
ATOM     11  C   UNL     1       9.455   5.058   6.505  0.00  0.00    +0.018 C 
ATOM     12  C   UNL     1       8.340   7.169   5.708  0.00  0.00    +0.113 C 
ATOM     13  C   UNL     1      10.435   6.269   4.566  0.00  0.00    +0.130 C 
ATOM     14  C   UNL     1       9.482   7.140   7.903  0.00  0.00    +0.117 C 
ATOM     15  C   UNL     1      11.580   6.365   6.785  0.00  0.00    +0.027 A 
ATOM     16  C   UNL     1      12.688   6.570   7.517  0.00  0.00    +0.024 A 
ATOM     17  C   UNL     1      12.740   7.084   4.744  0.00  0.00    +0.273 A 
ATOM     18  C   UNL     1       9.252   9.299   6.564  0.00  0.00    +0.247 C 
ATOM     19  C   UNL     1      13.944   7.328   5.600  0.00  0.00    +0.099 A 
ATOM     20  C   UNL     1      13.892   7.063   6.910  0.00  0.00    +0.030 A 
ENDROOT
BRANCH  18  21
ATOM     21  C   UNL     1       9.997  10.020   7.601  0.00  0.00    +0.037 A 
ATOM     22  C   UNL     1      11.375  10.196   7.475  0.00  0.00    +0.016 A 
ATOM     23  C   UNL     1       9.328  10.528   8.714  0.00  0.00    +0.016 A 
ATOM     25  C   UNL     1      12.084  10.882   8.461  0.00  0.00    +0.046 A 
ATOM     26  C   UNL     1      10.037  11.215   9.701  0.00  0.00    +0.046 A 
ATOM     27  C   UNL     1      11.415  11.390   9.574  0.00  0.00    +0.120 A 
BRANCH  27   4
ATOM      4  O   UNL     1      12.107  12.059  10.538  0.00  0.00    -0.495 OA
ATOM     29  C   UNL     1      11.495  12.163  11.822  0.00  0.00    +0.277 C 
ENDBRANCH  27   4
ENDBRANCH  18  21
BRANCH  19   8
ATOM      3  O   UNL     1      14.804  10.063   5.529  0.00  0.00    -0.272 OA
ATOM      8  N   UNL     1      15.070   7.808   4.999  0.00  0.00    -0.278 N 
ATOM     24  C   UNL     1      15.432   9.148   5.001  0.00  0.00    +0.255 C 
ATOM     36  H   UNL     1      15.539   7.189   4.343  0.00  0.00    +0.155 HD
BRANCH  24  28
ATOM     28  C   UNL     1      16.729   9.374   4.253  0.00  0.00    +0.324 C 
BRANCH  28   5
ATOM      5  O   UNL     1      17.481   8.181   4.185  0.00  0.00    -0.483 OA
BRANCH   5  30
ATOM     30  C   UNL     1      18.639   8.125   4.924  0.00  0.00    +0.121 A 
ATOM     31  C   UNL     1      18.664   8.637   6.221  0.00  0.00    +0.045 A 
ATOM     32  C   UNL     1      19.789   7.558   4.376  0.00  0.00    +0.045 A 
ATOM     33  C   UNL     1      19.839   8.582   6.970  0.00  0.00    +0.004 A 
ATOM     34  C   UNL     1      20.965   7.503   5.125  0.00  0.00    +0.004 A 
ATOM     35  C   UNL     1      20.990   8.014   6.422  0.00  0.00    +0.000 A 
ENDBRANCH   5  30
ENDBRANCH  28   5
ENDBRANCH  24  28
ENDBRANCH  19   8
TORSDOF 6
ENDMDL
MODEL 4
REMARK VINA RESULT:      -7.3      3.822      9.003
REMARK  Name = 7142890
REMARK  7 active torsions:
REMARK  status: ('A' for Active; 'I' for Inactive)
REMARK    1  A    between atoms: O_4  and  C_27
REMARK    2  A    between atoms: O_4  and  C_29
REMARK    3  A    between atoms: O_5  and  C_28
REMARK    4  A    between atoms: O_5  and  C_30
REMARK    5  A    between atoms: N_8  and  C_19
REMARK    6  A    between atoms: C_18  and  C_21
REMARK    7  A    between atoms: C_24  and  C_28
REMARK                            x       y       z     vdW  Elec       q    Type
REMARK                         _______ _______ _______ _____ _____    ______ ____
ROOT
ATOM      1  O   UNL     1      15.872   6.687  21.489  0.00  0.00    -0.266 OA
ATOM      2  O   UNL     1      12.085   6.977  17.979  0.00  0.00    -0.270 OA
ATOM      6  N   UNL     1      11.788   8.739  19.490  0.00  0.00    -0.297 N 
ATOM      7  N   UNL     1      14.310   8.421  21.387  0.00  0.00    -0.310 N 
ATOM      9  C   UNL     1      11.822   8.075  21.889  0.00  0.00    +0.027 C 
ATOM     10  C   UNL     1      12.640  10.300  21.223  0.00  0.00    +0.054 C 
ATOM     11  C   UNL     1      11.843   9.546  22.287  0.00  0.00    +0.018 C 
ATOM     12  C   UNL     1      11.157   7.902  20.511  0.00  0.00    +0.113 C 
ATOM     13  C   UNL     1      13.258   7.537  21.908  0.00  0.00    +0.130 C 
ATOM     14  C   UNL     1      11.941  10.156  19.857  0.00  0.00    +0.117 C 
ATOM     15  C   UNL     1      14.059   9.772  21.129  0.00  0.00    +0.027 A 
ATOM     16  C   UNL     1      15.062  10.590  20.765  0.00  0.00    +0.024 A 
ATOM     17  C   UNL     1      15.599   7.865  21.258  0.00  0.00    +0.273 A 
ATOM     18  C   UNL     1      12.209   8.161  18.291  0.00  0.00    +0.247 C 
ATOM     19  C   UNL     1      16.683   8.802  20.822  0.00  0.00    +0.099 A 
ATOM     20  C   UNL     1      16.399  10.092  20.608  0.00  0.00    +0.030 A 
ENDROOT
BRANCH  18  21
ATOM     21  C   UNL     1      12.881   9.021  17.311  0.00  0.00    +0.037 A 
ATOM     22  C   UNL     1      12.207   9.422  16.158  0.00  0.00    +0.016 A 
ATOM     23  C   UNL     1      14.193   9.437  17.532  0.00  0.00    +0.016 A 
ATOM     25  C   UNL     1      12.845  10.240  15.225  0.00  0.00    +0.046 A 
ATOM     26  C   UNL     1      14.832  10.255  16.600  0.00  0.00    +0.046 A 
ATOM     27  C   UNL     1      14.157  10.656  15.447  0.00  0.00    +0.120 A 
BRANCH  27   4
ATOM      4  O   UNL     1      14.782  11.454  14.536  0.00  0.00    -0.495 OA
ATOM     29  C   UNL     1      16.153  11.764  14.777  0.00  0.00    +0.277 C 
ENDBRANCH  27   4
ENDBRANCH  18  21
BRANCH  19   8
ATOM      3  O   UNL     1      18.911   9.219  22.578  0.00  0.00    -0.272 OA
ATOM      8  N   UNL     1      17.941   8.299  20.669  0.00  0.00    -0.278 N 
ATOM     24  C   UNL     1      18.979   8.538  21.558  0.00  0.00    +0.255 C 
ATOM     36  H   UNL     1      18.174   7.919  19.755  0.00  0.00    +0.155 HD
BRANCH  24  28
ATOM     28  C   UNL     1      20.255   7.849  21.121  0.00  0.00    +0.324 C 
BRANCH  28   5
ATOM      5  O   UNL     1      19.993   6.518  20.726  0.00  0.00    -0.483 OA
BRANCH   5  30
ATOM     30  C   UNL     1      20.777   5.533  21.279  0.00  0.00    +0.121 A 
ATOM     31  C   UNL     1      20.925   4.310  20.626  0.00  0.00    +0.045 A 
ATOM     32  C   UNL     1      21.424   5.758  22.494  0.00  0.00    +0.045 A 
ATOM     33  C   UNL     1      21.719   3.311  21.187  0.00  0.00    +0.004 A 
ATOM     34  C   UNL     1      22.218   4.757  23.056  0.00  0.00    +0.004 A 
ATOM     35  C   UNL     1      22.366   3.534  22.403  0.00  0.00    +0.000 A 
ENDBRANCH   5  30
ENDBRANCH  28   5
ENDBRANCH  24  28
ENDBRANCH  19   8
TORSDOF 6
ENDMDL
MODEL 5
REMARK VINA RESULT:      -7.0     11.799     14.608
REMARK  Name = 7142890
REMARK  7 active torsions:
REMARK  status: ('A' for Active; 'I' for Inactive)
REMARK    1  A    between atoms: O_4  and  C_27
REMARK    2  A    between atoms: O_4  and  C_29
REMARK    3  A    between atoms: O_5  and  C_28
REMARK    4  A    between atoms: O_5  and  C_30
REMARK    5  A    between atoms: N_8  and  C_19
REMARK    6  A    between atoms: C_18  and  C_21
REMARK    7  A    between atoms: C_24  and  C_28
REMARK                            x       y       z     vdW  Elec       q    Type
REMARK                         _______ _______ _______ _____ _____    ______ ____
ROOT
ATOM      1  O   UNL     1      13.832   6.698   7.020  0.00  0.00    -0.266 OA
ATOM      2  O   UNL     1      10.077   5.553   3.655  0.00  0.00    -0.270 OA
ATOM      6  N   UNL     1       9.070   6.480   5.553  0.00  0.00    -0.297 N 
ATOM      7  N   UNL     1      11.581   7.236   7.337  0.00  0.00    -0.310 N 
ATOM      9  C   UNL     1       9.773   5.460   7.712  0.00  0.00    +0.027 C 
ATOM     10  C   UNL     1       9.154   7.841   7.627  0.00  0.00    +0.054 C 
ATOM     11  C   UNL     1       9.043   6.567   8.464  0.00  0.00    +0.018 C 
ATOM     12  C   UNL     1       9.136   5.240   6.327  0.00  0.00    +0.113 C 
ATOM     13  C   UNL     1      11.259   5.828   7.611  0.00  0.00    +0.130 C 
ATOM     14  C   UNL     1       8.473   7.624   6.262  0.00  0.00    +0.117 C 
ATOM     15  C   UNL     1      10.605   8.233   7.420  0.00  0.00    +0.027 A 
ATOM     16  C   UNL     1      10.943   9.526   7.280  0.00  0.00    +0.024 A 
ATOM     17  C   UNL     1      12.935   7.538   7.086  0.00  0.00    +0.273 A 
ATOM     18  C   UNL     1       9.577   6.505   4.252  0.00  0.00    +0.247 C 
ATOM     19  C   UNL     1      13.267   8.988   6.908  0.00  0.00    +0.099 A 
ATOM     20  C   UNL     1      12.302   9.907   7.018  0.00  0.00    +0.030 A 
ENDROOT
BRANCH  18  21
ATOM     21  C   UNL     1       9.537   7.777   3.524  0.00  0.00    +0.037 A 
ATOM     22  C   UNL     1       8.449   8.078   2.703  0.00  0.00    +0.016 A 
ATOM     23  C   UNL     1      10.587   8.686   3.649  0.00  0.00    +0.016 A 
ATOM     25  C   UNL     1       8.410   9.287   2.010  0.00  0.00    +0.046 A 
ATOM     26  C   UNL     1      10.549   9.897   2.956  0.00  0.00    +0.046 A 
ATOM     27  C   UNL     1       9.461  10.196   2.137  0.00  0.00    +0.120 A 
BRANCH  27   4
ATOM      4  O   UNL     1       9.425  11.377   1.458  0.00  0.00    -0.495 OA
ATOM     29  C   UNL     1       9.511  12.572   2.232  0.00  0.00    +0.277 C 
ENDBRANCH  27   4
ENDBRANCH  18  21
BRANCH  19   8
ATOM      3  O   UNL     1      14.535   9.015   4.336  0.00  0.00    -0.272 OA
ATOM      8  N   UNL     1      14.564   9.321   6.647  0.00  0.00    -0.278 N 
ATOM     24  C   UNL     1      15.118   9.314   5.375  0.00  0.00    +0.255 C 
ATOM     36  H   UNL     1      15.195   9.361   7.443  0.00  0.00    +0.155 HD
BRANCH  24  28
ATOM     28  C   UNL     1      16.574   9.728   5.402  0.00  0.00    +0.324 C 
BRANCH  28   5
ATOM      5  O   UNL     1      17.359   8.848   4.625  0.00  0.00    -0.483 OA
BRANCH   5  30
ATOM     30  C   UNL     1      18.574   8.467   5.142  0.00  0.00    +0.121 A 
ATOM     31  C   UNL     1      18.928   8.838   6.439  0.00  0.00    +0.045 A 
ATOM     32  C   UNL     1      19.455   7.711   4.369  0.00  0.00    +0.045 A 
ATOM     33  C   UNL     1      20.161   8.453   6.964  0.00  0.00    +0.004 A 
ATOM     34  C   UNL     1      20.689   7.326   4.894  0.00  0.00    +0.004 A 
ATOM     35  C   UNL     1      21.043   7.697   6.190  0.00  0.00    +0.000 A 
ENDBRANCH   5  30
ENDBRANCH  28   5
ENDBRANCH  24  28
ENDBRANCH  19   8
TORSDOF 6
ENDMDL
MODEL 6
REMARK VINA RESULT:      -6.9      4.007      7.995
REMARK  Name = 7142890
REMARK  7 active torsions:
REMARK  status: ('A' for Active; 'I' for Inactive)
REMARK    1  A    between atoms: O_4  and  C_27
REMARK    2  A    between atoms: O_4  and  C_29
REMARK    3  A    between atoms: O_5  and  C_28
REMARK    4  A    between atoms: O_5  and  C_30
REMARK    5  A    between atoms: N_8  and  C_19
REMARK    6  A    between atoms: C_18  and  C_21
REMARK    7  A    between atoms: C_24  and  C_28
REMARK                            x       y       z     vdW  Elec       q    Type
REMARK                         _______ _______ _______ _____ _____    ______ ____
ROOT
ATOM      1  O   UNL     1      12.231  11.314  21.488  0.00  0.00    -0.266 OA
ATOM      2  O   UNL     1      13.790   6.394  21.178  0.00  0.00    -0.270 OA
ATOM      6  N   UNL     1      13.855   7.296  19.020  0.00  0.00    -0.297 N 
ATOM      7  N   UNL     1      13.035  10.316  19.536  0.00  0.00    -0.310 N 
ATOM      9  C   UNL     1      11.771   8.456  18.309  0.00  0.00    +0.027 C 
ATOM     10  C   UNL     1      13.950   9.224  17.458  0.00  0.00    +0.054 C 
ATOM     11  C   UNL     1      12.492   8.977  17.071  0.00  0.00    +0.018 C 
ATOM     12  C   UNL     1      12.417   7.146  18.796  0.00  0.00    +0.113 C 
ATOM     13  C   UNL     1      11.793   9.545  19.389  0.00  0.00    +0.130 C 
ATOM     14  C   UNL     1      14.598   7.897  17.901  0.00  0.00    +0.117 C 
ATOM     15  C   UNL     1      14.051  10.242  18.578  0.00  0.00    +0.027 A 
ATOM     16  C   UNL     1      15.129  11.041  18.670  0.00  0.00    +0.024 A 
ATOM     17  C   UNL     1      13.106  11.202  20.630  0.00  0.00    +0.273 A 
ATOM     18  C   UNL     1      14.406   6.896  20.239  0.00  0.00    +0.247 C 
ATOM     19  C   UNL     1      14.335  12.054  20.713  0.00  0.00    +0.099 A 
ATOM     20  C   UNL     1      15.270  11.963  19.761  0.00  0.00    +0.030 A 
ENDROOT
BRANCH  18  21
ATOM     21  C   UNL     1      15.842   7.106  20.446  0.00  0.00    +0.037 A 
ATOM     22  C   UNL     1      16.294   8.250  21.104  0.00  0.00    +0.016 A 
ATOM     23  C   UNL     1      16.758   6.161  19.983  0.00  0.00    +0.016 A 
ATOM     25  C   UNL     1      17.660   8.450  21.301  0.00  0.00    +0.046 A 
ATOM     26  C   UNL     1      18.126   6.360  20.180  0.00  0.00    +0.046 A 
ATOM     27  C   UNL     1      18.575   7.505  20.838  0.00  0.00    +0.120 A 
BRANCH  27   4
ATOM      4  O   UNL     1      19.910   7.700  21.028  0.00  0.00    -0.495 OA
ATOM     29  C   UNL     1      20.294   8.787  21.868  0.00  0.00    +0.277 C 
ENDBRANCH  27   4
ENDBRANCH  18  21
BRANCH  19   8
ATOM      3  O   UNL     1      15.643  11.523  23.209  0.00  0.00    -0.272 OA
ATOM      8  N   UNL     1      14.450  12.913  21.766  0.00  0.00    -0.278 N 
ATOM     24  C   UNL     1      15.098  12.594  22.951  0.00  0.00    +0.255 C 
ATOM     36  H   UNL     1      13.847  13.731  21.757  0.00  0.00    +0.155 HD
BRANCH  24  28
ATOM     28  C   UNL     1      15.060  13.747  23.932  0.00  0.00    +0.324 C 
BRANCH  28   5
ATOM      5  O   UNL     1      14.289  13.412  25.067  0.00  0.00    -0.483 OA
BRANCH   5  30
ATOM     30  C   UNL     1      12.930  13.302  24.893  0.00  0.00    +0.121 A 
ATOM     31  C   UNL     1      12.298  12.076  25.092  0.00  0.00    +0.045 A 
ATOM     32  C   UNL     1      12.184  14.419  24.516  0.00  0.00    +0.045 A 
ATOM     33  C   UNL     1      10.919  11.965  24.915  0.00  0.00    +0.004 A 
ATOM     34  C   UNL     1      10.804  14.308  24.338  0.00  0.00    +0.004 A 
ATOM     35  C   UNL     1      10.172  13.081  24.537  0.00  0.00    +0.000 A 
ENDBRANCH   5  30
ENDBRANCH  28   5
ENDBRANCH  24  28
ENDBRANCH  19   8
TORSDOF 6
ENDMDL
MODEL 7
REMARK VINA RESULT:      -6.9     27.871     29.783
REMARK  Name = 7142890
REMARK  7 active torsions:
REMARK  status: ('A' for Active; 'I' for Inactive)
REMARK    1  A    between atoms: O_4  and  C_27
REMARK    2  A    between atoms: O_4  and  C_29
REMARK    3  A    between atoms: O_5  and  C_28
REMARK    4  A    between atoms: O_5  and  C_30
REMARK    5  A    between atoms: N_8  and  C_19
REMARK    6  A    between atoms: C_18  and  C_21
REMARK    7  A    between atoms: C_24  and  C_28
REMARK                            x       y       z     vdW  Elec       q    Type
REMARK                         _______ _______ _______ _____ _____    ______ ____
ROOT
ATOM      1  O   UNL     1      -6.121 -13.262  15.688  0.00  0.00    -0.266 OA
ATOM      2  O   UNL     1     -11.216 -12.420  15.956  0.00  0.00    -0.270 OA
ATOM      6  N   UNL     1     -10.341 -12.163  18.110  0.00  0.00    -0.297 N 
ATOM      7  N   UNL     1      -7.232 -12.552  17.617  0.00  0.00    -0.310 N 
ATOM      9  C   UNL     1      -8.894 -14.035  18.882  0.00  0.00    +0.027 C 
ATOM     10  C   UNL     1      -8.452 -11.744  19.667  0.00  0.00    +0.054 C 
ATOM     11  C   UNL     1      -8.488 -13.210  20.097  0.00  0.00    +0.018 C 
ATOM     12  C   UNL     1     -10.282 -13.600  18.377  0.00  0.00    +0.113 C 
ATOM     13  C   UNL     1      -7.815 -13.889  17.801  0.00  0.00    +0.130 C 
ATOM     14  C   UNL     1      -9.857 -11.307  19.206  0.00  0.00    +0.117 C 
ATOM     15  C   UNL     1      -7.455 -11.530  18.544  0.00  0.00    +0.027 A 
ATOM     16  C   UNL     1      -6.820 -10.352  18.419  0.00  0.00    +0.024 A 
ATOM     17  C   UNL     1      -6.361 -12.387  16.520  0.00  0.00    +0.273 A 
ATOM     18  C   UNL     1     -10.811 -11.711  16.875  0.00  0.00    +0.247 C 
ATOM     19  C   UNL     1      -5.695 -11.051  16.401  0.00  0.00    +0.099 A 
ATOM     20  C   UNL     1      -5.923 -10.111  17.324  0.00  0.00    +0.030 A 
ENDROOT
BRANCH  18  21
ATOM     21  C   UNL     1     -10.810 -10.266  16.625  0.00  0.00    +0.037 A 
ATOM     22  C   UNL     1      -9.675  -9.650  16.097  0.00  0.00    +0.016 A 
ATOM     23  C   UNL     1     -11.943  -9.508  16.917  0.00  0.00    +0.016 A 
ATOM     25  C   UNL     1      -9.674  -8.275  15.860  0.00  0.00    +0.046 A 
ATOM     26  C   UNL     1     -11.943  -8.133  16.680  0.00  0.00    +0.046 A 
ATOM     27  C   UNL     1     -10.808  -7.517  16.151  0.00  0.00    +0.120 A 
BRANCH  27   4
ATOM      4  O   UNL     1     -10.807  -6.175  15.921  0.00  0.00    -0.495 OA
ATOM     29  C   UNL     1     -11.663  -5.693  14.887  0.00  0.00    +0.277 C 
ENDBRANCH  27   4
ENDBRANCH  18  21
BRANCH  19   8
ATOM      3  O   UNL     1      -2.828 -11.021  16.476  0.00  0.00    -0.272 OA
ATOM      8  N   UNL     1      -4.858 -10.845  15.343  0.00  0.00    -0.278 N 
ATOM     24  C   UNL     1      -3.474 -10.843  15.446  0.00  0.00    +0.255 C 
ATOM     36  H   UNL     1      -5.274 -10.463  14.498  0.00  0.00    +0.155 HD
BRANCH  24  28
ATOM     28  C   UNL     1      -2.818 -10.587  14.106  0.00  0.00    +0.324 C 
BRANCH  28   5
ATOM      5  O   UNL     1      -3.598 -11.122  13.057  0.00  0.00    -0.483 OA
BRANCH   5  30
ATOM     30  C   UNL     1      -3.898 -10.285  12.008  0.00  0.00    +0.121 A 
ATOM     31  C   UNL     1      -2.944 -10.032  11.023  0.00  0.00    +0.045 A 
ATOM     32  C   UNL     1      -5.157  -9.690  11.929  0.00  0.00    +0.045 A 
ATOM     33  C   UNL     1      -3.248  -9.183   9.960  0.00  0.00    +0.004 A 
ATOM     34  C   UNL     1      -5.460  -8.839  10.865  0.00  0.00    +0.004 A 
ATOM     35  C   UNL     1      -4.506  -8.586   9.880  0.00  0.00    +0.000 A 
ENDBRANCH   5  30
ENDBRANCH  28   5
ENDBRANCH  24  28
ENDBRANCH  19   8
TORSDOF 6
ENDMDL
MODEL 8
REMARK VINA RESULT:      -6.9     12.707     16.169
REMARK  Name = 7142890
REMARK  7 active torsions:
REMARK  status: ('A' for Active; 'I' for Inactive)
REMARK    1  A    between atoms: O_4  and  C_27
REMARK    2  A    between atoms: O_4  and  C_29
REMARK    3  A    between atoms: O_5  and  C_28
REMARK    4  A    between atoms: O_5  and  C_30
REMARK    5  A    between atoms: N_8  and  C_19
REMARK    6  A    between atoms: C_18  and  C_21
REMARK    7  A    between atoms: C_24  and  C_28
REMARK                            x       y       z     vdW  Elec       q    Type
REMARK                         _______ _______ _______ _____ _____    ______ ____
ROOT
ATOM      1  O   UNL     1      12.538   8.458   7.220  0.00  0.00    -0.266 OA
ATOM      2  O   UNL     1      10.230   4.351   5.088  0.00  0.00    -0.270 OA
ATOM      6  N   UNL     1       9.087   6.261   4.366  0.00  0.00    -0.297 N 
ATOM      7  N   UNL     1      10.802   8.593   5.663  0.00  0.00    -0.310 N 
ATOM      9  C   UNL     1       8.413   7.825   6.182  0.00  0.00    +0.027 C 
ATOM     10  C   UNL     1       8.959   8.705   3.949  0.00  0.00    +0.054 C 
ATOM     11  C   UNL     1       8.006   8.854   5.134  0.00  0.00    +0.018 C 
ATOM     12  C   UNL     1       8.317   6.401   5.603  0.00  0.00    +0.113 C 
ATOM     13  C   UNL     1       9.829   8.153   6.673  0.00  0.00    +0.130 C 
ATOM     14  C   UNL     1       8.821   7.292   3.349  0.00  0.00    +0.117 C 
ATOM     15  C   UNL     1      10.396   8.944   4.371  0.00  0.00    +0.027 A 
ATOM     16  C   UNL     1      11.282   9.455   3.499  0.00  0.00    +0.024 A 
ATOM     17  C   UNL     1      12.137   8.738   6.090  0.00  0.00    +0.273 A 
ATOM     18  C   UNL     1      10.003   5.215   4.242  0.00  0.00    +0.247 C 
ATOM     19  C   UNL     1      13.099   9.283   5.079  0.00  0.00    +0.099 A 
ATOM     20  C   UNL     1      12.660   9.625   3.863  0.00  0.00    +0.030 A 
ENDROOT
BRANCH  18  21
ATOM     21  C   UNL     1      10.791   5.134   3.008  0.00  0.00    +0.037 A 
ATOM     22  C   UNL     1      10.356   4.330   1.954  0.00  0.00    +0.016 A 
ATOM     23  C   UNL     1      11.975   5.861   2.887  0.00  0.00    +0.016 A 
ATOM     25  C   UNL     1      11.105   4.252   0.780  0.00  0.00    +0.046 A 
ATOM     26  C   UNL     1      12.724   5.784   1.712  0.00  0.00    +0.046 A 
ATOM     27  C   UNL     1      12.289   4.979   0.660  0.00  0.00    +0.120 A 
BRANCH  27   4
ATOM      4  O   UNL     1      13.022   4.902  -0.486  0.00  0.00    -0.495 OA
ATOM     29  C   UNL     1      13.422   3.602  -0.915  0.00  0.00    +0.277 C 
ENDBRANCH  27   4
ENDBRANCH  18  21
BRANCH  19   8
ATOM      3  O   UNL     1      15.163   7.309   4.821  0.00  0.00    -0.272 OA
ATOM      8  N   UNL     1      14.405   9.422   5.448  0.00  0.00    -0.278 N 
ATOM     24  C   UNL     1      15.358   8.425   5.295  0.00  0.00    +0.255 C 
ATOM     36  H   UNL     1      14.628  10.207   6.055  0.00  0.00    +0.155 HD
BRANCH  24  28
ATOM     28  C   UNL     1      16.715   8.873   5.796  0.00  0.00    +0.324 C 
BRANCH  28   5
ATOM      5  O   UNL     1      17.681   8.780   4.770  0.00  0.00    -0.483 OA
BRANCH   5  30
ATOM     30  C   UNL     1      18.926   8.314   5.121  0.00  0.00    +0.121 A 
ATOM     31  C   UNL     1      19.702   7.626   4.189  0.00  0.00    +0.045 A 
ATOM     32  C   UNL     1      19.413   8.529   6.410  0.00  0.00    +0.045 A 
ATOM     33  C   UNL     1      20.964   7.152   4.545  0.00  0.00    +0.004 A 
ATOM     34  C   UNL     1      20.676   8.054   6.767  0.00  0.00    +0.004 A 
ATOM     35  C   UNL     1      21.451   7.366   5.834  0.00  0.00    +0.000 A 
ENDBRANCH   5  30
ENDBRANCH  28   5
ENDBRANCH  24  28
ENDBRANCH  19   8
TORSDOF 6
ENDMDL
MODEL 9
REMARK VINA RESULT:      -6.7     24.521     27.320
REMARK  Name = 7142890
REMARK  7 active torsions:
REMARK  status: ('A' for Active; 'I' for Inactive)
REMARK    1  A    between atoms: O_4  and  C_27
REMARK    2  A    between atoms: O_4  and  C_29
REMARK    3  A    between atoms: O_5  and  C_28
REMARK    4  A    between atoms: O_5  and  C_30
REMARK    5  A    between atoms: N_8  and  C_19
REMARK    6  A    between atoms: C_18  and  C_21
REMARK    7  A    between atoms: C_24  and  C_28
REMARK                            x       y       z     vdW  Elec       q    Type
REMARK                         _______ _______ _______ _____ _____    ______ ____
ROOT
ATOM      1  O   UNL     1      19.747 -12.733   3.910  0.00  0.00    -0.266 OA
ATOM      2  O   UNL     1      21.815  -8.454   5.948  0.00  0.00    -0.270 OA
ATOM      6  N   UNL     1      23.448  -9.464   4.613  0.00  0.00    -0.297 N 
ATOM      7  N   UNL     1      21.870 -11.921   3.373  0.00  0.00    -0.310 N 
ATOM      9  C   UNL     1      23.805 -11.888   5.052  0.00  0.00    +0.027 C 
ATOM     10  C   UNL     1      24.137 -10.994   2.782  0.00  0.00    +0.054 C 
ATOM     11  C   UNL     1      24.692 -11.973   3.815  0.00  0.00    +0.018 C 
ATOM     12  C   UNL     1      23.815 -10.457   5.622  0.00  0.00    +0.113 C 
ATOM     13  C   UNL     1      22.391 -12.350   4.679  0.00  0.00    +0.130 C 
ATOM     14  C   UNL     1      24.193  -9.561   3.347  0.00  0.00    +0.117 C 
ATOM     15  C   UNL     1      22.707 -11.343   2.414  0.00  0.00    +0.027 A 
ATOM     16  C   UNL     1      22.238 -11.064   1.186  0.00  0.00    +0.024 A 
ATOM     17  C   UNL     1      20.517 -12.211   3.104  0.00  0.00    +0.273 A 
ATOM     18  C   UNL     1      22.441  -8.539   4.893  0.00  0.00    +0.247 C 
ATOM     19  C   UNL     1      20.025 -11.859   1.734  0.00  0.00    +0.099 A 
ATOM     20  C   UNL     1      20.869 -11.328   0.843  0.00  0.00    +0.030 A 
ENDROOT
BRANCH  18  21
ATOM     21  C   UNL     1      22.067  -7.589   3.840  0.00  0.00    +0.037 A 
ATOM     22  C   UNL     1      22.615  -6.306   3.831  0.00  0.00    +0.016 A 
ATOM     23  C   UNL     1      21.163  -7.968   2.848  0.00  0.00    +0.016 A 
ATOM     25  C   UNL     1      22.260  -5.402   2.830  0.00  0.00    +0.046 A 
ATOM     26  C   UNL     1      20.808  -7.065   1.845  0.00  0.00    +0.046 A 
ATOM     27  C   UNL     1      21.356  -5.782   1.838  0.00  0.00    +0.120 A 
BRANCH  27   4
ATOM      4  O   UNL     1      21.007  -4.899   0.861  0.00  0.00    -0.495 OA
ATOM     29  C   UNL     1      19.666  -4.961   0.379  0.00  0.00    +0.277 C 
ENDBRANCH  27   4
ENDBRANCH  18  21
BRANCH  19   8
ATOM      3  O   UNL     1      17.812 -10.089   2.175  0.00  0.00    -0.272 OA
ATOM      8  N   UNL     1      18.717 -12.108   1.440  0.00  0.00    -0.278 N 
ATOM     24  C   UNL     1      17.690 -11.207   1.678  0.00  0.00    +0.255 C 
ATOM     36  H   UNL     1      18.468 -13.074   1.243  0.00  0.00    +0.155 HD
BRANCH  24  28
ATOM     28  C   UNL     1      16.350 -11.765   1.248  0.00  0.00    +0.324 C 
BRANCH  28   5
ATOM      5  O   UNL     1      15.434 -11.751   2.323  0.00  0.00    -0.483 OA
BRANCH   5  30
ATOM     30  C   UNL     1      15.671 -12.619   3.362  0.00  0.00    +0.121 A 
ATOM     31  C   UNL     1      15.867 -12.127   4.651  0.00  0.00    +0.045 A 
ATOM     32  C   UNL     1      15.717 -13.993   3.125  0.00  0.00    +0.045 A 
ATOM     33  C   UNL     1      16.109 -13.008   5.705  0.00  0.00    +0.004 A 
ATOM     34  C   UNL     1      15.959 -14.874   4.180  0.00  0.00    +0.004 A 
ATOM     35  C   UNL     1      16.155 -14.382   5.469  0.00  0.00    +0.000 A 
ENDBRANCH   5  30
ENDBRANCH  28   5
ENDBRANCH  24  28
ENDBRANCH  19   8
TORSDOF 6
ENDMDL
MODEL 10
REMARK VINA RESULT:      -6.7     24.682     27.588
REMARK  Name = 7142890
REMARK  7 active torsions:
REMARK  status: ('A' for Active; 'I' for Inactive)
REMARK    1  A    between atoms: O_4  and  C_27
REMARK    2  A    between atoms: O_4  and  C_29
REMARK    3  A    between atoms: O_5  and  C_28
REMARK    4  A    between atoms: O_5  and  C_30
REMARK    5  A    between atoms: N_8  and  C_19
REMARK    6  A    between atoms: C_18  and  C_21
REMARK    7  A    between atoms: C_24  and  C_28
REMARK                            x       y       z     vdW  Elec       q    Type
REMARK                         _______ _______ _______ _____ _____    ______ ____
ROOT
ATOM      1  O   UNL     1      18.880  -9.776   2.128  0.00  0.00    -0.266 OA
ATOM      2  O   UNL     1      19.546  -4.672   1.636  0.00  0.00    -0.270 OA
ATOM      6  N   UNL     1      21.392  -5.725   0.659  0.00  0.00    -0.297 N 
ATOM      7  N   UNL     1      20.637  -8.793   0.944  0.00  0.00    -0.310 N 
ATOM      9  C   UNL     1      22.491  -7.443   2.086  0.00  0.00    +0.027 C 
ATOM     10  C   UNL     1      22.494  -7.702  -0.363  0.00  0.00    +0.054 C 
ATOM     11  C   UNL     1      23.342  -7.875   0.896  0.00  0.00    +0.018 C 
ATOM     12  C   UNL     1      22.065  -5.971   1.934  0.00  0.00    +0.113 C 
ATOM     13  C   UNL     1      21.285  -8.384   2.198  0.00  0.00    +0.130 C 
ATOM     14  C   UNL     1      22.110  -6.218  -0.528  0.00  0.00    +0.117 C 
ATOM     15  C   UNL     1      21.238  -8.550  -0.295  0.00  0.00    +0.027 A 
ATOM     16  C   UNL     1      20.686  -9.034  -1.421  0.00  0.00    +0.024 A 
ATOM     17  C   UNL     1      19.437  -9.524   1.060  0.00  0.00    +0.273 A 
ATOM     18  C   UNL     1      20.151  -5.085   0.648  0.00  0.00    +0.247 C 
ATOM     19  C   UNL     1      18.839 -10.021  -0.220  0.00  0.00    +0.099 A 
ATOM     20  C   UNL     1      19.462  -9.782  -1.380  0.00  0.00    +0.030 A 
ENDROOT
BRANCH  18  21
ATOM     21  C   UNL     1      19.484  -4.899  -0.644  0.00  0.00    +0.037 A 
ATOM     22  C   UNL     1      18.793  -5.958  -1.233  0.00  0.00    +0.016 A 
ATOM     23  C   UNL     1      19.543  -3.662  -1.287  0.00  0.00    +0.016 A 
ATOM     25  C   UNL     1      18.159  -5.781  -2.462  0.00  0.00    +0.046 A 
ATOM     26  C   UNL     1      18.908  -3.484  -2.517  0.00  0.00    +0.046 A 
ATOM     27  C   UNL     1      18.217  -4.544  -3.104  0.00  0.00    +0.120 A 
BRANCH  27   4
ATOM      4  O   UNL     1      17.600  -4.371  -4.306  0.00  0.00    -0.495 OA
ATOM     29  C   UNL     1      16.287  -4.911  -4.445  0.00  0.00    +0.277 C 
ENDBRANCH  27   4
ENDBRANCH  18  21
BRANCH  19   8
ATOM      3  O   UNL     1      18.560 -12.851   0.146  0.00  0.00    -0.272 OA
ATOM      8  N   UNL     1      17.669 -10.718  -0.152  0.00  0.00    -0.278 N 
ATOM     24  C   UNL     1      17.601 -12.092   0.027  0.00  0.00    +0.255 C 
ATOM     36  H   UNL     1      16.830 -10.236  -0.465  0.00  0.00    +0.155 HD
BRANCH  24  28
ATOM     28  C   UNL     1      16.168 -12.578   0.060  0.00  0.00    +0.324 C 
BRANCH  28   5
ATOM      5  O   UNL     1      15.417 -11.856   1.014  0.00  0.00    -0.483 OA
BRANCH   5  30
ATOM     30  C   UNL     1      15.489 -12.279   2.320  0.00  0.00    +0.121 A 
ATOM     31  C   UNL     1      15.256 -13.617   2.634  0.00  0.00    +0.045 A 
ATOM     32  C   UNL     1      15.793 -11.368   3.332  0.00  0.00    +0.045 A 
ATOM     33  C   UNL     1      15.327 -14.046   3.959  0.00  0.00    +0.004 A 
ATOM     34  C   UNL     1      15.863 -11.797   4.658  0.00  0.00    +0.004 A 
ATOM     35  C   UNL     1      15.631 -13.135   4.972  0.00  0.00    +0.000 A 
ENDBRANCH   5  30
ENDBRANCH  28   5
ENDBRANCH  24  28
ENDBRANCH  19   8
TORSDOF 6
ENDMDL
