MODEL 1
REMARK VINA RESULT:      -8.0      0.000      0.000
REMARK  Name = 7134496
REMARK  12 active torsions:
REMARK  status: ('A' for Active; 'I' for Inactive)
REMARK    1  A    between atoms: S_1  and  C_22
REMARK    2  A    between atoms: S_1  and  C_26
REMARK    3  A    between atoms: O_2  and  C_13
REMARK    4  A    between atoms: O_3  and  C_16
REMARK    5  A    between atoms: O_4  and  C_18
REMARK    6  A    between atoms: N_10  and  C_14
REMARK    7  A    between atoms: N_11  and  C_21
REMARK    8  A    between atoms: C_13  and  C_19
REMARK    9  A    between atoms: C_20  and  C_22
REMARK   10  A    between atoms: C_21  and  C_23
REMARK   11  A    between atoms: C_21  and  C_24
REMARK   12  A    between atoms: C_23  and  C_25
REMARK                            x       y       z     vdW  Elec       q    Type
REMARK                         _______ _______ _______ _____ _____    ______ ____
ROOT
ATOM     13  C   UNL     1      15.531   7.579  20.824  0.00  0.00    +0.146 C 
ATOM     14  C   UNL     1      17.997   7.027  21.097  0.00  0.00    +0.107 C 
ATOM     15  C   UNL     1      16.913   8.103  21.222  0.00  0.00    +0.069 C 
ATOM     16  C   UNL     1      18.010   6.388  19.701  0.00  0.00    +0.163 C 
ATOM     17  C   UNL     1      15.554   6.964  19.426  0.00  0.00    +0.078 C 
ATOM     18  C   UNL     1      16.625   5.881  19.290  0.00  0.00    +0.148 C 
ENDROOT
BRANCH  13  19
ATOM      5  O   UNL     1      14.831   9.861  20.889  0.00  0.00    -0.273 OA
ATOM     11  N   UNL     1      13.218   8.185  20.973  0.00  0.00    -0.301 N 
ATOM     19  C   UNL     1      14.510   8.676  20.891  0.00  0.00    +0.246 C 
ATOM     41  H   UNL     1      13.058   7.183  21.007  0.00  0.00    +0.150 HD
BRANCH  11  21
ATOM     21  C   UNL     1      12.054   9.036  21.072  0.00  0.00    +0.163 C 
BRANCH  21  24
ATOM      9  O   UNL     1      10.580   8.498  19.216  0.00  0.00    -0.274 OA
ATOM     12  N   UNL     1      10.309   7.368  21.198  0.00  0.00    -0.328 N 
ATOM     24  C   UNL     1      10.909   8.307  20.385  0.00  0.00    +0.231 C 
ATOM     42  H   UNL     1      10.607   7.205  22.154  0.00  0.00    +0.145 HD
ATOM     43  H   UNL     1       9.539   6.802  20.859  0.00  0.00    +0.145 HD
ENDBRANCH  21  24
BRANCH  21  23
ATOM     23  C   UNL     1      11.688   9.357  22.525  0.00  0.00    +0.067 C 
BRANCH  23  25
ATOM     25  C   UNL     1      11.317  10.809  22.717  0.00  0.00    -0.045 A 
ATOM     27  C   UNL     1      11.426  11.684  21.649  0.00  0.00    +0.004 A 
ATOM     28  C   UNL     1      10.875  11.238  23.958  0.00  0.00    +0.004 A 
ATOM     31  C   UNL     1      11.083  13.025  21.826  0.00  0.00    +0.000 A 
ATOM     32  C   UNL     1      10.533  12.579  24.135  0.00  0.00    +0.000 A 
ATOM     33  C   UNL     1      10.637  13.472  23.068  0.00  0.00    +0.000 A 
ENDBRANCH  23  25
ENDBRANCH  21  23
ENDBRANCH  11  21
ENDBRANCH  13  19
BRANCH  14  10
ATOM      6  O   UNL     1      19.681   6.386  23.349  0.00  0.00    -0.274 OA
ATOM     10  N   UNL     1      19.290   7.597  21.407  0.00  0.00    -0.308 N 
ATOM     20  C   UNL     1      20.027   7.223  22.519  0.00  0.00    +0.235 C 
ATOM     37  H   UNL     1      19.628   8.348  20.812  0.00  0.00    +0.149 HD
BRANCH  20  22
ATOM     22  C   UNL     1      21.333   7.976  22.588  0.00  0.00    +0.267 C 
BRANCH  22   1
ATOM      1  S   UNL     1      22.548   7.317  21.499  0.00  0.00    +0.005 S 
ATOM      7  O   UNL     1      22.042   7.431  20.140  0.00  0.00    -0.169 OA
ATOM      8  O   UNL     1      23.845   7.879  21.842  0.00  0.00    -0.169 OA
BRANCH   1  26
ATOM     26  C   UNL     1      22.611   5.596  21.909  0.00  0.00    +0.089 A 
ATOM     29  C   UNL     1      22.142   4.669  20.997  0.00  0.00    +0.027 A 
ATOM     30  C   UNL     1      23.125   5.215  23.135  0.00  0.00    +0.027 A 
ATOM     34  C   UNL     1      22.191   3.313  21.321  0.00  0.00    +0.002 A 
ATOM     35  C   UNL     1      23.174   3.859  23.460  0.00  0.00    +0.002 A 
ATOM     36  C   UNL     1      22.706   2.908  22.552  0.00  0.00    +0.000 A 
ENDBRANCH   1  26
ENDBRANCH  22   1
ENDBRANCH  20  22
ENDBRANCH  14  10
BRANCH  13   2
ATOM      2  O   UNL     1      15.083   6.600  21.755  0.00  0.00    -0.379 OA
ATOM     38  H   UNL     1      14.191   6.313  21.494  0.00  0.00    +0.211 HD
ENDBRANCH  13   2
BRANCH  16   3
ATOM      3  O   UNL     1      18.896   5.266  19.709  0.00  0.00    -0.387 OA
ATOM     39  H   UNL     1      18.359   4.465  19.587  0.00  0.00    +0.210 HD
ENDBRANCH  16   3
BRANCH  18   4
ATOM      4  O   UNL     1      16.684   5.461  17.926  0.00  0.00    -0.389 OA
ATOM     40  H   UNL     1      17.575   5.662  17.594  0.00  0.00    +0.210 HD
ENDBRANCH  18   4
TORSDOF 12
ENDMDL
MODEL 2
REMARK VINA RESULT:      -7.4      2.036      3.401
REMARK  Name = 7134496
REMARK  12 active torsions:
REMARK  status: ('A' for Active; 'I' for Inactive)
REMARK    1  A    between atoms: S_1  and  C_22
REMARK    2  A    between atoms: S_1  and  C_26
REMARK    3  A    between atoms: O_2  and  C_13
REMARK    4  A    between atoms: O_3  and  C_16
REMARK    5  A    between atoms: O_4  and  C_18
REMARK    6  A    between atoms: N_10  and  C_14
REMARK    7  A    between atoms: N_11  and  C_21
REMARK    8  A    between atoms: C_13  and  C_19
REMARK    9  A    between atoms: C_20  and  C_22
REMARK   10  A    between atoms: C_21  and  C_23
REMARK   11  A    between atoms: C_21  and  C_24
REMARK   12  A    between atoms: C_23  and  C_25
REMARK                            x       y       z     vdW  Elec       q    Type
REMARK                         _______ _______ _______ _____ _____    ______ ____
ROOT
ATOM     13  C   UNL     1      15.879   7.359  20.554  0.00  0.00    +0.146 C 
ATOM     14  C   UNL     1      18.314   6.969  21.169  0.00  0.00    +0.107 C 
ATOM     15  C   UNL     1      17.164   7.979  21.109  0.00  0.00    +0.069 C 
ATOM     16  C   UNL     1      18.548   6.288  19.814  0.00  0.00    +0.163 C 
ATOM     17  C   UNL     1      16.122   6.703  19.196  0.00  0.00    +0.078 C 
ATOM     18  C   UNL     1      17.262   5.684  19.245  0.00  0.00    +0.148 C 
ENDROOT
BRANCH  13  19
ATOM      5  O   UNL     1      14.809   9.418  21.120  0.00  0.00    -0.273 OA
ATOM     11  N   UNL     1      13.821   8.034  19.530  0.00  0.00    -0.301 N 
ATOM     19  C   UNL     1      14.798   8.393  20.443  0.00  0.00    +0.246 C 
ATOM     41  H   UNL     1      13.882   7.143  19.047  0.00  0.00    +0.150 HD
BRANCH  11  21
ATOM     21  C   UNL     1      12.659   8.847  19.255  0.00  0.00    +0.163 C 
BRANCH  21  24
ATOM      9  O   UNL     1      11.787   7.380  17.524  0.00  0.00    -0.274 OA
ATOM     12  N   UNL     1      12.213   9.574  16.993  0.00  0.00    -0.328 N 
ATOM     24  C   UNL     1      12.189   8.495  17.851  0.00  0.00    +0.231 C 
ATOM     42  H   UNL     1      12.526  10.495  17.283  0.00  0.00    +0.145 HD
ATOM     43  H   UNL     1      11.913   9.479  16.028  0.00  0.00    +0.145 HD
ENDBRANCH  21  24
BRANCH  21  23
ATOM     23  C   UNL     1      11.532   8.616  20.269  0.00  0.00    +0.067 C 
BRANCH  23  25
ATOM     25  C   UNL     1      11.402   9.755  21.252  0.00  0.00    -0.045 A 
ATOM     27  C   UNL     1      10.881   9.509  22.512  0.00  0.00    +0.004 A 
ATOM     28  C   UNL     1      11.807  11.026  20.876  0.00  0.00    +0.004 A 
ATOM     31  C   UNL     1      10.761  10.561  23.420  0.00  0.00    +0.000 A 
ATOM     32  C   UNL     1      11.687  12.078  21.784  0.00  0.00    +0.000 A 
ATOM     33  C   UNL     1      11.163  11.846  23.056  0.00  0.00    +0.000 A 
ENDBRANCH  23  25
ENDBRANCH  21  23
ENDBRANCH  11  21
ENDBRANCH  13  19
BRANCH  14  10
ATOM      6  O   UNL     1      20.216   5.970  23.093  0.00  0.00    -0.274 OA
ATOM     10  N   UNL     1      19.519   7.626  21.623  0.00  0.00    -0.308 N 
ATOM     20  C   UNL     1      20.375   7.063  22.557  0.00  0.00    +0.235 C 
ATOM     37  H   UNL     1      19.698   8.568  21.285  0.00  0.00    +0.149 HD
BRANCH  20  22
ATOM     22  C   UNL     1      21.550   7.968  22.838  0.00  0.00    +0.267 C 
BRANCH  22   1
ATOM      1  S   UNL     1      22.764   7.910  21.565  0.00  0.00    +0.005 S 
ATOM      7  O   UNL     1      24.072   8.060  22.185  0.00  0.00    -0.169 OA
ATOM      8  O   UNL     1      22.492   6.770  20.705  0.00  0.00    -0.169 OA
BRANCH   1  26
ATOM     26  C   UNL     1      22.453   9.363  20.604  0.00  0.00    +0.089 A 
ATOM     29  C   UNL     1      21.732  10.401  21.165  0.00  0.00    +0.027 A 
ATOM     30  C   UNL     1      22.936   9.430  19.309  0.00  0.00    +0.027 A 
ATOM     34  C   UNL     1      21.486  11.545  20.406  0.00  0.00    +0.002 A 
ATOM     35  C   UNL     1      22.690  10.574  18.550  0.00  0.00    +0.002 A 
ATOM     36  C   UNL     1      21.965  11.633  19.099  0.00  0.00    +0.000 A 
ENDBRANCH   1  26
ENDBRANCH  22   1
ENDBRANCH  20  22
ENDBRANCH  14  10
BRANCH  13   2
ATOM      2  O   UNL     1      15.368   6.385  21.456  0.00  0.00    -0.379 OA
ATOM     38  H   UNL     1      14.555   6.736  21.860  0.00  0.00    +0.211 HD
ENDBRANCH  13   2
BRANCH  16   3
ATOM      3  O   UNL     1      19.488   5.223  19.982  0.00  0.00    -0.387 OA
ATOM     39  H   UNL     1      19.918   5.071  19.125  0.00  0.00    +0.210 HD
ENDBRANCH  16   3
BRANCH  18   4
ATOM      4  O   UNL     1      17.526   5.225  17.918  0.00  0.00    -0.389 OA
ATOM     40  H   UNL     1      17.831   5.987  17.398  0.00  0.00    +0.210 HD
ENDBRANCH  18   4
TORSDOF 12
ENDMDL
MODEL 3
REMARK VINA RESULT:      -7.3      1.869      2.785
REMARK  Name = 7134496
REMARK  12 active torsions:
REMARK  status: ('A' for Active; 'I' for Inactive)
REMARK    1  A    between atoms: S_1  and  C_22
REMARK    2  A    between atoms: S_1  and  C_26
REMARK    3  A    between atoms: O_2  and  C_13
REMARK    4  A    between atoms: O_3  and  C_16
REMARK    5  A    between atoms: O_4  and  C_18
REMARK    6  A    between atoms: N_10  and  C_14
REMARK    7  A    between atoms: N_11  and  C_21
REMARK    8  A    between atoms: C_13  and  C_19
REMARK    9  A    between atoms: C_20  and  C_22
REMARK   10  A    between atoms: C_21  and  C_23
REMARK   11  A    between atoms: C_21  and  C_24
REMARK   12  A    between atoms: C_23  and  C_25
REMARK                            x       y       z     vdW  Elec       q    Type
REMARK                         _______ _______ _______ _____ _____    ______ ____
ROOT
ATOM     13  C   UNL     1      16.234   7.528  21.096  0.00  0.00    +0.146 C 
ATOM     14  C   UNL     1      18.652   6.759  21.241  0.00  0.00    +0.107 C 
ATOM     15  C   UNL     1      17.677   7.928  21.414  0.00  0.00    +0.069 C 
ATOM     16  C   UNL     1      18.532   6.115  19.853  0.00  0.00    +0.163 C 
ATOM     17  C   UNL     1      16.126   6.908  19.705  0.00  0.00    +0.078 C 
ATOM     18  C   UNL     1      17.087   5.733  19.521  0.00  0.00    +0.148 C 
ENDROOT
BRANCH  13  19
ATOM      5  O   UNL     1      14.926   9.127  22.294  0.00  0.00    -0.273 OA
ATOM     11  N   UNL     1      14.982   9.231  19.969  0.00  0.00    -0.301 N 
ATOM     19  C   UNL     1      15.320   8.712  21.208  0.00  0.00    +0.246 C 
ATOM     41  H   UNL     1      15.329   8.791  19.123  0.00  0.00    +0.150 HD
BRANCH  11  21
ATOM     21  C   UNL     1      14.095  10.360  19.801  0.00  0.00    +0.163 C 
BRANCH  21  24
ATOM      9  O   UNL     1      14.639  11.133  17.562  0.00  0.00    -0.274 OA
ATOM     12  N   UNL     1      15.406  12.342  19.359  0.00  0.00    -0.328 N 
ATOM     24  C   UNL     1      14.739  11.284  18.778  0.00  0.00    +0.231 C 
ATOM     42  H   UNL     1      15.461  12.467  20.364  0.00  0.00    +0.145 HD
ATOM     43  H   UNL     1      15.870  13.041  18.788  0.00  0.00    +0.145 HD
ENDBRANCH  21  24
BRANCH  21  23
ATOM     23  C   UNL     1      12.697   9.938  19.335  0.00  0.00    +0.067 C 
BRANCH  23  25
ATOM     25  C   UNL     1      11.905   9.266  20.433  0.00  0.00    -0.045 A 
ATOM     27  C   UNL     1      11.595   7.921  20.320  0.00  0.00    +0.004 A 
ATOM     28  C   UNL     1      11.504  10.008  21.532  0.00  0.00    +0.004 A 
ATOM     31  C   UNL     1      10.864   7.301  21.333  0.00  0.00    +0.000 A 
ATOM     32  C   UNL     1      10.773   9.388  22.545  0.00  0.00    +0.000 A 
ATOM     33  C   UNL     1      10.452   8.034  22.445  0.00  0.00    +0.000 A 
ENDBRANCH  23  25
ENDBRANCH  21  23
ENDBRANCH  11  21
ENDBRANCH  13  19
BRANCH  14  10
ATOM      6  O   UNL     1      20.359   6.053  23.456  0.00  0.00    -0.274 OA
ATOM     10  N   UNL     1      20.005   7.212  21.476  0.00  0.00    -0.308 N 
ATOM     20  C   UNL     1      20.749   6.815  22.577  0.00  0.00    +0.235 C 
ATOM     37  H   UNL     1      20.389   7.901  20.835  0.00  0.00    +0.149 HD
BRANCH  20  22
ATOM     22  C   UNL     1      22.123   7.439  22.562  0.00  0.00    +0.267 C 
BRANCH  22   1
ATOM      1  S   UNL     1      23.137   6.803  21.272  0.00  0.00    +0.005 S 
ATOM      7  O   UNL     1      22.385   6.880  20.029  0.00  0.00    -0.169 OA
ATOM      8  O   UNL     1      24.455   7.410  21.364  0.00  0.00    -0.169 OA
BRANCH   1  26
ATOM     26  C   UNL     1      23.333   5.092  21.678  0.00  0.00    +0.089 A 
ATOM     29  C   UNL     1      24.066   4.744  22.798  0.00  0.00    +0.027 A 
ATOM     30  C   UNL     1      22.749   4.136  20.865  0.00  0.00    +0.027 A 
ATOM     34  C   UNL     1      24.221   3.395  23.116  0.00  0.00    +0.002 A 
ATOM     35  C   UNL     1      22.904   2.787  21.184  0.00  0.00    +0.002 A 
ATOM     36  C   UNL     1      23.641   2.416  22.310  0.00  0.00    +0.000 A 
ENDBRANCH   1  26
ENDBRANCH  22   1
ENDBRANCH  20  22
ENDBRANCH  14  10
BRANCH  13   2
ATOM      2  O   UNL     1      15.752   6.597  22.059  0.00  0.00    -0.379 OA
ATOM     38  H   UNL     1      16.387   5.863  22.121  0.00  0.00    +0.211 HD
ENDBRANCH  13   2
BRANCH  16   3
ATOM      3  O   UNL     1      19.313   4.918  19.824  0.00  0.00    -0.387 OA
ATOM     39  H   UNL     1      20.034   5.052  19.186  0.00  0.00    +0.210 HD
ENDBRANCH  16   3
BRANCH  18   4
ATOM      4  O   UNL     1      17.035   5.302  18.160  0.00  0.00    -0.389 OA
ATOM     40  H   UNL     1      16.618   6.012  17.643  0.00  0.00    +0.210 HD
ENDBRANCH  18   4
TORSDOF 12
ENDMDL
MODEL 4
REMARK VINA RESULT:      -7.2     17.058     20.496
REMARK  Name = 7134496
REMARK  12 active torsions:
REMARK  status: ('A' for Active; 'I' for Inactive)
REMARK    1  A    between atoms: S_1  and  C_22
REMARK    2  A    between atoms: S_1  and  C_26
REMARK    3  A    between atoms: O_2  and  C_13
REMARK    4  A    between atoms: O_3  and  C_16
REMARK    5  A    between atoms: O_4  and  C_18
REMARK    6  A    between atoms: N_10  and  C_14
REMARK    7  A    between atoms: N_11  and  C_21
REMARK    8  A    between atoms: C_13  and  C_19
REMARK    9  A    between atoms: C_20  and  C_22
REMARK   10  A    between atoms: C_21  and  C_23
REMARK   11  A    between atoms: C_21  and  C_24
REMARK   12  A    between atoms: C_23  and  C_25
REMARK                            x       y       z     vdW  Elec       q    Type
REMARK                         _______ _______ _______ _____ _____    ______ ____
ROOT
ATOM     13  C   UNL     1      15.015   7.200   3.521  0.00  0.00    +0.146 C 
ATOM     14  C   UNL     1      13.725   7.955   5.577  0.00  0.00    +0.107 C 
ATOM     15  C   UNL     1      13.636   7.370   4.163  0.00  0.00    +0.069 C 
ATOM     16  C   UNL     1      14.532   9.259   5.606  0.00  0.00    +0.163 C 
ATOM     17  C   UNL     1      15.799   8.511   3.538  0.00  0.00    +0.078 C 
ATOM     18  C   UNL     1      15.904   9.100   4.946  0.00  0.00    +0.148 C 
ENDROOT
BRANCH  13  19
ATOM      5  O   UNL     1      15.230   7.368   1.149  0.00  0.00    -0.273 OA
ATOM     11  N   UNL     1      14.326   5.428   2.063  0.00  0.00    -0.301 N 
ATOM     19  C   UNL     1      14.885   6.694   2.115  0.00  0.00    +0.246 C 
ATOM     41  H   UNL     1      14.036   4.967   2.920  0.00  0.00    +0.150 HD
BRANCH  11  21
ATOM     21  C   UNL     1      14.072   4.726   0.826  0.00  0.00    +0.163 C 
BRANCH  21  24
ATOM      9  O   UNL     1      15.895   3.967  -0.592  0.00  0.00    -0.274 OA
ATOM     12  N   UNL     1      15.795   3.204   1.573  0.00  0.00    -0.328 N 
ATOM     24  C   UNL     1      15.328   3.932   0.498  0.00  0.00    +0.231 C 
ATOM     42  H   UNL     1      15.329   3.202   2.474  0.00  0.00    +0.145 HD
ATOM     43  H   UNL     1      16.634   2.638   1.493  0.00  0.00    +0.145 HD
ENDBRANCH  21  24
BRANCH  21  23
ATOM     23  C   UNL     1      12.860   3.793   0.924  0.00  0.00    +0.067 C 
BRANCH  23  25
ATOM     25  C   UNL     1      12.128   3.663  -0.392  0.00  0.00    -0.045 A 
ATOM     27  C   UNL     1      11.181   4.613  -0.738  0.00  0.00    +0.004 A 
ATOM     28  C   UNL     1      12.417   2.596  -1.227  0.00  0.00    +0.004 A 
ATOM     31  C   UNL     1      10.505   4.493  -1.953  0.00  0.00    +0.000 A 
ATOM     32  C   UNL     1      11.741   2.477  -2.442  0.00  0.00    +0.000 A 
ATOM     33  C   UNL     1      10.785   3.425  -2.804  0.00  0.00    +0.000 A 
ENDBRANCH  23  25
ENDBRANCH  21  23
ENDBRANCH  11  21
ENDBRANCH  13  19
BRANCH  14  10
ATOM      6  O   UNL     1      12.398   6.408   7.617  0.00  0.00    -0.274 OA
ATOM     10  N   UNL     1      12.395   8.167   6.103  0.00  0.00    -0.308 N 
ATOM     20  C   UNL     1      11.840   7.365   7.088  0.00  0.00    +0.235 C 
ATOM     37  H   UNL     1      11.831   8.897   5.675  0.00  0.00    +0.149 HD
BRANCH  20  22
ATOM     22  C   UNL     1      10.446   7.821   7.444  0.00  0.00    +0.267 C 
BRANCH  22   1
ATOM      1  S   UNL     1       9.214   6.662   6.959  0.00  0.00    +0.005 S 
ATOM      7  O   UNL     1       9.415   5.444   7.729  0.00  0.00    -0.169 OA
ATOM      8  O   UNL     1       7.918   7.320   6.963  0.00  0.00    -0.169 OA
BRANCH   1  26
ATOM     26  C   UNL     1       9.600   6.301   5.269  0.00  0.00    +0.089 A 
ATOM     29  C   UNL     1      10.200   5.095   4.957  0.00  0.00    +0.027 A 
ATOM     30  C   UNL     1       9.296   7.235   4.295  0.00  0.00    +0.027 A 
ATOM     34  C   UNL     1      10.505   4.812   3.626  0.00  0.00    +0.002 A 
ATOM     35  C   UNL     1       9.601   6.953   2.964  0.00  0.00    +0.002 A 
ATOM     36  C   UNL     1      10.206   5.740   2.629  0.00  0.00    +0.000 A 
ENDBRANCH   1  26
ENDBRANCH  22   1
ENDBRANCH  20  22
ENDBRANCH  14  10
BRANCH  13   2
ATOM      2  O   UNL     1      15.763   6.202   4.205  0.00  0.00    -0.379 OA
ATOM     38  H   UNL     1      16.334   6.640   4.860  0.00  0.00    +0.211 HD
ENDBRANCH  13   2
BRANCH  16   3
ATOM      3  O   UNL     1      14.749   9.644   6.966  0.00  0.00    -0.387 OA
ATOM     39  H   UNL     1      14.127  10.362   7.173  0.00  0.00    +0.210 HD
ENDBRANCH  16   3
BRANCH  18   4
ATOM      4  O   UNL     1      16.517  10.388   4.861  0.00  0.00    -0.389 OA
ATOM     40  H   UNL     1      15.890  11.037   5.221  0.00  0.00    +0.210 HD
ENDBRANCH  18   4
TORSDOF 12
ENDMDL
MODEL 5
REMARK VINA RESULT:      -7.2     28.702     31.778
REMARK  Name = 7134496
REMARK  12 active torsions:
REMARK  status: ('A' for Active; 'I' for Inactive)
REMARK    1  A    between atoms: S_1  and  C_22
REMARK    2  A    between atoms: S_1  and  C_26
REMARK    3  A    between atoms: O_2  and  C_13
REMARK    4  A    between atoms: O_3  and  C_16
REMARK    5  A    between atoms: O_4  and  C_18
REMARK    6  A    between atoms: N_10  and  C_14
REMARK    7  A    between atoms: N_11  and  C_21
REMARK    8  A    between atoms: C_13  and  C_19
REMARK    9  A    between atoms: C_20  and  C_22
REMARK   10  A    between atoms: C_21  and  C_23
REMARK   11  A    between atoms: C_21  and  C_24
REMARK   12  A    between atoms: C_23  and  C_25
REMARK                            x       y       z     vdW  Elec       q    Type
REMARK                         _______ _______ _______ _____ _____    ______ ____
ROOT
ATOM     13  C   UNL     1      -5.430 -11.139  17.110  0.00  0.00    +0.146 C 
ATOM     14  C   UNL     1      -7.645 -10.100  17.799  0.00  0.00    +0.107 C 
ATOM     15  C   UNL     1      -6.417  -9.990  16.889  0.00  0.00    +0.069 C 
ATOM     16  C   UNL     1      -7.251 -10.237  19.276  0.00  0.00    +0.163 C 
ATOM     17  C   UNL     1      -5.031 -11.250  18.580  0.00  0.00    +0.078 C 
ATOM     18  C   UNL     1      -6.248 -11.371  19.499  0.00  0.00    +0.148 C 
ENDROOT
BRANCH  13  19
ATOM      5  O   UNL     1      -3.228 -10.336  16.649  0.00  0.00    -0.273 OA
ATOM     11  N   UNL     1      -4.350 -11.551  15.011  0.00  0.00    -0.301 N 
ATOM     19  C   UNL     1      -4.210 -10.960  16.255  0.00  0.00    +0.246 C 
ATOM     41  H   UNL     1      -5.220 -12.013  14.765  0.00  0.00    +0.150 HD
BRANCH  11  21
ATOM     21  C   UNL     1      -3.326 -11.502  13.993  0.00  0.00    +0.163 C 
BRANCH  21  24
ATOM      9  O   UNL     1      -2.285 -13.687  14.207  0.00  0.00    -0.274 OA
ATOM     12  N   UNL     1      -1.155 -11.849  14.996  0.00  0.00    -0.328 N 
ATOM     24  C   UNL     1      -2.235 -12.476  14.410  0.00  0.00    +0.231 C 
ATOM     42  H   UNL     1      -1.117 -10.845  15.136  0.00  0.00    +0.145 HD
ATOM     43  H   UNL     1      -0.351 -12.383  15.310  0.00  0.00    +0.145 HD
ENDBRANCH  21  24
BRANCH  21  23
ATOM     23  C   UNL     1      -3.867 -11.867  12.605  0.00  0.00    +0.067 C 
BRANCH  23  25
ATOM     25  C   UNL     1      -4.098 -10.650  11.740  0.00  0.00    -0.045 A 
ATOM     27  C   UNL     1      -3.158 -10.310  10.781  0.00  0.00    +0.004 A 
ATOM     28  C   UNL     1      -5.246  -9.895  11.924  0.00  0.00    +0.004 A 
ATOM     31  C   UNL     1      -3.372  -9.186   9.983  0.00  0.00    +0.000 A 
ATOM     32  C   UNL     1      -5.459  -8.771  11.125  0.00  0.00    +0.000 A 
ATOM     33  C   UNL     1      -4.521  -8.417  10.155  0.00  0.00    +0.000 A 
ENDBRANCH  23  25
ENDBRANCH  21  23
ENDBRANCH  11  21
ENDBRANCH  13  19
BRANCH  14  10
ATOM      6  O   UNL     1     -10.528 -10.059  17.838  0.00  0.00    -0.274 OA
ATOM     10  N   UNL     1      -8.502  -8.951  17.604  0.00  0.00    -0.308 N 
ATOM     20  C   UNL     1      -9.885  -9.032  17.641  0.00  0.00    +0.235 C 
ATOM     37  H   UNL     1      -8.058  -8.069  17.367  0.00  0.00    +0.149 HD
BRANCH  20  22
ATOM     22  C   UNL     1     -10.518  -7.682  17.411  0.00  0.00    +0.267 C 
BRANCH  22   1
ATOM      1  S   UNL     1     -10.728  -7.319  15.702  0.00  0.00    +0.005 S 
ATOM      7  O   UNL     1     -10.145  -6.011  15.445  0.00  0.00    -0.169 OA
ATOM      8  O   UNL     1     -10.308  -8.470  14.919  0.00  0.00    -0.169 OA
BRANCH   1  26
ATOM     26  C   UNL     1     -12.481  -7.176  15.502  0.00  0.00    +0.089 A 
ATOM     29  C   UNL     1     -13.313  -7.994  16.244  0.00  0.00    +0.027 A 
ATOM     30  C   UNL     1     -12.983  -6.250  14.604  0.00  0.00    +0.027 A 
ATOM     34  C   UNL     1     -14.695  -7.882  16.085  0.00  0.00    +0.002 A 
ATOM     35  C   UNL     1     -14.364  -6.138  14.445  0.00  0.00    +0.002 A 
ATOM     36  C   UNL     1     -15.221  -6.955  15.186  0.00  0.00    +0.000 A 
ENDBRANCH   1  26
ENDBRANCH  22   1
ENDBRANCH  20  22
ENDBRANCH  14  10
BRANCH  13   2
ATOM      2  O   UNL     1      -5.999 -12.372  16.688  0.00  0.00    -0.379 OA
ATOM     38  H   UNL     1      -5.822 -12.483  15.737  0.00  0.00    +0.211 HD
ENDBRANCH  13   2
BRANCH  16   3
ATOM      3  O   UNL     1      -8.419 -10.536  20.044  0.00  0.00    -0.387 OA
ATOM     39  H   UNL     1      -9.102 -10.856  19.431  0.00  0.00    +0.210 HD
ENDBRANCH  16   3
BRANCH  18   4
ATOM      4  O   UNL     1      -5.806 -11.322  20.857  0.00  0.00    -0.389 OA
ATOM     40  H   UNL     1      -5.121 -12.003  20.969  0.00  0.00    +0.210 HD
ENDBRANCH  18   4
TORSDOF 12
ENDMDL
MODEL 6
REMARK VINA RESULT:      -7.0      2.186      3.607
REMARK  Name = 7134496
REMARK  12 active torsions:
REMARK  status: ('A' for Active; 'I' for Inactive)
REMARK    1  A    between atoms: S_1  and  C_22
REMARK    2  A    between atoms: S_1  and  C_26
REMARK    3  A    between atoms: O_2  and  C_13
REMARK    4  A    between atoms: O_3  and  C_16
REMARK    5  A    between atoms: O_4  and  C_18
REMARK    6  A    between atoms: N_10  and  C_14
REMARK    7  A    between atoms: N_11  and  C_21
REMARK    8  A    between atoms: C_13  and  C_19
REMARK    9  A    between atoms: C_20  and  C_22
REMARK   10  A    between atoms: C_21  and  C_23
REMARK   11  A    between atoms: C_21  and  C_24
REMARK   12  A    between atoms: C_23  and  C_25
REMARK                            x       y       z     vdW  Elec       q    Type
REMARK                         _______ _______ _______ _____ _____    ______ ____
ROOT
ATOM     13  C   UNL     1      15.551   7.438  20.479  0.00  0.00    +0.146 C 
ATOM     14  C   UNL     1      17.976   7.210  21.207  0.00  0.00    +0.107 C 
ATOM     15  C   UNL     1      16.772   8.148  21.069  0.00  0.00    +0.069 C 
ATOM     16  C   UNL     1      18.309   6.510  19.882  0.00  0.00    +0.163 C 
ATOM     17  C   UNL     1      15.892   6.764  19.151  0.00  0.00    +0.078 C 
ATOM     18  C   UNL     1      17.086   5.816  19.277  0.00  0.00    +0.148 C 
ENDROOT
BRANCH  13  19
ATOM      5  O   UNL     1      14.474   9.322  19.481  0.00  0.00    -0.273 OA
ATOM     11  N   UNL     1      13.356   8.135  21.142  0.00  0.00    -0.301 N 
ATOM     19  C   UNL     1      14.417   8.402  20.293  0.00  0.00    +0.246 C 
ATOM     41  H   UNL     1      13.421   7.371  21.808  0.00  0.00    +0.150 HD
BRANCH  11  21
ATOM     21  C   UNL     1      12.151   8.931  21.177  0.00  0.00    +0.163 C 
BRANCH  21  24
ATOM      9  O   UNL     1      10.609   8.506  19.347  0.00  0.00    -0.274 OA
ATOM     12  N   UNL     1      10.729   6.979  21.059  0.00  0.00    -0.328 N 
ATOM     24  C   UNL     1      11.080   8.153  20.426  0.00  0.00    +0.231 C 
ATOM     42  H   UNL     1      11.144   6.689  21.939  0.00  0.00    +0.145 HD
ATOM     43  H   UNL     1      10.034   6.359  20.657  0.00  0.00    +0.145 HD
ENDBRANCH  21  24
BRANCH  21  23
ATOM     23  C   UNL     1      11.690   9.227  22.609  0.00  0.00    +0.067 C 
BRANCH  23  25
ATOM     25  C   UNL     1      11.308  10.676  22.801  0.00  0.00    -0.045 A 
ATOM     27  C   UNL     1      10.891  11.109  24.049  0.00  0.00    +0.004 A 
ATOM     28  C   UNL     1      11.380  11.545  21.724  0.00  0.00    +0.004 A 
ATOM     31  C   UNL     1      10.538  12.447  24.226  0.00  0.00    +0.000 A 
ATOM     32  C   UNL     1      11.027  12.883  21.901  0.00  0.00    +0.000 A 
ATOM     33  C   UNL     1      10.605  13.333  23.152  0.00  0.00    +0.000 A 
ENDBRANCH  23  25
ENDBRANCH  21  23
ENDBRANCH  11  21
ENDBRANCH  13  19
BRANCH  14  10
ATOM      6  O   UNL     1      19.878   6.354  23.197  0.00  0.00    -0.274 OA
ATOM     10  N   UNL     1      19.119   7.950  21.693  0.00  0.00    -0.308 N 
ATOM     20  C   UNL     1      19.980   7.452  22.658  0.00  0.00    +0.235 C 
ATOM     37  H   UNL     1      19.244   8.899  21.352  0.00  0.00    +0.149 HD
BRANCH  20  22
ATOM     22  C   UNL     1      21.082   8.435  22.968  0.00  0.00    +0.267 C 
BRANCH  22   1
ATOM      1  S   UNL     1      20.657  10.084  22.524  0.00  0.00    +0.005 S 
ATOM      7  O   UNL     1      20.896  10.242  21.097  0.00  0.00    -0.169 OA
ATOM      8  O   UNL     1      19.354  10.403  23.083  0.00  0.00    -0.169 OA
BRANCH   1  26
ATOM     26  C   UNL     1      21.841  11.083  23.382  0.00  0.00    +0.089 A 
ATOM     29  C   UNL     1      22.930  11.581  22.690  0.00  0.00    +0.027 A 
ATOM     30  C   UNL     1      21.653  11.342  24.728  0.00  0.00    +0.027 A 
ATOM     34  C   UNL     1      23.863  12.366  23.367  0.00  0.00    +0.002 A 
ATOM     35  C   UNL     1      22.586  12.128  25.405  0.00  0.00    +0.002 A 
ATOM     36  C   UNL     1      23.692  12.640  24.724  0.00  0.00    +0.000 A 
ENDBRANCH   1  26
ENDBRANCH  22   1
ENDBRANCH  20  22
ENDBRANCH  14  10
BRANCH  13   2
ATOM      2  O   UNL     1      15.058   6.459  21.385  0.00  0.00    -0.379 OA
ATOM     38  H   UNL     1      15.196   5.579  20.992  0.00  0.00    +0.211 HD
ENDBRANCH  13   2
BRANCH  16   3
ATOM      3  O   UNL     1      19.300   5.508  20.120  0.00  0.00    -0.387 OA
ATOM     39  H   UNL     1      20.135   5.962  20.325  0.00  0.00    +0.210 HD
ENDBRANCH  16   3
BRANCH  18   4
ATOM      4  O   UNL     1      17.435   5.340  17.976  0.00  0.00    -0.389 OA
ATOM     40  H   UNL     1      17.944   6.039  17.533  0.00  0.00    +0.210 HD
ENDBRANCH  18   4
TORSDOF 12
ENDMDL
MODEL 7
REMARK VINA RESULT:      -7.0     28.129     32.075
REMARK  Name = 7134496
REMARK  12 active torsions:
REMARK  status: ('A' for Active; 'I' for Inactive)
REMARK    1  A    between atoms: S_1  and  C_22
REMARK    2  A    between atoms: S_1  and  C_26
REMARK    3  A    between atoms: O_2  and  C_13
REMARK    4  A    between atoms: O_3  and  C_16
REMARK    5  A    between atoms: O_4  and  C_18
REMARK    6  A    between atoms: N_10  and  C_14
REMARK    7  A    between atoms: N_11  and  C_21
REMARK    8  A    between atoms: C_13  and  C_19
REMARK    9  A    between atoms: C_20  and  C_22
REMARK   10  A    between atoms: C_21  and  C_23
REMARK   11  A    between atoms: C_21  and  C_24
REMARK   12  A    between atoms: C_23  and  C_25
REMARK                            x       y       z     vdW  Elec       q    Type
REMARK                         _______ _______ _______ _____ _____    ______ ____
ROOT
ATOM     13  C   UNL     1      -5.977 -12.100  17.302  0.00  0.00    +0.146 C 
ATOM     14  C   UNL     1      -8.390 -11.472  17.795  0.00  0.00    +0.107 C 
ATOM     15  C   UNL     1      -7.314 -11.636  16.717  0.00  0.00    +0.069 C 
ATOM     16  C   UNL     1      -7.921 -10.561  18.938  0.00  0.00    +0.163 C 
ATOM     17  C   UNL     1      -5.513 -11.172  18.423  0.00  0.00    +0.078 C 
ATOM     18  C   UNL     1      -6.574 -11.008  19.512  0.00  0.00    +0.148 C 
ENDROOT
BRANCH  13  19
ATOM      5  O   UNL     1      -4.492 -13.255  15.832  0.00  0.00    -0.273 OA
ATOM     11  N   UNL     1      -4.532 -10.929  15.792  0.00  0.00    -0.301 N 
ATOM     19  C   UNL     1      -4.930 -12.180  16.230  0.00  0.00    +0.246 C 
ATOM     41  H   UNL     1      -4.928 -10.094  16.214  0.00  0.00    +0.150 HD
BRANCH  11  21
ATOM     21  C   UNL     1      -3.519 -10.731  14.781  0.00  0.00    +0.163 C 
BRANCH  21  24
ATOM      9  O   UNL     1      -1.648 -10.774  16.331  0.00  0.00    -0.274 OA
ATOM     12  N   UNL     1      -1.745 -12.370  14.681  0.00  0.00    -0.328 N 
ATOM     24  C   UNL     1      -2.210 -11.257  15.351  0.00  0.00    +0.231 C 
ATOM     42  H   UNL     1      -2.232 -12.772  13.887  0.00  0.00    +0.145 HD
ATOM     43  H   UNL     1      -0.886 -12.829  14.968  0.00  0.00    +0.145 HD
ENDBRANCH  21  24
BRANCH  21  23
ATOM     23  C   UNL     1      -3.857 -11.449  13.469  0.00  0.00    +0.067 C 
BRANCH  23  25
ATOM     25  C   UNL     1      -3.974 -10.493  12.305  0.00  0.00    -0.045 A 
ATOM     27  C   UNL     1      -2.886 -10.307  11.468  0.00  0.00    +0.004 A 
ATOM     28  C   UNL     1      -5.167  -9.820  12.096  0.00  0.00    +0.004 A 
ATOM     31  C   UNL     1      -2.993  -9.424  10.393  0.00  0.00    +0.000 A 
ATOM     32  C   UNL     1      -5.274  -8.937  11.021  0.00  0.00    +0.000 A 
ATOM     33  C   UNL     1      -4.187  -8.739  10.170  0.00  0.00    +0.000 A 
ENDBRANCH  23  25
ENDBRANCH  21  23
ENDBRANCH  11  21
ENDBRANCH  13  19
BRANCH  14  10
ATOM      6  O   UNL     1     -10.980 -12.740  17.765  0.00  0.00    -0.274 OA
ATOM     10  N   UNL     1      -9.604 -10.959  17.200  0.00  0.00    -0.308 N 
ATOM     20  C   UNL     1     -10.807 -11.646  17.237  0.00  0.00    +0.235 C 
ATOM     37  H   UNL     1      -9.541 -10.088  16.680  0.00  0.00    +0.149 HD
BRANCH  20  22
ATOM     22  C   UNL     1     -11.901 -10.872  16.542  0.00  0.00    +0.267 C 
BRANCH  22   1
ATOM      1  S   UNL     1     -12.549  -9.578  17.543  0.00  0.00    +0.005 S 
ATOM      7  O   UNL     1     -13.992  -9.748  17.617  0.00  0.00    -0.169 OA
ATOM      8  O   UNL     1     -11.764  -9.484  18.763  0.00  0.00    -0.169 OA
BRANCH   1  26
ATOM     26  C   UNL     1     -12.227  -8.107  16.612  0.00  0.00    +0.089 A 
ATOM     29  C   UNL     1     -13.270  -7.488  15.947  0.00  0.00    +0.027 A 
ATOM     30  C   UNL     1     -10.937  -7.608  16.567  0.00  0.00    +0.027 A 
ATOM     34  C   UNL     1     -13.014  -6.330  15.213  0.00  0.00    +0.002 A 
ATOM     35  C   UNL     1     -10.682  -6.450  15.832  0.00  0.00    +0.002 A 
ATOM     36  C   UNL     1     -11.721  -5.811  15.155  0.00  0.00    +0.000 A 
ENDBRANCH   1  26
ENDBRANCH  22   1
ENDBRANCH  20  22
ENDBRANCH  14  10
BRANCH  13   2
ATOM      2  O   UNL     1      -6.088 -13.424  17.810  0.00  0.00    -0.379 OA
ATOM     38  H   UNL     1      -5.369 -13.570  18.448  0.00  0.00    +0.211 HD
ENDBRANCH  13   2
BRANCH  16   3
ATOM      3  O   UNL     1      -8.880 -10.610  19.997  0.00  0.00    -0.387 OA
ATOM     39  H   UNL     1      -8.740  -9.828  20.558  0.00  0.00    +0.210 HD
ENDBRANCH  16   3
BRANCH  18   4
ATOM      4  O   UNL     1      -6.130 -10.020  20.444  0.00  0.00    -0.389 OA
ATOM     40  H   UNL     1      -5.387 -10.399  20.943  0.00  0.00    +0.210 HD
ENDBRANCH  18   4
TORSDOF 12
ENDMDL
MODEL 8
REMARK VINA RESULT:      -6.7     16.036     18.872
REMARK  Name = 7134496
REMARK  12 active torsions:
REMARK  status: ('A' for Active; 'I' for Inactive)
REMARK    1  A    between atoms: S_1  and  C_22
REMARK    2  A    between atoms: S_1  and  C_26
REMARK    3  A    between atoms: O_2  and  C_13
REMARK    4  A    between atoms: O_3  and  C_16
REMARK    5  A    between atoms: O_4  and  C_18
REMARK    6  A    between atoms: N_10  and  C_14
REMARK    7  A    between atoms: N_11  and  C_21
REMARK    8  A    between atoms: C_13  and  C_19
REMARK    9  A    between atoms: C_20  and  C_22
REMARK   10  A    between atoms: C_21  and  C_23
REMARK   11  A    between atoms: C_21  and  C_24
REMARK   12  A    between atoms: C_23  and  C_25
REMARK                            x       y       z     vdW  Elec       q    Type
REMARK                         _______ _______ _______ _____ _____    ______ ____
ROOT
ATOM     13  C   UNL     1      13.149   8.531   5.243  0.00  0.00    +0.146 C 
ATOM     14  C   UNL     1      14.522   7.330   3.472  0.00  0.00    +0.107 C 
ATOM     15  C   UNL     1      13.216   7.347   4.274  0.00  0.00    +0.069 C 
ATOM     16  C   UNL     1      15.754   7.390   4.385  0.00  0.00    +0.163 C 
ATOM     17  C   UNL     1      14.372   8.566   6.158  0.00  0.00    +0.078 C 
ATOM     18  C   UNL     1      15.682   8.559   5.370  0.00  0.00    +0.148 C 
ENDROOT
BRANCH  13  19
ATOM      5  O   UNL     1      11.918   8.329   7.279  0.00  0.00    -0.273 OA
ATOM     11  N   UNL     1      10.754   8.584   5.279  0.00  0.00    -0.301 N 
ATOM     19  C   UNL     1      11.893   8.475   6.060  0.00  0.00    +0.246 C 
ATOM     41  H   UNL     1      10.838   8.663   4.270  0.00  0.00    +0.150 HD
BRANCH  11  21
ATOM     21  C   UNL     1       9.416   8.536   5.822  0.00  0.00    +0.163 C 
BRANCH  21  24
ATOM      9  O   UNL     1       9.015  10.712   4.816  0.00  0.00    -0.274 OA
ATOM     12  N   UNL     1       7.354   9.128   4.707  0.00  0.00    -0.328 N 
ATOM     24  C   UNL     1       8.598   9.588   5.086  0.00  0.00    +0.231 C 
ATOM     42  H   UNL     1       7.032   8.189   4.917  0.00  0.00    +0.145 HD
ATOM     43  H   UNL     1       6.712   9.726   4.198  0.00  0.00    +0.145 HD
ENDBRANCH  21  24
BRANCH  21  23
ATOM     23  C   UNL     1       8.773   7.153   5.664  0.00  0.00    +0.067 C 
BRANCH  23  25
ATOM     25  C   UNL     1       9.100   6.234   6.818  0.00  0.00    -0.045 A 
ATOM     27  C   UNL     1       8.829   6.646   8.112  0.00  0.00    +0.004 A 
ATOM     28  C   UNL     1       9.665   4.995   6.559  0.00  0.00    +0.004 A 
ATOM     31  C   UNL     1       9.131   5.797   9.177  0.00  0.00    +0.000 A 
ATOM     32  C   UNL     1       9.967   4.146   7.624  0.00  0.00    +0.000 A 
ATOM     33  C   UNL     1       9.700   4.548   8.934  0.00  0.00    +0.000 A 
ENDBRANCH  23  25
ENDBRANCH  21  23
ENDBRANCH  11  21
ENDBRANCH  13  19
BRANCH  14  10
ATOM      6  O   UNL     1      14.885   7.246   0.612  0.00  0.00    -0.274 OA
ATOM     10  N   UNL     1      14.565   6.152   2.634  0.00  0.00    -0.308 N 
ATOM     20  C   UNL     1      14.745   6.214   1.261  0.00  0.00    +0.235 C 
ATOM     37  H   UNL     1      14.390   5.254   3.076  0.00  0.00    +0.149 HD
BRANCH  20  22
ATOM     22  C   UNL     1      14.753   4.835   0.648  0.00  0.00    +0.267 C 
BRANCH  22   1
ATOM      1  S   UNL     1      13.236   4.445  -0.154  0.00  0.00    +0.005 S 
ATOM      7  O   UNL     1      13.062   5.372  -1.262  0.00  0.00    -0.169 OA
ATOM      8  O   UNL     1      13.179   3.012  -0.388  0.00  0.00    -0.169 OA
BRANCH   1  26
ATOM     26  C   UNL     1      11.998   4.815   1.057  0.00  0.00    +0.089 A 
ATOM     29  C   UNL     1      11.867   3.991   2.160  0.00  0.00    +0.027 A 
ATOM     30  C   UNL     1      11.187   5.920   0.874  0.00  0.00    +0.027 A 
ATOM     34  C   UNL     1      10.890   4.282   3.113  0.00  0.00    +0.002 A 
ATOM     35  C   UNL     1      10.210   6.211   1.827  0.00  0.00    +0.002 A 
ATOM     36  C   UNL     1      10.062   5.392   2.947  0.00  0.00    +0.000 A 
ENDBRANCH   1  26
ENDBRANCH  22   1
ENDBRANCH  20  22
ENDBRANCH  14  10
BRANCH  13   2
ATOM      2  O   UNL     1      13.070   9.757   4.526  0.00  0.00    -0.379 OA
ATOM     38  H   UNL     1      12.316   9.705   3.912  0.00  0.00    +0.211 HD
ENDBRANCH  13   2
BRANCH  16   3
ATOM      3  O   UNL     1      16.922   7.574   3.580  0.00  0.00    -0.387 OA
ATOM     39  H   UNL     1      16.656   8.058   2.781  0.00  0.00    +0.210 HD
ENDBRANCH  16   3
BRANCH  18   4
ATOM      4  O   UNL     1      16.771   8.445   6.287  0.00  0.00    -0.389 OA
ATOM     40  H   UNL     1      17.295   9.262   6.226  0.00  0.00    +0.210 HD
ENDBRANCH  18   4
TORSDOF 12
ENDMDL
MODEL 9
REMARK VINA RESULT:      -6.7     28.912     31.592
REMARK  Name = 7134496
REMARK  12 active torsions:
REMARK  status: ('A' for Active; 'I' for Inactive)
REMARK    1  A    between atoms: S_1  and  C_22
REMARK    2  A    between atoms: S_1  and  C_26
REMARK    3  A    between atoms: O_2  and  C_13
REMARK    4  A    between atoms: O_3  and  C_16
REMARK    5  A    between atoms: O_4  and  C_18
REMARK    6  A    between atoms: N_10  and  C_14
REMARK    7  A    between atoms: N_11  and  C_21
REMARK    8  A    between atoms: C_13  and  C_19
REMARK    9  A    between atoms: C_20  and  C_22
REMARK   10  A    between atoms: C_21  and  C_23
REMARK   11  A    between atoms: C_21  and  C_24
REMARK   12  A    between atoms: C_23  and  C_25
REMARK                            x       y       z     vdW  Elec       q    Type
REMARK                         _______ _______ _______ _____ _____    ______ ____
ROOT
ATOM     13  C   UNL     1      -8.779 -10.813  18.806  0.00  0.00    +0.146 C 
ATOM     14  C   UNL     1      -6.670 -11.475  17.552  0.00  0.00    +0.107 C 
ATOM     15  C   UNL     1      -7.912 -10.578  17.567  0.00  0.00    +0.069 C 
ATOM     16  C   UNL     1      -7.033 -12.957  17.721  0.00  0.00    +0.163 C 
ATOM     17  C   UNL     1      -9.150 -12.288  18.951  0.00  0.00    +0.078 C 
ATOM     18  C   UNL     1      -7.918 -13.194  18.948  0.00  0.00    +0.148 C 
ENDROOT
BRANCH  13  19
ATOM      5  O   UNL     1     -10.853  -9.986  19.652  0.00  0.00    -0.273 OA
ATOM     11  N   UNL     1     -10.096  -9.227  17.586  0.00  0.00    -0.301 N 
ATOM     19  C   UNL     1     -10.019  -9.971  18.752  0.00  0.00    +0.246 C 
ATOM     41  H   UNL     1      -9.371  -9.313  16.881  0.00  0.00    +0.150 HD
BRANCH  11  21
ATOM     21  C   UNL     1     -11.204  -8.351  17.280  0.00  0.00    +0.163 C 
BRANCH  21  24
ATOM      9  O   UNL     1     -11.146  -6.072  16.438  0.00  0.00    -0.274 OA
ATOM     12  N   UNL     1      -9.486  -7.524  15.794  0.00  0.00    -0.328 N 
ATOM     24  C   UNL     1     -10.646  -7.194  16.464  0.00  0.00    +0.231 C 
ATOM     42  H   UNL     1      -9.071  -8.449  15.843  0.00  0.00    +0.145 HD
ATOM     43  H   UNL     1      -9.003  -6.839  15.222  0.00  0.00    +0.145 HD
ENDBRANCH  21  24
BRANCH  21  23
ATOM     23  C   UNL     1     -12.314  -9.067  16.501  0.00  0.00    +0.067 C 
BRANCH  23  25
ATOM     25  C   UNL     1     -13.689  -8.754  17.045  0.00  0.00    -0.045 A 
ATOM     27  C   UNL     1     -14.159  -9.452  18.145  0.00  0.00    +0.004 A 
ATOM     28  C   UNL     1     -14.454  -7.774  16.432  0.00  0.00    +0.004 A 
ATOM     31  C   UNL     1     -15.429  -9.164  18.646  0.00  0.00    +0.000 A 
ATOM     32  C   UNL     1     -15.723  -7.486  16.933  0.00  0.00    +0.000 A 
ATOM     33  C   UNL     1     -16.211  -8.181  18.040  0.00  0.00    +0.000 A 
ENDBRANCH  23  25
ENDBRANCH  21  23
ENDBRANCH  11  21
ENDBRANCH  13  19
BRANCH  14  10
ATOM      6  O   UNL     1      -3.869 -10.839  17.297  0.00  0.00    -0.274 OA
ATOM     10  N   UNL     1      -5.932 -11.269  16.325  0.00  0.00    -0.308 N 
ATOM     20  C   UNL     1      -4.580 -10.965  16.305  0.00  0.00    +0.235 C 
ATOM     37  H   UNL     1      -6.455 -11.286  15.454  0.00  0.00    +0.149 HD
BRANCH  20  22
ATOM     22  C   UNL     1      -4.076 -10.809  14.891  0.00  0.00    +0.267 C 
BRANCH  22   1
ATOM      1  S   UNL     1      -5.384 -10.661  13.722  0.00  0.00    +0.005 S 
ATOM      7  O   UNL     1      -5.887 -11.996  13.439  0.00  0.00    -0.169 OA
ATOM      8  O   UNL     1      -6.296  -9.618  14.164  0.00  0.00    -0.169 OA
BRANCH   1  26
ATOM     26  C   UNL     1      -4.590 -10.061  12.258  0.00  0.00    +0.089 A 
ATOM     29  C   UNL     1      -3.264 -10.379  12.032  0.00  0.00    +0.027 A 
ATOM     30  C   UNL     1      -5.314  -9.285  11.370  0.00  0.00    +0.027 A 
ATOM     34  C   UNL     1      -2.639  -9.906  10.878  0.00  0.00    +0.002 A 
ATOM     35  C   UNL     1      -4.689  -8.811  10.217  0.00  0.00    +0.002 A 
ATOM     36  C   UNL     1      -3.351  -9.122   9.971  0.00  0.00    +0.000 A 
ENDBRANCH   1  26
ENDBRANCH  22   1
ENDBRANCH  20  22
ENDBRANCH  14  10
BRANCH  13   2
ATOM      2  O   UNL     1      -8.095 -10.388  19.979  0.00  0.00    -0.379 OA
ATOM     38  H   UNL     1      -8.387 -10.944  20.723  0.00  0.00    +0.211 HD
ENDBRANCH  13   2
BRANCH  16   3
ATOM      3  O   UNL     1      -5.833 -13.714  17.901  0.00  0.00    -0.387 OA
ATOM     39  H   UNL     1      -5.572 -14.062  17.032  0.00  0.00    +0.210 HD
ENDBRANCH  16   3
BRANCH  18   4
ATOM      4  O   UNL     1      -8.348 -14.556  18.938  0.00  0.00    -0.389 OA
ATOM     40  H   UNL     1      -8.755 -14.743  19.800  0.00  0.00    +0.210 HD
ENDBRANCH  18   4
TORSDOF 12
ENDMDL
MODEL 10
REMARK VINA RESULT:      -6.6     28.799     30.808
REMARK  Name = 7134496
REMARK  12 active torsions:
REMARK  status: ('A' for Active; 'I' for Inactive)
REMARK    1  A    between atoms: S_1  and  C_22
REMARK    2  A    between atoms: S_1  and  C_26
REMARK    3  A    between atoms: O_2  and  C_13
REMARK    4  A    between atoms: O_3  and  C_16
REMARK    5  A    between atoms: O_4  and  C_18
REMARK    6  A    between atoms: N_10  and  C_14
REMARK    7  A    between atoms: N_11  and  C_21
REMARK    8  A    between atoms: C_13  and  C_19
REMARK    9  A    between atoms: C_20  and  C_22
REMARK   10  A    between atoms: C_21  and  C_23
REMARK   11  A    between atoms: C_21  and  C_24
REMARK   12  A    between atoms: C_23  and  C_25
REMARK                            x       y       z     vdW  Elec       q    Type
REMARK                         _______ _______ _______ _____ _____    ______ ____
ROOT
ATOM     13  C   UNL     1      -6.385 -10.637  16.488  0.00  0.00    +0.146 C 
ATOM     14  C   UNL     1      -4.411 -11.186  14.983  0.00  0.00    +0.107 C 
ATOM     15  C   UNL     1      -5.927 -11.289  15.181  0.00  0.00    +0.069 C 
ATOM     16  C   UNL     1      -3.639 -11.731  16.193  0.00  0.00    +0.163 C 
ATOM     17  C   UNL     1      -5.624 -11.203  17.685  0.00  0.00    +0.078 C 
ATOM     18  C   UNL     1      -4.108 -11.097  17.506  0.00  0.00    +0.148 C 
ENDROOT
BRANCH  13  19
ATOM      5  O   UNL     1      -8.555 -11.409  15.857  0.00  0.00    -0.273 OA
ATOM     11  N   UNL     1      -8.313 -10.237  17.853  0.00  0.00    -0.301 N 
ATOM     19  C   UNL     1      -7.862 -10.819  16.681  0.00  0.00    +0.246 C 
ATOM     41  H   UNL     1      -7.664  -9.736  18.452  0.00  0.00    +0.150 HD
BRANCH  11  21
ATOM     21  C   UNL     1      -9.699 -10.252  18.260  0.00  0.00    +0.163 C 
BRANCH  21  24
ATOM      9  O   UNL     1      -9.061 -11.738  20.074  0.00  0.00    -0.274 OA
ATOM     12  N   UNL     1     -10.587 -10.075  20.502  0.00  0.00    -0.328 N 
ATOM     24  C   UNL     1      -9.741 -10.793  19.682  0.00  0.00    +0.231 C 
ATOM     42  H   UNL     1     -11.125  -9.282  20.170  0.00  0.00    +0.145 HD
ATOM     43  H   UNL     1     -10.698 -10.323  21.479  0.00  0.00    +0.145 HD
ENDBRANCH  21  24
BRANCH  21  23
ATOM     23  C   UNL     1     -10.339  -8.860  18.199  0.00  0.00    +0.067 C 
BRANCH  23  25
ATOM     25  C   UNL     1     -10.918  -8.553  16.838  0.00  0.00    -0.045 A 
ATOM     27  C   UNL     1     -10.889  -7.252  16.365  0.00  0.00    +0.004 A 
ATOM     28  C   UNL     1     -11.467  -9.581  16.087  0.00  0.00    +0.004 A 
ATOM     31  C   UNL     1     -11.423  -6.969  15.108  0.00  0.00    +0.000 A 
ATOM     32  C   UNL     1     -12.001  -9.298  14.830  0.00  0.00    +0.000 A 
ATOM     33  C   UNL     1     -11.980  -7.991  14.341  0.00  0.00    +0.000 A 
ENDBRANCH  23  25
ENDBRANCH  21  23
ENDBRANCH  11  21
ENDBRANCH  13  19
BRANCH  14  10
ATOM      6  O   UNL     1      -2.368 -10.407  13.103  0.00  0.00    -0.274 OA
ATOM     10  N   UNL     1      -4.026 -11.885  13.778  0.00  0.00    -0.308 N 
ATOM     20  C   UNL     1      -3.027 -11.429  12.932  0.00  0.00    +0.235 C 
ATOM     37  H   UNL     1      -4.564 -12.707  13.518  0.00  0.00    +0.149 HD
BRANCH  20  22
ATOM     22  C   UNL     1      -2.838 -12.358  11.758  0.00  0.00    +0.267 C 
BRANCH  22   1
ATOM      1  S   UNL     1      -4.286 -12.495  10.767  0.00  0.00    +0.005 S 
ATOM      7  O   UNL     1      -3.919 -13.157   9.525  0.00  0.00    -0.169 OA
ATOM      8  O   UNL     1      -5.368 -13.023  11.582  0.00  0.00    -0.169 OA
BRANCH   1  26
ATOM     26  C   UNL     1      -4.706 -10.819  10.381  0.00  0.00    +0.089 A 
ATOM     29  C   UNL     1      -5.837 -10.260  10.949  0.00  0.00    +0.027 A 
ATOM     30  C   UNL     1      -3.897 -10.103   9.518  0.00  0.00    +0.027 A 
ATOM     34  C   UNL     1      -6.169  -8.940  10.643  0.00  0.00    +0.002 A 
ATOM     35  C   UNL     1      -4.229  -8.784   9.212  0.00  0.00    +0.002 A 
ATOM     36  C   UNL     1      -5.365  -8.202   9.775  0.00  0.00    +0.000 A 
ENDBRANCH   1  26
ENDBRANCH  22   1
ENDBRANCH  20  22
ENDBRANCH  14  10
BRANCH  13   2
ATOM      2  O   UNL     1      -6.190  -9.229  16.436  0.00  0.00    -0.379 OA
ATOM     38  H   UNL     1      -6.966  -8.827  16.008  0.00  0.00    +0.211 HD
ENDBRANCH  13   2
BRANCH  16   3
ATOM      3  O   UNL     1      -2.251 -11.425  16.038  0.00  0.00    -0.387 OA
ATOM     39  H   UNL     1      -2.180 -10.687  15.409  0.00  0.00    +0.210 HD
ENDBRANCH  16   3
BRANCH  18   4
ATOM      4  O   UNL     1      -3.468 -11.774  18.588  0.00  0.00    -0.389 OA
ATOM     40  H   UNL     1      -3.952 -12.602  18.746  0.00  0.00    +0.210 HD
ENDBRANCH  18   4
TORSDOF 12
ENDMDL
