MODEL 1
REMARK VINA RESULT:      -7.3      0.000      0.000
REMARK  Name = 11884162
REMARK  8 active torsions:
REMARK  status: ('A' for Active; 'I' for Inactive)
REMARK    1  A    between atoms: O_3  and  C_13
REMARK    2  A    between atoms: O_3  and  C_17
REMARK    3  A    between atoms: N_7  and  C_12
REMARK    4  A    between atoms: N_8  and  C_18
REMARK    5  A    between atoms: N_9  and  C_19
REMARK    6  A    between atoms: C_18  and  C_20
REMARK    7  A    between atoms: C_25  and  C_26
REMARK    8  A    between atoms: C_26  and  C_27
REMARK                            x       y       z     vdW  Elec       q    Type
REMARK                         _______ _______ _______ _____ _____    ______ ____
ROOT
ATOM      1  O   UNL     1     -16.817   5.039  25.265  0.00  0.00    -0.368 OA
ATOM      2  O   UNL     1     -16.749   2.085  24.442  0.00  0.00    -0.368 OA
ATOM     10  C   UNL     1     -15.890   2.856  25.307  0.00  0.00    +0.173 C 
ATOM     11  C   UNL     1     -15.771   4.235  24.692  0.00  0.00    +0.192 C 
ATOM     12  C   UNL     1     -16.574   3.107  26.631  0.00  0.00    +0.131 C 
ATOM     13  C   UNL     1     -16.015   3.963  23.227  0.00  0.00    +0.235 C 
ATOM     14  C   UNL     1     -17.462   4.298  26.313  0.00  0.00    +0.185 C 
ATOM     15  C   UNL     1     -17.054   2.865  23.277  0.00  0.00    +0.207 C 
ENDROOT
BRANCH  12   7
ATOM      4  O   UNL     1     -15.824   1.456  28.875  0.00  0.00    -0.253 OA
ATOM      7  N   UNL     1     -15.619   3.426  27.663  0.00  0.00    -0.292 N 
ATOM      8  N   UNL     1     -14.362   3.120  29.566  0.00  0.00    -0.300 N 
ATOM     16  C   UNL     1     -15.316   2.565  28.716  0.00  0.00    +0.300 C 
ATOM     28  H   UNL     1     -15.093   4.291  27.585  0.00  0.00    +0.151 HD
ATOM     29  H   UNL     1     -13.990   4.040  29.349  0.00  0.00    +0.150 HD
BRANCH   8  18
ATOM     18  C   UNL     1     -13.868   2.438  30.739  0.00  0.00    +0.102 C 
ATOM     20  C   UNL     1     -13.163   3.393  31.680  0.00  0.00    +0.024 C 
ENDBRANCH   8  18
ENDBRANCH  12   7
BRANCH  13   3
ATOM      3  O   UNL     1     -16.468   5.089  22.512  0.00  0.00    -0.442 OA
BRANCH   3  17
ATOM      5  O   UNL     1     -16.077   5.035  20.259  0.00  0.00    -0.226 OA
ATOM      9  N   UNL     1     -14.707   6.252  21.715  0.00  0.00    -0.251 N 
ATOM     17  C   UNL     1     -15.764   5.430  21.375  0.00  0.00    +0.405 C 
ATOM     30  H   UNL     1     -14.608   6.472  22.703  0.00  0.00    +0.158 HD
BRANCH   9  19
ATOM     19  C   UNL     1     -13.740   6.826  20.858  0.00  0.00    +0.036 A 
ATOM     21  C   UNL     1     -12.382   6.603  21.090  0.00  0.00    +0.024 A 
ATOM     22  C   UNL     1     -14.144   7.618  19.783  0.00  0.00    +0.024 A 
ATOM     23  C   UNL     1     -11.429   7.171  20.246  0.00  0.00    +0.013 A 
ATOM     24  C   UNL     1     -13.189   8.187  18.940  0.00  0.00    +0.013 A 
ATOM     25  C   UNL     1     -11.833   7.963  19.171  0.00  0.00    +0.017 A 
BRANCH  25  26
ATOM      6  O   UNL     1     -10.479   7.987  17.240  0.00  0.00    -0.292 OA
ATOM     26  C   UNL     1     -10.838   8.555  18.291  0.00  0.00    +0.160 C 
ATOM     27  C   UNL     1     -10.205   9.899  18.638  0.00  0.00    +0.091 C 
ENDBRANCH  25  26
ENDBRANCH   9  19
ENDBRANCH   3  17
ENDBRANCH  13   3
TORSDOF 6
ENDMDL
MODEL 2
REMARK VINA RESULT:      -6.5      7.538     11.861
REMARK  Name = 11884162
REMARK  8 active torsions:
REMARK  status: ('A' for Active; 'I' for Inactive)
REMARK    1  A    between atoms: O_3  and  C_13
REMARK    2  A    between atoms: O_3  and  C_17
REMARK    3  A    between atoms: N_7  and  C_12
REMARK    4  A    between atoms: N_8  and  C_18
REMARK    5  A    between atoms: N_9  and  C_19
REMARK    6  A    between atoms: C_18  and  C_20
REMARK    7  A    between atoms: C_25  and  C_26
REMARK    8  A    between atoms: C_26  and  C_27
REMARK                            x       y       z     vdW  Elec       q    Type
REMARK                         _______ _______ _______ _____ _____    ______ ____
ROOT
ATOM      1  O   UNL     1     -14.769   8.843  32.519  0.00  0.00    -0.368 OA
ATOM      2  O   UNL     1     -11.971   9.224  33.716  0.00  0.00    -0.368 OA
ATOM     10  C   UNL     1     -12.412   9.051  32.353  0.00  0.00    +0.173 C 
ATOM     11  C   UNL     1     -13.565   8.068  32.386  0.00  0.00    +0.192 C 
ATOM     12  C   UNL     1     -13.039  10.328  31.844  0.00  0.00    +0.131 C 
ATOM     13  C   UNL     1     -13.275   7.266  33.631  0.00  0.00    +0.235 C 
ATOM     14  C   UNL     1     -14.450  10.238  32.400  0.00  0.00    +0.185 C 
ATOM     15  C   UNL     1     -12.694   8.313  34.556  0.00  0.00    +0.207 C 
ENDROOT
BRANCH  12   7
ATOM      4  O   UNL     1     -10.954  11.342  30.126  0.00  0.00    -0.253 OA
ATOM      7  N   UNL     1     -13.045  10.371  30.403  0.00  0.00    -0.292 N 
ATOM      8  N   UNL     1     -12.256  10.799  28.284  0.00  0.00    -0.300 N 
ATOM     16  C   UNL     1     -11.989  10.880  29.648  0.00  0.00    +0.300 C 
ATOM     28  H   UNL     1     -13.827   9.952  29.909  0.00  0.00    +0.151 HD
ATOM     29  H   UNL     1     -13.136  10.394  27.981  0.00  0.00    +0.150 HD
BRANCH   8  18
ATOM     18  C   UNL     1     -11.328  11.258  27.277  0.00  0.00    +0.102 C 
ATOM     20  C   UNL     1     -10.394  10.150  26.836  0.00  0.00    +0.024 C 
ENDBRANCH   8  18
ENDBRANCH  12   7
BRANCH  13   3
ATOM      3  O   UNL     1     -14.417   6.648  34.181  0.00  0.00    -0.442 OA
BRANCH   3  17
ATOM      5  O   UNL     1     -16.135   5.603  33.092  0.00  0.00    -0.226 OA
ATOM      9  N   UNL     1     -14.013   4.631  33.256  0.00  0.00    -0.251 N 
ATOM     17  C   UNL     1     -14.968   5.607  33.464  0.00  0.00    +0.405 C 
ATOM     30  H   UNL     1     -13.091   4.814  33.644  0.00  0.00    +0.158 HD
BRANCH   9  19
ATOM     19  C   UNL     1     -14.157   3.403  32.571  0.00  0.00    +0.036 A 
ATOM     21  C   UNL     1     -14.744   2.311  33.211  0.00  0.00    +0.024 A 
ATOM     22  C   UNL     1     -13.709   3.283  31.255  0.00  0.00    +0.024 A 
ATOM     23  C   UNL     1     -14.884   1.100  32.534  0.00  0.00    +0.013 A 
ATOM     24  C   UNL     1     -13.849   2.071  30.579  0.00  0.00    +0.013 A 
ATOM     25  C   UNL     1     -14.436   0.980  31.218  0.00  0.00    +0.017 A 
BRANCH  25  26
ATOM      6  O   UNL     1     -15.583  -1.011  30.684  0.00  0.00    -0.292 OA
ATOM     26  C   UNL     1     -14.584  -0.284  30.514  0.00  0.00    +0.160 C 
ATOM     27  C   UNL     1     -13.508  -0.751  29.540  0.00  0.00    +0.091 C 
ENDBRANCH  25  26
ENDBRANCH   9  19
ENDBRANCH   3  17
ENDBRANCH  13   3
TORSDOF 6
ENDMDL
MODEL 3
REMARK VINA RESULT:      -6.4     19.638     22.367
REMARK  Name = 11884162
REMARK  8 active torsions:
REMARK  status: ('A' for Active; 'I' for Inactive)
REMARK    1  A    between atoms: O_3  and  C_13
REMARK    2  A    between atoms: O_3  and  C_17
REMARK    3  A    between atoms: N_7  and  C_12
REMARK    4  A    between atoms: N_8  and  C_18
REMARK    5  A    between atoms: N_9  and  C_19
REMARK    6  A    between atoms: C_18  and  C_20
REMARK    7  A    between atoms: C_25  and  C_26
REMARK    8  A    between atoms: C_26  and  C_27
REMARK                            x       y       z     vdW  Elec       q    Type
REMARK                         _______ _______ _______ _____ _____    ______ ____
ROOT
ATOM      1  O   UNL     1      -3.884  -8.786  10.476  0.00  0.00    -0.368 OA
ATOM      2  O   UNL     1      -5.680 -11.233  10.035  0.00  0.00    -0.368 OA
ATOM     10  C   UNL     1      -5.990  -9.829  10.151  0.00  0.00    +0.173 C 
ATOM     11  C   UNL     1      -5.044  -9.255  11.186  0.00  0.00    +0.192 C 
ATOM     12  C   UNL     1      -5.616  -9.107   8.877  0.00  0.00    +0.131 C 
ATOM     13  C   UNL     1      -4.727 -10.457  12.042  0.00  0.00    +0.235 C 
ATOM     14  C   UNL     1      -4.125  -8.879   9.063  0.00  0.00    +0.185 C 
ATOM     15  C   UNL     1      -4.698 -11.575  11.023  0.00  0.00    +0.207 C 
ENDROOT
BRANCH  12   7
ATOM      4  O   UNL     1      -8.301  -8.723   7.892  0.00  0.00    -0.253 OA
ATOM      7  N   UNL     1      -6.327  -7.858   8.755  0.00  0.00    -0.292 N 
ATOM      8  N   UNL     1      -8.072  -6.443   8.256  0.00  0.00    -0.300 N 
ATOM     16  C   UNL     1      -7.628  -7.763   8.266  0.00  0.00    +0.300 C 
ATOM     28  H   UNL     1      -5.883  -7.013   9.101  0.00  0.00    +0.151 HD
ATOM     29  H   UNL     1      -7.448  -5.716   8.594  0.00  0.00    +0.150 HD
BRANCH   8  18
ATOM     18  C   UNL     1      -9.386  -6.063   7.796  0.00  0.00    +0.102 C 
ATOM     20  C   UNL     1     -10.023  -5.043   8.718  0.00  0.00    +0.024 C 
ENDBRANCH   8  18
ENDBRANCH  12   7
BRANCH  13   3
ATOM      3  O   UNL     1      -3.508 -10.346  12.741  0.00  0.00    -0.442 OA
BRANCH   3  17
ATOM      5  O   UNL     1      -2.506 -10.983  14.696  0.00  0.00    -0.226 OA
ATOM      9  N   UNL     1      -4.817 -10.642  14.554  0.00  0.00    -0.251 N 
ATOM     17  C   UNL     1      -3.522 -10.690  14.077  0.00  0.00    +0.405 C 
ATOM     30  H   UNL     1      -5.534 -10.374  13.883  0.00  0.00    +0.158 HD
BRANCH   9  19
ATOM     19  C   UNL     1      -5.275 -10.920  15.862  0.00  0.00    +0.036 A 
ATOM     21  C   UNL     1      -6.266 -11.882  16.064  0.00  0.00    +0.024 A 
ATOM     22  C   UNL     1      -4.739 -10.231  16.949  0.00  0.00    +0.024 A 
ATOM     23  C   UNL     1      -6.718 -12.156  17.354  0.00  0.00    +0.013 A 
ATOM     24  C   UNL     1      -5.192 -10.505  18.240  0.00  0.00    +0.013 A 
ATOM     25  C   UNL     1      -6.181 -11.466  18.442  0.00  0.00    +0.017 A 
BRANCH  25  26
ATOM      6  O   UNL     1      -6.127 -11.226  20.788  0.00  0.00    -0.292 OA
ATOM     26  C   UNL     1      -6.653 -11.753  19.788  0.00  0.00    +0.160 C 
ATOM     27  C   UNL     1      -7.817 -12.714  20.006  0.00  0.00    +0.091 C 
ENDBRANCH  25  26
ENDBRANCH   9  19
ENDBRANCH   3  17
ENDBRANCH  13   3
TORSDOF 6
ENDMDL
MODEL 4
REMARK VINA RESULT:      -6.4     16.793     18.648
REMARK  Name = 11884162
REMARK  8 active torsions:
REMARK  status: ('A' for Active; 'I' for Inactive)
REMARK    1  A    between atoms: O_3  and  C_13
REMARK    2  A    between atoms: O_3  and  C_17
REMARK    3  A    between atoms: N_7  and  C_12
REMARK    4  A    between atoms: N_8  and  C_18
REMARK    5  A    between atoms: N_9  and  C_19
REMARK    6  A    between atoms: C_18  and  C_20
REMARK    7  A    between atoms: C_25  and  C_26
REMARK    8  A    between atoms: C_26  and  C_27
REMARK                            x       y       z     vdW  Elec       q    Type
REMARK                         _______ _______ _______ _____ _____    ______ ____
ROOT
ATOM      1  O   UNL     1     -11.719  -8.582  14.843  0.00  0.00    -0.368 OA
ATOM      2  O   UNL     1     -11.137  -6.124  16.582  0.00  0.00    -0.368 OA
ATOM     10  C   UNL     1     -10.990  -6.349  15.164  0.00  0.00    +0.173 C 
ATOM     11  C   UNL     1     -10.533  -7.783  14.991  0.00  0.00    +0.192 C 
ATOM     12  C   UNL     1     -12.342  -6.315  14.490  0.00  0.00    +0.131 C 
ATOM     13  C   UNL     1      -9.831  -8.062  16.298  0.00  0.00    +0.235 C 
ATOM     14  C   UNL     1     -12.862  -7.719  14.742  0.00  0.00    +0.185 C 
ATOM     15  C   UNL     1     -10.675  -7.286  17.285  0.00  0.00    +0.207 C 
ENDROOT
BRANCH  12   7
ATOM      4  O   UNL     1     -12.547  -3.752  13.179  0.00  0.00    -0.253 OA
ATOM      7  N   UNL     1     -12.216  -6.048  13.078  0.00  0.00    -0.292 N 
ATOM      8  N   UNL     1     -12.166  -4.800  11.145  0.00  0.00    -0.300 N 
ATOM     16  C   UNL     1     -12.330  -4.772  12.528  0.00  0.00    +0.300 C 
ATOM     28  H   UNL     1     -11.969  -6.815  12.460  0.00  0.00    +0.151 HD
ATOM     29  H   UNL     1     -11.981  -5.690  10.692  0.00  0.00    +0.150 HD
BRANCH   8  18
ATOM     18  C   UNL     1     -12.237  -3.614  10.324  0.00  0.00    +0.102 C 
ATOM     20  C   UNL     1     -11.254  -3.676   9.173  0.00  0.00    +0.024 C 
ENDBRANCH   8  18
ENDBRANCH  12   7
BRANCH  13   3
ATOM      3  O   UNL     1      -9.764  -9.433  16.621  0.00  0.00    -0.442 OA
BRANCH   3  17
ATOM      5  O   UNL     1      -8.853 -11.131  15.389  0.00  0.00    -0.226 OA
ATOM      9  N   UNL     1      -7.516  -9.568  16.507  0.00  0.00    -0.251 N 
ATOM     17  C   UNL     1      -8.703 -10.145  16.100  0.00  0.00    +0.405 C 
ATOM     30  H   UNL     1      -7.595  -8.746  17.100  0.00  0.00    +0.158 HD
BRANCH   9  19
ATOM     19  C   UNL     1      -6.198  -9.980  16.201  0.00  0.00    +0.036 A 
ATOM     21  C   UNL     1      -5.321 -10.330  17.228  0.00  0.00    +0.024 A 
ATOM     22  C   UNL     1      -5.775 -10.033  14.872  0.00  0.00    +0.024 A 
ATOM     23  C   UNL     1      -4.021 -10.734  16.925  0.00  0.00    +0.013 A 
ATOM     24  C   UNL     1      -4.475 -10.437  14.571  0.00  0.00    +0.013 A 
ATOM     25  C   UNL     1      -3.598 -10.788  15.597  0.00  0.00    +0.017 A 
BRANCH  25  26
ATOM      6  O   UNL     1      -2.018 -12.267  14.661  0.00  0.00    -0.292 OA
ATOM     26  C   UNL     1      -2.243 -11.210  15.283  0.00  0.00    +0.160 C 
ATOM     27  C   UNL     1      -1.053 -10.358  15.713  0.00  0.00    +0.091 C 
ENDBRANCH  25  26
ENDBRANCH   9  19
ENDBRANCH   3  17
ENDBRANCH  13   3
TORSDOF 6
ENDMDL
MODEL 5
REMARK VINA RESULT:      -6.4     30.421     34.249
REMARK  Name = 11884162
REMARK  8 active torsions:
REMARK  status: ('A' for Active; 'I' for Inactive)
REMARK    1  A    between atoms: O_3  and  C_13
REMARK    2  A    between atoms: O_3  and  C_17
REMARK    3  A    between atoms: N_7  and  C_12
REMARK    4  A    between atoms: N_8  and  C_18
REMARK    5  A    between atoms: N_9  and  C_19
REMARK    6  A    between atoms: C_18  and  C_20
REMARK    7  A    between atoms: C_25  and  C_26
REMARK    8  A    between atoms: C_26  and  C_27
REMARK                            x       y       z     vdW  Elec       q    Type
REMARK                         _______ _______ _______ _____ _____    ______ ____
ROOT
ATOM      1  O   UNL     1      21.727   6.412  20.135  0.00  0.00    -0.368 OA
ATOM      2  O   UNL     1      20.849   5.804  23.010  0.00  0.00    -0.368 OA
ATOM     10  C   UNL     1      21.508   4.988  22.019  0.00  0.00    +0.173 C 
ATOM     11  C   UNL     1      20.911   5.359  20.677  0.00  0.00    +0.192 C 
ATOM     12  C   UNL     1      22.959   5.391  21.894  0.00  0.00    +0.131 C 
ATOM     13  C   UNL     1      19.537   5.857  21.057  0.00  0.00    +0.235 C 
ATOM     14  C   UNL     1      22.879   6.595  20.971  0.00  0.00    +0.185 C 
ATOM     15  C   UNL     1      19.803   6.551  22.374  0.00  0.00    +0.207 C 
ENDROOT
BRANCH  12   7
ATOM      4  O   UNL     1      24.691   3.547  23.282  0.00  0.00    -0.253 OA
ATOM      7  N   UNL     1      23.748   4.334  21.312  0.00  0.00    -0.292 N 
ATOM      8  N   UNL     1      25.209   2.558  21.249  0.00  0.00    -0.300 N 
ATOM     16  C   UNL     1      24.562   3.486  22.060  0.00  0.00    +0.300 C 
ATOM     28  H   UNL     1      23.659   4.157  20.316  0.00  0.00    +0.151 HD
ATOM     29  H   UNL     1      25.034   2.577  20.248  0.00  0.00    +0.150 HD
BRANCH   8  18
ATOM     18  C   UNL     1      26.114   1.559  21.769  0.00  0.00    +0.102 C 
ATOM     20  C   UNL     1      25.389   0.269  22.091  0.00  0.00    +0.024 C 
ENDBRANCH   8  18
ENDBRANCH  12   7
BRANCH  13   3
ATOM      3  O   UNL     1      18.969   6.727  20.104  0.00  0.00    -0.442 OA
BRANCH   3  17
ATOM      5  O   UNL     1      17.252   5.679  19.016  0.00  0.00    -0.226 OA
ATOM      9  N   UNL     1      16.867   7.438  20.511  0.00  0.00    -0.251 N 
ATOM     17  C   UNL     1      17.636   6.536  19.802  0.00  0.00    +0.405 C 
ATOM     30  H   UNL     1      17.371   8.077  21.121  0.00  0.00    +0.158 HD
BRANCH   9  19
ATOM     19  C   UNL     1      15.461   7.584  20.496  0.00  0.00    +0.036 A 
ATOM     21  C   UNL     1      14.813   7.968  19.322  0.00  0.00    +0.024 A 
ATOM     22  C   UNL     1      14.723   7.349  21.657  0.00  0.00    +0.024 A 
ATOM     23  C   UNL     1      13.426   8.114  19.308  0.00  0.00    +0.013 A 
ATOM     24  C   UNL     1      13.337   7.496  21.642  0.00  0.00    +0.013 A 
ATOM     25  C   UNL     1      12.688   7.878  20.468  0.00  0.00    +0.017 A 
BRANCH  25  26
ATOM      6  O   UNL     1      10.643   8.452  19.442  0.00  0.00    -0.292 OA
ATOM     26  C   UNL     1      11.242   8.031  20.452  0.00  0.00    +0.160 C 
ATOM     27  C   UNL     1      10.417   7.673  21.684  0.00  0.00    +0.091 C 
ENDBRANCH  25  26
ENDBRANCH   9  19
ENDBRANCH   3  17
ENDBRANCH  13   3
TORSDOF 6
ENDMDL
MODEL 6
REMARK VINA RESULT:      -6.4     18.919     19.812
REMARK  Name = 11884162
REMARK  8 active torsions:
REMARK  status: ('A' for Active; 'I' for Inactive)
REMARK    1  A    between atoms: O_3  and  C_13
REMARK    2  A    between atoms: O_3  and  C_17
REMARK    3  A    between atoms: N_7  and  C_12
REMARK    4  A    between atoms: N_8  and  C_18
REMARK    5  A    between atoms: N_9  and  C_19
REMARK    6  A    between atoms: C_18  and  C_20
REMARK    7  A    between atoms: C_25  and  C_26
REMARK    8  A    between atoms: C_26  and  C_27
REMARK                            x       y       z     vdW  Elec       q    Type
REMARK                         _______ _______ _______ _____ _____    ______ ____
ROOT
ATOM      1  O   UNL     1      -6.372 -12.121  17.505  0.00  0.00    -0.368 OA
ATOM      2  O   UNL     1      -4.993 -11.687  20.210  0.00  0.00    -0.368 OA
ATOM     10  C   UNL     1      -5.994 -10.916  19.512  0.00  0.00    +0.173 C 
ATOM     11  C   UNL     1      -5.657 -10.992  18.037  0.00  0.00    +0.192 C 
ATOM     12  C   UNL     1      -7.339 -11.597  19.613  0.00  0.00    +0.131 C 
ATOM     13  C   UNL     1      -4.167 -11.232  18.053  0.00  0.00    +0.235 C 
ATOM     14  C   UNL     1      -7.255 -12.640  18.511  0.00  0.00    +0.185 C 
ATOM     15  C   UNL     1      -4.000 -12.118  19.268  0.00  0.00    +0.207 C 
ENDROOT
BRANCH  12   7
ATOM      4  O   UNL     1     -10.114 -11.932  20.329  0.00  0.00    -0.253 OA
ATOM      7  N   UNL     1      -8.416 -10.668  19.375  0.00  0.00    -0.292 N 
ATOM      8  N   UNL     1     -10.567  -9.851  19.408  0.00  0.00    -0.300 N 
ATOM     16  C   UNL     1      -9.734 -10.912  19.757  0.00  0.00    +0.300 C 
ATOM     28  H   UNL     1      -8.194  -9.765  18.969  0.00  0.00    +0.151 HD
ATOM     29  H   UNL     1     -10.162  -9.044  18.944  0.00  0.00    +0.150 HD
BRANCH   8  18
ATOM     18  C   UNL     1     -11.984  -9.845  19.686  0.00  0.00    +0.102 C 
ATOM     20  C   UNL     1     -12.800  -9.953  18.415  0.00  0.00    +0.024 C 
ENDBRANCH   8  18
ENDBRANCH  12   7
BRANCH  13   3
ATOM      3  O   UNL     1      -3.681 -11.844  16.880  0.00  0.00    -0.442 OA
BRANCH   3  17
ATOM      5  O   UNL     1      -2.543 -10.211  15.753  0.00  0.00    -0.226 OA
ATOM      9  N   UNL     1      -4.408 -11.276  14.822  0.00  0.00    -0.251 N 
ATOM     17  C   UNL     1      -3.460 -11.023  15.794  0.00  0.00    +0.405 C 
ATOM     30  H   UNL     1      -5.095 -11.994  15.040  0.00  0.00    +0.158 HD
BRANCH   9  19
ATOM     19  C   UNL     1      -4.545 -10.660  13.557  0.00  0.00    +0.036 A 
ATOM     21  C   UNL     1      -5.677  -9.895  13.272  0.00  0.00    +0.024 A 
ATOM     22  C   UNL     1      -3.549 -10.818  12.593  0.00  0.00    +0.024 A 
ATOM     23  C   UNL     1      -5.812  -9.289  12.024  0.00  0.00    +0.013 A 
ATOM     24  C   UNL     1      -3.685 -10.211  11.345  0.00  0.00    +0.013 A 
ATOM     25  C   UNL     1      -4.816  -9.447  11.060  0.00  0.00    +0.017 A 
BRANCH  25  26
ATOM      6  O   UNL     1      -3.980  -8.660   9.000  0.00  0.00    -0.292 OA
ATOM     26  C   UNL     1      -4.958  -8.813   9.759  0.00  0.00    +0.160 C 
ATOM     27  C   UNL     1      -6.322  -8.318   9.289  0.00  0.00    +0.091 C 
ENDBRANCH  25  26
ENDBRANCH   9  19
ENDBRANCH   3  17
ENDBRANCH  13   3
TORSDOF 6
ENDMDL
MODEL 7
REMARK VINA RESULT:      -6.3      1.943      3.069
REMARK  Name = 11884162
REMARK  8 active torsions:
REMARK  status: ('A' for Active; 'I' for Inactive)
REMARK    1  A    between atoms: O_3  and  C_13
REMARK    2  A    between atoms: O_3  and  C_17
REMARK    3  A    between atoms: N_7  and  C_12
REMARK    4  A    between atoms: N_8  and  C_18
REMARK    5  A    between atoms: N_9  and  C_19
REMARK    6  A    between atoms: C_18  and  C_20
REMARK    7  A    between atoms: C_25  and  C_26
REMARK    8  A    between atoms: C_26  and  C_27
REMARK                            x       y       z     vdW  Elec       q    Type
REMARK                         _______ _______ _______ _____ _____    ______ ____
ROOT
ATOM      1  O   UNL     1     -17.577   3.635  27.499  0.00  0.00    -0.368 OA
ATOM      2  O   UNL     1     -16.552   0.753  27.734  0.00  0.00    -0.368 OA
ATOM     10  C   UNL     1     -16.025   2.000  28.235  0.00  0.00    +0.173 C 
ATOM     11  C   UNL     1     -16.303   3.050  27.180  0.00  0.00    +0.192 C 
ATOM     12  C   UNL     1     -16.829   2.462  29.428  0.00  0.00    +0.131 C 
ATOM     13  C   UNL     1     -16.365   2.232  25.912  0.00  0.00    +0.235 C 
ATOM     14  C   UNL     1     -18.021   3.136  28.770  0.00  0.00    +0.185 C 
ATOM     15  C   UNL     1     -17.015   0.953  26.390  0.00  0.00    +0.207 C 
ENDROOT
BRANCH  12   7
ATOM      4  O   UNL     1     -15.206   1.850  31.734  0.00  0.00    -0.253 OA
ATOM      7  N   UNL     1     -16.080   3.393  30.236  0.00  0.00    -0.292 N 
ATOM      8  N   UNL     1     -14.700   4.106  31.933  0.00  0.00    -0.300 N 
ATOM     16  C   UNL     1     -15.318   3.009  31.338  0.00  0.00    +0.300 C 
ATOM     28  H   UNL     1     -16.053   4.368  29.951  0.00  0.00    +0.151 HD
ATOM     29  H   UNL     1     -14.844   5.027  31.530  0.00  0.00    +0.150 HD
BRANCH   8  18
ATOM     18  C   UNL     1     -13.852   3.989  33.096  0.00  0.00    +0.102 C 
ATOM     20  C   UNL     1     -14.605   4.322  34.368  0.00  0.00    +0.024 C 
ENDBRANCH   8  18
ENDBRANCH  12   7
BRANCH  13   3
ATOM      3  O   UNL     1     -17.102   2.848  24.880  0.00  0.00    -0.442 OA
BRANCH   3  17
ATOM      5  O   UNL     1     -16.364   2.486  22.745  0.00  0.00    -0.226 OA
ATOM      9  N   UNL     1     -15.806   4.428  23.926  0.00  0.00    -0.251 N 
ATOM     17  C   UNL     1     -16.406   3.198  23.741  0.00  0.00    +0.405 C 
ATOM     30  H   UNL     1     -15.957   4.871  24.829  0.00  0.00    +0.158 HD
BRANCH   9  19
ATOM     19  C   UNL     1     -15.004   5.152  23.014  0.00  0.00    +0.036 A 
ATOM     21  C   UNL     1     -13.643   4.865  22.903  0.00  0.00    +0.024 A 
ATOM     22  C   UNL     1     -15.572   6.155  22.229  0.00  0.00    +0.024 A 
ATOM     23  C   UNL     1     -12.852   5.580  22.004  0.00  0.00    +0.013 A 
ATOM     24  C   UNL     1     -14.780   6.870  21.331  0.00  0.00    +0.013 A 
ATOM     25  C   UNL     1     -13.420   6.583  21.219  0.00  0.00    +0.017 A 
BRANCH  25  26
ATOM      6  O   UNL     1     -11.352   7.355  20.390  0.00  0.00    -0.292 OA
ATOM     26  C   UNL     1     -12.594   7.327  20.282  0.00  0.00    +0.160 C 
ATOM     27  C   UNL     1     -13.237   8.098  19.133  0.00  0.00    +0.091 C 
ENDBRANCH  25  26
ENDBRANCH   9  19
ENDBRANCH   3  17
ENDBRANCH  13   3
TORSDOF 6
ENDMDL
MODEL 8
REMARK VINA RESULT:      -6.2     18.038     19.690
REMARK  Name = 11884162
REMARK  8 active torsions:
REMARK  status: ('A' for Active; 'I' for Inactive)
REMARK    1  A    between atoms: O_3  and  C_13
REMARK    2  A    between atoms: O_3  and  C_17
REMARK    3  A    between atoms: N_7  and  C_12
REMARK    4  A    between atoms: N_8  and  C_18
REMARK    5  A    between atoms: N_9  and  C_19
REMARK    6  A    between atoms: C_18  and  C_20
REMARK    7  A    between atoms: C_25  and  C_26
REMARK    8  A    between atoms: C_26  and  C_27
REMARK                            x       y       z     vdW  Elec       q    Type
REMARK                         _______ _______ _______ _____ _____    ______ ____
ROOT
ATOM      1  O   UNL     1      -6.847 -12.045  17.165  0.00  0.00    -0.368 OA
ATOM      2  O   UNL     1      -5.311 -10.400  19.249  0.00  0.00    -0.368 OA
ATOM     10  C   UNL     1      -4.937 -11.567  18.486  0.00  0.00    +0.173 C 
ATOM     11  C   UNL     1      -6.174 -12.434  18.375  0.00  0.00    +0.192 C 
ATOM     12  C   UNL     1      -4.634 -11.180  17.058  0.00  0.00    +0.131 C 
ATOM     13  C   UNL     1      -6.961 -12.042  19.602  0.00  0.00    +0.235 C 
ATOM     14  C   UNL     1      -6.021 -11.120  16.441  0.00  0.00    +0.185 C 
ATOM     15  C   UNL     1      -6.658 -10.564  19.716  0.00  0.00    +0.207 C 
ENDROOT
BRANCH  12   7
ATOM      4  O   UNL     1      -3.171 -10.881  14.589  0.00  0.00    -0.253 OA
ATOM      7  N   UNL     1      -3.814 -12.173  16.408  0.00  0.00    -0.292 N 
ATOM      8  N   UNL     1      -2.422 -13.066  14.808  0.00  0.00    -0.300 N 
ATOM     16  C   UNL     1      -3.139 -11.942  15.211  0.00  0.00    +0.300 C 
ATOM     28  H   UNL     1      -3.668 -13.061  16.876  0.00  0.00    +0.151 HD
ATOM     29  H   UNL     1      -2.448 -13.897  15.392  0.00  0.00    +0.150 HD
BRANCH   8  18
ATOM     18  C   UNL     1      -1.634 -13.100  13.599  0.00  0.00    +0.102 C 
ATOM     20  C   UNL     1      -2.207 -14.072  12.589  0.00  0.00    +0.024 C 
ENDBRANCH   8  18
ENDBRANCH  12   7
BRANCH  13   3
ATOM      3  O   UNL     1      -8.343 -12.292  19.490  0.00  0.00    -0.442 OA
BRANCH   3  17
ATOM      5  O   UNL     1      -9.707 -10.671  20.354  0.00  0.00    -0.226 OA
ATOM      9  N   UNL     1      -9.266 -10.812  18.060  0.00  0.00    -0.251 N 
ATOM     17  C   UNL     1      -9.169 -11.192  19.384  0.00  0.00    +0.405 C 
ATOM     30  H   UNL     1      -8.742 -11.371  17.392  0.00  0.00    +0.158 HD
BRANCH   9  19
ATOM     19  C   UNL     1     -10.007  -9.739  17.514  0.00  0.00    +0.036 A 
ATOM     21  C   UNL     1     -11.394  -9.837  17.395  0.00  0.00    +0.024 A 
ATOM     22  C   UNL     1      -9.351  -8.583  17.090  0.00  0.00    +0.024 A 
ATOM     23  C   UNL     1     -12.124  -8.780  16.855  0.00  0.00    +0.013 A 
ATOM     24  C   UNL     1     -10.082  -7.526  16.549  0.00  0.00    +0.013 A 
ATOM     25  C   UNL     1     -11.468  -7.624  16.432  0.00  0.00    +0.017 A 
BRANCH  25  26
ATOM      6  O   UNL     1     -11.666  -5.530  15.365  0.00  0.00    -0.292 OA
ATOM     26  C   UNL     1     -12.231  -6.521  15.869  0.00  0.00    +0.160 C 
ATOM     27  C   UNL     1     -13.755  -6.554  15.882  0.00  0.00    +0.091 C 
ENDBRANCH  25  26
ENDBRANCH   9  19
ENDBRANCH   3  17
ENDBRANCH  13   3
TORSDOF 6
ENDMDL
MODEL 9
REMARK VINA RESULT:      -6.1     18.743     20.958
REMARK  Name = 11884162
REMARK  8 active torsions:
REMARK  status: ('A' for Active; 'I' for Inactive)
REMARK    1  A    between atoms: O_3  and  C_13
REMARK    2  A    between atoms: O_3  and  C_17
REMARK    3  A    between atoms: N_7  and  C_12
REMARK    4  A    between atoms: N_8  and  C_18
REMARK    5  A    between atoms: N_9  and  C_19
REMARK    6  A    between atoms: C_18  and  C_20
REMARK    7  A    between atoms: C_25  and  C_26
REMARK    8  A    between atoms: C_26  and  C_27
REMARK                            x       y       z     vdW  Elec       q    Type
REMARK                         _______ _______ _______ _____ _____    ______ ____
ROOT
ATOM      1  O   UNL     1      -8.783  -6.231   8.464  0.00  0.00    -0.368 OA
ATOM      2  O   UNL     1     -11.029  -6.557   6.401  0.00  0.00    -0.368 OA
ATOM     10  C   UNL     1     -10.994  -6.799   7.823  0.00  0.00    +0.173 C 
ATOM     11  C   UNL     1      -9.621  -7.354   8.141  0.00  0.00    +0.192 C 
ATOM     12  C   UNL     1     -11.039  -5.489   8.574  0.00  0.00    +0.131 C 
ATOM     13  C   UNL     1      -9.217  -7.996   6.836  0.00  0.00    +0.235 C 
ATOM     14  C   UNL     1      -9.587  -5.044   8.531  0.00  0.00    +0.185 C 
ATOM     15  C   UNL     1      -9.814  -7.050   5.818  0.00  0.00    +0.207 C 
ENDROOT
BRANCH  12   7
ATOM      4  O   UNL     1     -11.893  -3.445  10.424  0.00  0.00    -0.253 OA
ATOM      7  N   UNL     1     -11.490  -5.678   9.931  0.00  0.00    -0.292 N 
ATOM      8  N   UNL     1     -12.274  -5.091  12.013  0.00  0.00    -0.300 N 
ATOM     16  C   UNL     1     -11.886  -4.628  10.758  0.00  0.00    +0.300 C 
ATOM     28  H   UNL     1     -11.586  -6.626  10.282  0.00  0.00    +0.151 HD
ATOM     29  H   UNL     1     -12.244  -6.089  12.197  0.00  0.00    +0.150 HD
BRANCH   8  18
ATOM     18  C   UNL     1     -12.729  -4.212  13.065  0.00  0.00    +0.102 C 
ATOM     20  C   UNL     1     -14.229  -4.009  13.008  0.00  0.00    +0.024 C 
ENDBRANCH   8  18
ENDBRANCH  12   7
BRANCH  13   3
ATOM      3  O   UNL     1      -7.822  -8.130   6.681  0.00  0.00    -0.442 OA
BRANCH   3  17
ATOM      5  O   UNL     1      -7.331 -10.234   7.433  0.00  0.00    -0.226 OA
ATOM      9  N   UNL     1      -6.400  -8.327   8.421  0.00  0.00    -0.251 N 
ATOM     17  C   UNL     1      -7.185  -9.021   7.520  0.00  0.00    +0.405 C 
ATOM     30  H   UNL     1      -6.408  -7.314   8.336  0.00  0.00    +0.158 HD
BRANCH   9  19
ATOM     19  C   UNL     1      -5.584  -8.851   9.449  0.00  0.00    +0.036 A 
ATOM     21  C   UNL     1      -6.107  -9.035  10.729  0.00  0.00    +0.024 A 
ATOM     22  C   UNL     1      -4.255  -9.182   9.184  0.00  0.00    +0.024 A 
ATOM     23  C   UNL     1      -5.302  -9.550  11.744  0.00  0.00    +0.013 A 
ATOM     24  C   UNL     1      -3.450  -9.697  10.200  0.00  0.00    +0.013 A 
ATOM     25  C   UNL     1      -3.972  -9.881  11.479  0.00  0.00    +0.017 A 
BRANCH  25  26
ATOM      6  O   UNL     1      -3.578 -10.608  13.688  0.00  0.00    -0.292 OA
ATOM     26  C   UNL     1      -3.133 -10.420  12.538  0.00  0.00    +0.160 C 
ATOM     27  C   UNL     1      -1.675 -10.770  12.261  0.00  0.00    +0.091 C 
ENDBRANCH  25  26
ENDBRANCH   9  19
ENDBRANCH   3  17
ENDBRANCH  13   3
TORSDOF 6
ENDMDL
MODEL 10
REMARK VINA RESULT:      -6.1     27.025     30.022
REMARK  Name = 11884162
REMARK  8 active torsions:
REMARK  status: ('A' for Active; 'I' for Inactive)
REMARK    1  A    between atoms: O_3  and  C_13
REMARK    2  A    between atoms: O_3  and  C_17
REMARK    3  A    between atoms: N_7  and  C_12
REMARK    4  A    between atoms: N_8  and  C_18
REMARK    5  A    between atoms: N_9  and  C_19
REMARK    6  A    between atoms: C_18  and  C_20
REMARK    7  A    between atoms: C_25  and  C_26
REMARK    8  A    between atoms: C_26  and  C_27
REMARK                            x       y       z     vdW  Elec       q    Type
REMARK                         _______ _______ _______ _____ _____    ______ ____
ROOT
ATOM      1  O   UNL     1       4.588  11.363   2.361  0.00  0.00    -0.368 OA
ATOM      2  O   UNL     1       5.481   9.662  -0.030  0.00  0.00    -0.368 OA
ATOM     10  C   UNL     1       4.353   9.540   0.862  0.00  0.00    +0.173 C 
ATOM     11  C   UNL     1       4.836   9.951   2.238  0.00  0.00    +0.192 C 
ATOM     12  C   UNL     1       3.306  10.574   0.521  0.00  0.00    +0.131 C 
ATOM     13  C   UNL     1       6.313   9.646   2.172  0.00  0.00    +0.235 C 
ATOM     14  C   UNL     1       3.835  11.812   1.225  0.00  0.00    +0.185 C 
ATOM     15  C   UNL     1       6.646   9.996   0.738  0.00  0.00    +0.207 C 
ENDROOT
BRANCH  12   7
ATOM      4  O   UNL     1       0.791  10.659  -0.893  0.00  0.00    -0.253 OA
ATOM      7  N   UNL     1       2.010  10.195   1.028  0.00  0.00    -0.292 N 
ATOM      8  N   UNL     1      -0.264   9.841   1.005  0.00  0.00    -0.300 N 
ATOM     16  C   UNL     1       0.841  10.268   0.273  0.00  0.00    +0.300 C 
ATOM     28  H   UNL     1       1.954   9.794   1.960  0.00  0.00    +0.151 HD
ATOM     29  H   UNL     1      -0.124   9.526   1.961  0.00  0.00    +0.150 HD
BRANCH   8  18
ATOM     18  C   UNL     1      -1.601   9.815   0.461  0.00  0.00    +0.102 C 
ATOM     20  C   UNL     1      -2.630  10.212   1.499  0.00  0.00    +0.024 C 
ENDBRANCH   8  18
ENDBRANCH  12   7
BRANCH  13   3
ATOM      3  O   UNL     1       7.083  10.388   3.090  0.00  0.00    -0.442 OA
BRANCH   3  17
ATOM      5  O   UNL     1       9.260   9.826   3.511  0.00  0.00    -0.226 OA
ATOM      9  N   UNL     1       7.494   8.908   4.743  0.00  0.00    -0.251 N 
ATOM     17  C   UNL     1       8.069   9.704   3.771  0.00  0.00    +0.405 C 
ATOM     30  H   UNL     1       6.479   8.942   4.808  0.00  0.00    +0.158 HD
BRANCH   9  19
ATOM     19  C   UNL     1       8.140   8.049   5.660  0.00  0.00    +0.036 A 
ATOM     21  C   UNL     1       8.310   6.699   5.351  0.00  0.00    +0.024 A 
ATOM     22  C   UNL     1       8.606   8.550   6.876  0.00  0.00    +0.024 A 
ATOM     23  C   UNL     1       8.946   5.851   6.256  0.00  0.00    +0.013 A 
ATOM     24  C   UNL     1       9.241   7.701   7.782  0.00  0.00    +0.013 A 
ATOM     25  C   UNL     1       9.412   6.353   7.472  0.00  0.00    +0.017 A 
BRANCH  25  26
ATOM      6  O   UNL     1      11.317   5.459   8.537  0.00  0.00    -0.292 OA
ATOM     26  C   UNL     1      10.076   5.468   8.416  0.00  0.00    +0.160 C 
ATOM     27  C   UNL     1       9.258   4.521   9.289  0.00  0.00    +0.091 C 
ENDBRANCH  25  26
ENDBRANCH   9  19
ENDBRANCH   3  17
ENDBRANCH  13   3
TORSDOF 6
ENDMDL
