MODEL 1
REMARK VINA RESULT:      -8.1      0.000      0.000
REMARK  Name = 26744756
REMARK  5 active torsions:
REMARK  status: ('A' for Active; 'I' for Inactive)
REMARK    1  A    between atoms: N_2  and  C_13
REMARK    2  A    between atoms: C_8  and  C_14
REMARK    3  A    between atoms: C_13  and  C_15
REMARK    4  A    between atoms: C_19  and  C_22
REMARK    5  A    between atoms: C_20  and  C_26
REMARK                            x       y       z     vdW  Elec       q    Type
REMARK                         _______ _______ _______ _____ _____    ______ ____
ROOT
ATOM      2  N   UNL     1      14.393   7.441  19.388  0.00  0.00    -0.281 NA
ATOM      3  N   UNL     1      11.806   6.545  21.952  0.00  0.00    -0.347 N 
ATOM      4  N   UNL     1      10.490   7.955  20.820  0.00  0.00    -0.240 NA
ATOM      8  C   UNL     1      13.378   7.762  18.327  0.00  0.00    +0.152 C 
ATOM      9  C   UNL     1      12.092   8.446  18.916  0.00  0.00    +0.086 C 
ATOM     10  C   UNL     1      13.856   6.507  20.421  0.00  0.00    +0.140 C 
ATOM     11  C   UNL     1      12.508   6.930  20.850  0.00  0.00    +0.053 A 
ATOM     12  C   UNL     1      11.681   7.786  20.171  0.00  0.00    +0.065 A 
ATOM     16  C   UNL     1      10.595   7.190  21.889  0.00  0.00    +0.197 A 
ATOM     30  H   UNL     1      12.110   5.906  22.674  0.00  0.00    +0.167 HD
ENDROOT
BRANCH   8  14
ATOM      1  O   UNL     1      13.879   8.136  15.955  0.00  0.00    -0.336 OA
ATOM      5  N   UNL     1      14.406   9.864  17.279  0.00  0.00    -0.190 NA
ATOM      6  N   UNL     1      14.413   9.121  15.115  0.00  0.00    -0.056 NA
ATOM     14  C   UNL     1      13.912   8.653  17.211  0.00  0.00    +0.245 A 
ATOM     19  C   UNL     1      14.700  10.108  15.969  0.00  0.00    +0.202 A 
BRANCH  19  22
ATOM     22  C   UNL     1      15.277  11.351  15.545  0.00  0.00    +0.022 A 
ATOM     24  C   UNL     1      16.305  11.356  14.603  0.00  0.00    +0.012 A 
ATOM     25  C   UNL     1      14.810  12.554  16.075  0.00  0.00    +0.012 A 
ATOM     27  C   UNL     1      16.868  12.565  14.190  0.00  0.00    +0.001 A 
ATOM     28  C   UNL     1      15.372  13.762  15.663  0.00  0.00    +0.001 A 
ATOM     29  C   UNL     1      16.401  13.767  14.720  0.00  0.00    +0.000 A 
ENDBRANCH  19  22
ENDBRANCH   8  14
BRANCH   2  13
ATOM     13  C   UNL     1      15.617   6.848  18.829  0.00  0.00    +0.120 C 
BRANCH  13  15
ATOM     15  C   UNL     1      16.800   7.043  19.739  0.00  0.00    -0.032 A 
ATOM     17  C   UNL     1      17.858   6.136  19.713  0.00  0.00    +0.023 A 
ATOM     18  C   UNL     1      16.837   8.134  20.608  0.00  0.00    +0.005 A 
ATOM     20  C   UNL     1      18.955   6.318  20.555  0.00  0.00    +0.052 A 
ATOM     21  C   UNL     1      17.934   8.317  21.450  0.00  0.00    +0.002 A 
ATOM     23  C   UNL     1      18.993   7.409  21.424  0.00  0.00    +0.019 A 
BRANCH  20  26
ATOM      7  N   UNL     1      20.922   4.635  20.507  0.00  0.00    -0.191 NA
ATOM     26  C   UNL     1      20.041   5.390  20.529  0.00  0.00    +0.099 C 
ENDBRANCH  20  26
ENDBRANCH  13  15
ENDBRANCH   2  13
TORSDOF 5
ENDMDL
MODEL 2
REMARK VINA RESULT:      -8.0      3.282      7.229
REMARK  Name = 26744756
REMARK  5 active torsions:
REMARK  status: ('A' for Active; 'I' for Inactive)
REMARK    1  A    between atoms: N_2  and  C_13
REMARK    2  A    between atoms: C_8  and  C_14
REMARK    3  A    between atoms: C_13  and  C_15
REMARK    4  A    between atoms: C_19  and  C_22
REMARK    5  A    between atoms: C_20  and  C_26
REMARK                            x       y       z     vdW  Elec       q    Type
REMARK                         _______ _______ _______ _____ _____    ______ ____
ROOT
ATOM      2  N   UNL     1      14.029   7.540  19.536  0.00  0.00    -0.281 NA
ATOM      3  N   UNL     1      17.513   6.165  19.344  0.00  0.00    -0.347 N 
ATOM      4  N   UNL     1      17.735   6.992  21.410  0.00  0.00    -0.240 NA
ATOM      8  C   UNL     1      13.960   7.433  21.034  0.00  0.00    +0.152 C 
ATOM      9  C   UNL     1      15.336   7.752  21.721  0.00  0.00    +0.086 C 
ATOM     10  C   UNL     1      15.022   6.596  18.946  0.00  0.00    +0.140 C 
ATOM     11  C   UNL     1      16.287   6.632  19.708  0.00  0.00    +0.053 A 
ATOM     12  C   UNL     1      16.447   7.126  20.976  0.00  0.00    +0.065 A 
ATOM     16  C   UNL     1      18.353   6.405  20.403  0.00  0.00    +0.197 A 
ATOM     30  H   UNL     1      17.760   5.723  18.469  0.00  0.00    +0.167 HD
ENDROOT
BRANCH   8  14
ATOM      1  O   UNL     1      11.783   7.709  22.131  0.00  0.00    -0.336 OA
ATOM      5  N   UNL     1      12.905   9.626  21.841  0.00  0.00    -0.190 NA
ATOM      6  N   UNL     1      10.971   8.720  22.661  0.00  0.00    -0.056 NA
ATOM     14  C   UNL     1      12.901   8.328  21.669  0.00  0.00    +0.245 A 
ATOM     19  C   UNL     1      11.701   9.819  22.453  0.00  0.00    +0.202 A 
BRANCH  19  22
ATOM     22  C   UNL     1      11.257  11.126  22.846  0.00  0.00    +0.022 A 
ATOM     24  C   UNL     1      10.932  11.379  24.178  0.00  0.00    +0.012 A 
ATOM     25  C   UNL     1      11.151  12.141  21.896  0.00  0.00    +0.012 A 
ATOM     27  C   UNL     1      10.500  12.650  24.561  0.00  0.00    +0.001 A 
ATOM     28  C   UNL     1      10.719  13.412  22.278  0.00  0.00    +0.001 A 
ATOM     29  C   UNL     1      10.394  13.665  23.612  0.00  0.00    +0.000 A 
ENDBRANCH  19  22
ENDBRANCH   8  14
BRANCH   2  13
ATOM     13  C   UNL     1      12.728   7.292  18.897  0.00  0.00    +0.120 C 
BRANCH  13  15
ATOM     15  C   UNL     1      12.528   8.154  17.680  0.00  0.00    -0.032 A 
ATOM     17  C   UNL     1      13.614   8.810  17.102  0.00  0.00    +0.023 A 
ATOM     18  C   UNL     1      11.254   8.295  17.129  0.00  0.00    +0.005 A 
ATOM     20  C   UNL     1      13.428   9.608  15.973  0.00  0.00    +0.052 A 
ATOM     21  C   UNL     1      11.068   9.093  16.000  0.00  0.00    +0.002 A 
ATOM     23  C   UNL     1      12.155   9.749  15.422  0.00  0.00    +0.019 A 
BRANCH  20  26
ATOM      7  N   UNL     1      15.444  10.826  14.898  0.00  0.00    -0.191 NA
ATOM     26  C   UNL     1      14.540  10.280  15.380  0.00  0.00    +0.099 C 
ENDBRANCH  20  26
ENDBRANCH  13  15
ENDBRANCH   2  13
TORSDOF 5
ENDMDL
MODEL 3
REMARK VINA RESULT:      -7.7      3.685      6.752
REMARK  Name = 26744756
REMARK  5 active torsions:
REMARK  status: ('A' for Active; 'I' for Inactive)
REMARK    1  A    between atoms: N_2  and  C_13
REMARK    2  A    between atoms: C_8  and  C_14
REMARK    3  A    between atoms: C_13  and  C_15
REMARK    4  A    between atoms: C_19  and  C_22
REMARK    5  A    between atoms: C_20  and  C_26
REMARK                            x       y       z     vdW  Elec       q    Type
REMARK                         _______ _______ _______ _____ _____    ______ ____
ROOT
ATOM      2  N   UNL     1      12.594  11.290  21.563  0.00  0.00    -0.281 NA
ATOM      3  N   UNL     1      10.229  12.562  24.182  0.00  0.00    -0.347 N 
ATOM      4  N   UNL     1      11.885  12.098  25.612  0.00  0.00    -0.240 NA
ATOM      8  C   UNL     1      13.822  11.653  22.351  0.00  0.00    +0.152 C 
ATOM      9  C   UNL     1      13.630  11.437  23.894  0.00  0.00    +0.086 C 
ATOM     10  C   UNL     1      11.408  12.106  21.957  0.00  0.00    +0.140 C 
ATOM     11  C   UNL     1      11.297  12.182  23.428  0.00  0.00    +0.053 A 
ATOM     12  C   UNL     1      12.298  11.909  24.324  0.00  0.00    +0.065 A 
ATOM     16  C   UNL     1      10.633  12.495  25.493  0.00  0.00    +0.197 A 
ATOM     30  H   UNL     1       9.318  12.844  23.848  0.00  0.00    +0.167 HD
ENDROOT
BRANCH   8  14
ATOM      1  O   UNL     1      16.231  11.608  21.890  0.00  0.00    -0.336 OA
ATOM      5  N   UNL     1      15.209   9.639  21.580  0.00  0.00    -0.190 NA
ATOM      6  N   UNL     1      17.226  10.713  21.477  0.00  0.00    -0.056 NA
ATOM     14  C   UNL     1      15.075  10.895  21.925  0.00  0.00    +0.245 A 
ATOM     19  C   UNL     1      16.545   9.575  21.314  0.00  0.00    +0.202 A 
BRANCH  19  22
ATOM     22  C   UNL     1      17.172   8.355  20.890  0.00  0.00    +0.022 A 
ATOM     24  C   UNL     1      18.453   8.039  21.337  0.00  0.00    +0.012 A 
ATOM     25  C   UNL     1      16.498   7.488  20.031  0.00  0.00    +0.012 A 
ATOM     27  C   UNL     1      19.063   6.853  20.924  0.00  0.00    +0.001 A 
ATOM     28  C   UNL     1      17.107   6.302  19.618  0.00  0.00    +0.001 A 
ATOM     29  C   UNL     1      18.389   5.985  20.066  0.00  0.00    +0.000 A 
ENDBRANCH  19  22
ENDBRANCH   8  14
BRANCH   2  13
ATOM     13  C   UNL     1      12.792  11.445  20.115  0.00  0.00    +0.120 C 
BRANCH  13  15
ATOM     15  C   UNL     1      12.751  10.121  19.400  0.00  0.00    -0.032 A 
ATOM     17  C   UNL     1      13.279  10.005  18.114  0.00  0.00    +0.023 A 
ATOM     18  C   UNL     1      12.186   9.009  20.024  0.00  0.00    +0.005 A 
ATOM     20  C   UNL     1      13.241   8.778  17.452  0.00  0.00    +0.052 A 
ATOM     21  C   UNL     1      12.149   7.782  19.363  0.00  0.00    +0.002 A 
ATOM     23  C   UNL     1      12.676   7.666  18.076  0.00  0.00    +0.019 A 
BRANCH  20  26
ATOM      7  N   UNL     1      14.221   8.560  15.065  0.00  0.00    -0.191 NA
ATOM     26  C   UNL     1      13.781   8.658  16.135  0.00  0.00    +0.099 C 
ENDBRANCH  20  26
ENDBRANCH  13  15
ENDBRANCH   2  13
TORSDOF 5
ENDMDL
MODEL 4
REMARK VINA RESULT:      -7.2      3.292      6.892
REMARK  Name = 26744756
REMARK  5 active torsions:
REMARK  status: ('A' for Active; 'I' for Inactive)
REMARK    1  A    between atoms: N_2  and  C_13
REMARK    2  A    between atoms: C_8  and  C_14
REMARK    3  A    between atoms: C_13  and  C_15
REMARK    4  A    between atoms: C_19  and  C_22
REMARK    5  A    between atoms: C_20  and  C_26
REMARK                            x       y       z     vdW  Elec       q    Type
REMARK                         _______ _______ _______ _____ _____    ______ ____
ROOT
ATOM      2  N   UNL     1      13.153  11.435  20.579  0.00  0.00    -0.281 NA
ATOM      3  N   UNL     1      10.760  13.455  22.643  0.00  0.00    -0.347 N 
ATOM      4  N   UNL     1      10.759  11.683  24.008  0.00  0.00    -0.240 NA
ATOM      8  C   UNL     1      13.667  10.652  21.756  0.00  0.00    +0.152 C 
ATOM      9  C   UNL     1      12.540  10.337  22.804  0.00  0.00    +0.086 C 
ATOM     10  C   UNL     1      12.575  12.749  20.983  0.00  0.00    +0.140 C 
ATOM     11  C   UNL     1      11.691  12.588  22.154  0.00  0.00    +0.053 A 
ATOM     12  C   UNL     1      11.676  11.517  23.008  0.00  0.00    +0.065 A 
ATOM     16  C   UNL     1      10.225  12.864  23.761  0.00  0.00    +0.197 A 
ATOM     30  H   UNL     1      10.512  14.358  22.264  0.00  0.00    +0.167 HD
ENDROOT
BRANCH   8  14
ATOM      1  O   UNL     1      13.519   8.258  21.243  0.00  0.00    -0.336 OA
ATOM      5  N   UNL     1      15.601   9.078  21.159  0.00  0.00    -0.190 NA
ATOM      6  N   UNL     1      14.347   7.183  20.898  0.00  0.00    -0.056 NA
ATOM     14  C   UNL     1      14.336   9.335  21.378  0.00  0.00    +0.245 A 
ATOM     19  C   UNL     1      15.558   7.746  20.869  0.00  0.00    +0.202 A 
BRANCH  19  22
ATOM     22  C   UNL     1      16.746   7.006  20.551  0.00  0.00    +0.022 A 
ATOM     24  C   UNL     1      17.865   7.097  21.377  0.00  0.00    +0.012 A 
ATOM     25  C   UNL     1      16.780   6.196  19.417  0.00  0.00    +0.012 A 
ATOM     27  C   UNL     1      19.021   6.377  21.069  0.00  0.00    +0.001 A 
ATOM     28  C   UNL     1      17.935   5.477  19.107  0.00  0.00    +0.001 A 
ATOM     29  C   UNL     1      19.055   5.567  19.935  0.00  0.00    +0.000 A 
ENDBRANCH  19  22
ENDBRANCH   8  14
BRANCH   2  13
ATOM     13  C   UNL     1      14.198  11.684  19.575  0.00  0.00    +0.120 C 
BRANCH  13  15
ATOM     15  C   UNL     1      13.914  10.969  18.282  0.00  0.00    -0.032 A 
ATOM     17  C   UNL     1      12.775  10.174  18.158  0.00  0.00    +0.023 A 
ATOM     18  C   UNL     1      14.792  11.102  17.206  0.00  0.00    +0.005 A 
ATOM     20  C   UNL     1      12.512   9.512  16.959  0.00  0.00    +0.052 A 
ATOM     21  C   UNL     1      14.529  10.440  16.006  0.00  0.00    +0.002 A 
ATOM     23  C   UNL     1      13.389   9.645  15.883  0.00  0.00    +0.019 A 
BRANCH  20  26
ATOM      7  N   UNL     1      10.397   8.037  16.727  0.00  0.00    -0.191 NA
ATOM     26  C   UNL     1      11.345   8.698  16.831  0.00  0.00    +0.099 C 
ENDBRANCH  20  26
ENDBRANCH  13  15
ENDBRANCH   2  13
TORSDOF 5
ENDMDL
MODEL 5
REMARK VINA RESULT:      -7.0      1.933      6.741
REMARK  Name = 26744756
REMARK  5 active torsions:
REMARK  status: ('A' for Active; 'I' for Inactive)
REMARK    1  A    between atoms: N_2  and  C_13
REMARK    2  A    between atoms: C_8  and  C_14
REMARK    3  A    between atoms: C_13  and  C_15
REMARK    4  A    between atoms: C_19  and  C_22
REMARK    5  A    between atoms: C_20  and  C_26
REMARK                            x       y       z     vdW  Elec       q    Type
REMARK                         _______ _______ _______ _____ _____    ______ ____
ROOT
ATOM      2  N   UNL     1      13.994   8.610  19.724  0.00  0.00    -0.281 NA
ATOM      3  N   UNL     1      10.529   8.453  21.153  0.00  0.00    -0.347 N 
ATOM      4  N   UNL     1      11.173   6.471  21.965  0.00  0.00    -0.240 NA
ATOM      8  C   UNL     1      14.583   7.729  20.791  0.00  0.00    +0.152 C 
ATOM      9  C   UNL     1      13.600   6.589  21.237  0.00  0.00    +0.086 C 
ATOM     10  C   UNL     1      12.743   9.286  20.176  0.00  0.00    +0.140 C 
ATOM     11  C   UNL     1      11.853   8.326  20.860  0.00  0.00    +0.053 A 
ATOM     12  C   UNL     1      12.225   7.110  21.372  0.00  0.00    +0.065 A 
ATOM     16  C   UNL     1      10.165   7.308  21.819  0.00  0.00    +0.197 A 
ATOM     30  H   UNL     1       9.929   9.235  20.929  0.00  0.00    +0.167 HD
ENDROOT
BRANCH   8  14
ATOM      1  O   UNL     1      15.889   6.306  19.278  0.00  0.00    -0.336 OA
ATOM      5  N   UNL     1      17.075   7.154  20.978  0.00  0.00    -0.190 NA
ATOM      6  N   UNL     1      17.195   5.826  19.120  0.00  0.00    -0.056 NA
ATOM     14  C   UNL     1      15.905   7.080  20.395  0.00  0.00    +0.245 A 
ATOM     19  C   UNL     1      17.833   6.369  20.161  0.00  0.00    +0.202 A 
BRANCH  19  22
ATOM     22  C   UNL     1      19.230   6.150  20.410  0.00  0.00    +0.022 A 
ATOM     24  C   UNL     1      19.779   4.882  20.224  0.00  0.00    +0.012 A 
ATOM     25  C   UNL     1      20.036   7.204  20.836  0.00  0.00    +0.012 A 
ATOM     27  C   UNL     1      21.137   4.667  20.465  0.00  0.00    +0.001 A 
ATOM     28  C   UNL     1      21.393   6.990  21.078  0.00  0.00    +0.001 A 
ATOM     29  C   UNL     1      21.943   5.722  20.892  0.00  0.00    +0.000 A 
ENDBRANCH  19  22
ENDBRANCH   8  14
BRANCH   2  13
ATOM     13  C   UNL     1      14.934   9.645  19.272  0.00  0.00    +0.120 C 
BRANCH  13  15
ATOM     15  C   UNL     1      14.672  10.056  17.848  0.00  0.00    -0.032 A 
ATOM     17  C   UNL     1      14.935  11.362  17.437  0.00  0.00    +0.023 A 
ATOM     18  C   UNL     1      14.165   9.128  16.938  0.00  0.00    +0.005 A 
ATOM     20  C   UNL     1      14.692  11.742  16.117  0.00  0.00    +0.052 A 
ATOM     21  C   UNL     1      13.923   9.507  15.617  0.00  0.00    +0.002 A 
ATOM     23  C   UNL     1      14.186  10.815  15.207  0.00  0.00    +0.019 A 
BRANCH  20  26
ATOM      7  N   UNL     1      15.183  14.167  15.354  0.00  0.00    -0.191 NA
ATOM     26  C   UNL     1      14.963  13.080  15.696  0.00  0.00    +0.099 C 
ENDBRANCH  20  26
ENDBRANCH  13  15
ENDBRANCH   2  13
TORSDOF 5
ENDMDL
MODEL 6
REMARK VINA RESULT:      -6.9     13.254     16.430
REMARK  Name = 26744756
REMARK  5 active torsions:
REMARK  status: ('A' for Active; 'I' for Inactive)
REMARK    1  A    between atoms: N_2  and  C_13
REMARK    2  A    between atoms: C_8  and  C_14
REMARK    3  A    between atoms: C_13  and  C_15
REMARK    4  A    between atoms: C_19  and  C_22
REMARK    5  A    between atoms: C_20  and  C_26
REMARK                            x       y       z     vdW  Elec       q    Type
REMARK                         _______ _______ _______ _____ _____    ______ ____
ROOT
ATOM      2  N   UNL     1       9.669   7.222   6.346  0.00  0.00    -0.281 NA
ATOM      3  N   UNL     1       8.651   5.844   9.683  0.00  0.00    -0.347 N 
ATOM      4  N   UNL     1       9.695   3.986   9.007  0.00  0.00    -0.240 NA
ATOM      8  C   UNL     1      10.875   6.332   6.233  0.00  0.00    +0.152 C 
ATOM      9  C   UNL     1      10.623   4.902   6.831  0.00  0.00    +0.086 C 
ATOM     10  C   UNL     1       9.248   7.427   7.763  0.00  0.00    +0.140 C 
ATOM     11  C   UNL     1       9.239   6.142   8.492  0.00  0.00    +0.053 A 
ATOM     12  C   UNL     1       9.877   4.994   8.102  0.00  0.00    +0.065 A 
ATOM     16  C   UNL     1       8.954   4.532   9.951  0.00  0.00    +0.197 A 
ATOM     30  H   UNL     1       8.101   6.464  10.262  0.00  0.00    +0.167 HD
ENDROOT
BRANCH   8  14
ATOM      1  O   UNL     1      12.437   6.934   4.439  0.00  0.00    -0.336 OA
ATOM      5  N   UNL     1      10.950   5.363   3.860  0.00  0.00    -0.190 NA
ATOM      6  N   UNL     1      12.719   6.603   3.108  0.00  0.00    -0.056 NA
ATOM     14  C   UNL     1      11.383   6.159   4.805  0.00  0.00    +0.245 A 
ATOM     19  C   UNL     1      11.800   5.671   2.839  0.00  0.00    +0.202 A 
BRANCH  19  22
ATOM     22  C   UNL     1      11.707   5.027   1.560  0.00  0.00    +0.022 A 
ATOM     24  C   UNL     1      12.686   4.116   1.166  0.00  0.00    +0.012 A 
ATOM     25  C   UNL     1      10.637   5.311   0.713  0.00  0.00    +0.012 A 
ATOM     27  C   UNL     1      12.596   3.489  -0.078  0.00  0.00    +0.001 A 
ATOM     28  C   UNL     1      10.546   4.685  -0.531  0.00  0.00    +0.001 A 
ATOM     29  C   UNL     1      11.526   3.773  -0.925  0.00  0.00    +0.000 A 
ENDBRANCH  19  22
ENDBRANCH   8  14
BRANCH   2  13
ATOM     13  C   UNL     1       9.889   8.543   5.740  0.00  0.00    +0.120 C 
BRANCH  13  15
ATOM     15  C   UNL     1       8.864   8.852   4.683  0.00  0.00    -0.032 A 
ATOM     17  C   UNL     1       7.754   9.637   4.994  0.00  0.00    +0.023 A 
ATOM     18  C   UNL     1       9.025   8.354   3.390  0.00  0.00    +0.005 A 
ATOM     20  C   UNL     1       6.805   9.924   4.014  0.00  0.00    +0.052 A 
ATOM     21  C   UNL     1       8.076   8.642   2.408  0.00  0.00    +0.002 A 
ATOM     23  C   UNL     1       6.966   9.427   2.721  0.00  0.00    +0.019 A 
BRANCH  20  26
ATOM      7  N   UNL     1       4.744  11.382   4.590  0.00  0.00    -0.191 NA
ATOM     26  C   UNL     1       5.668  10.729   4.332  0.00  0.00    +0.099 C 
ENDBRANCH  20  26
ENDBRANCH  13  15
ENDBRANCH   2  13
TORSDOF 5
ENDMDL
MODEL 7
REMARK VINA RESULT:      -6.8     27.131     29.725
REMARK  Name = 26744756
REMARK  5 active torsions:
REMARK  status: ('A' for Active; 'I' for Inactive)
REMARK    1  A    between atoms: N_2  and  C_13
REMARK    2  A    between atoms: C_8  and  C_14
REMARK    3  A    between atoms: C_13  and  C_15
REMARK    4  A    between atoms: C_19  and  C_22
REMARK    5  A    between atoms: C_20  and  C_26
REMARK                            x       y       z     vdW  Elec       q    Type
REMARK                         _______ _______ _______ _____ _____    ______ ____
ROOT
ATOM      2  N   UNL     1      -3.351 -13.402  12.267  0.00  0.00    -0.281 NA
ATOM      3  N   UNL     1      -1.550 -16.321  10.750  0.00  0.00    -0.347 N 
ATOM      4  N   UNL     1      -0.756 -16.645  12.815  0.00  0.00    -0.240 NA
ATOM      8  C   UNL     1      -3.402 -14.016  13.638  0.00  0.00    +0.152 C 
ATOM      9  C   UNL     1      -2.107 -14.838  13.975  0.00  0.00    +0.086 C 
ATOM     10  C   UNL     1      -3.214 -14.428  11.193  0.00  0.00    +0.140 C 
ATOM     11  C   UNL     1      -2.181 -15.420  11.553  0.00  0.00    +0.053 A 
ATOM     12  C   UNL     1      -1.684 -15.641  12.810  0.00  0.00    +0.065 A 
ATOM     16  C   UNL     1      -0.700 -17.037  11.557  0.00  0.00    +0.197 A 
ATOM     30  H   UNL     1      -1.681 -16.447   9.755  0.00  0.00    +0.167 HD
ENDROOT
BRANCH   8  14
ATOM      1  O   UNL     1      -2.702 -12.008  14.863  0.00  0.00    -0.336 OA
ATOM      5  N   UNL     1      -4.573 -12.951  15.655  0.00  0.00    -0.190 NA
ATOM      6  N   UNL     1      -3.107 -11.220  15.947  0.00  0.00    -0.056 NA
ATOM     14  C   UNL     1      -3.620 -13.005  14.760  0.00  0.00    +0.245 A 
ATOM     19  C   UNL     1      -4.216 -11.840  16.361  0.00  0.00    +0.202 A 
BRANCH  19  22
ATOM     22  C   UNL     1      -4.991 -11.373  17.475  0.00  0.00    +0.022 A 
ATOM     24  C   UNL     1      -6.031 -10.468  17.268  0.00  0.00    +0.012 A 
ATOM     25  C   UNL     1      -4.703 -11.824  18.762  0.00  0.00    +0.012 A 
ATOM     27  C   UNL     1      -6.785 -10.013  18.351  0.00  0.00    +0.001 A 
ATOM     28  C   UNL     1      -5.457 -11.370  19.845  0.00  0.00    +0.001 A 
ATOM     29  C   UNL     1      -6.498 -10.465  19.638  0.00  0.00    +0.000 A 
ENDBRANCH  19  22
ENDBRANCH   8  14
BRANCH   2  13
ATOM     13  C   UNL     1      -4.541 -12.591  11.973  0.00  0.00    +0.120 C 
BRANCH  13  15
ATOM     15  C   UNL     1      -4.210 -11.403  11.109  0.00  0.00    -0.032 A 
ATOM     17  C   UNL     1      -4.937 -11.163   9.943  0.00  0.00    +0.023 A 
ATOM     18  C   UNL     1      -3.176 -10.542  11.476  0.00  0.00    +0.005 A 
ATOM     20  C   UNL     1      -4.630 -10.062   9.144  0.00  0.00    +0.052 A 
ATOM     21  C   UNL     1      -2.870  -9.440  10.677  0.00  0.00    +0.002 A 
ATOM     23  C   UNL     1      -3.597  -9.201   9.511  0.00  0.00    +0.019 A 
BRANCH  20  26
ATOM      7  N   UNL     1      -5.978  -9.615   6.979  0.00  0.00    -0.191 NA
ATOM     26  C   UNL     1      -5.374  -9.815   7.949  0.00  0.00    +0.099 C 
ENDBRANCH  20  26
ENDBRANCH  13  15
ENDBRANCH   2  13
TORSDOF 5
ENDMDL
MODEL 8
REMARK VINA RESULT:      -6.8     21.483     24.097
REMARK  Name = 26744756
REMARK  5 active torsions:
REMARK  status: ('A' for Active; 'I' for Inactive)
REMARK    1  A    between atoms: N_2  and  C_13
REMARK    2  A    between atoms: C_8  and  C_14
REMARK    3  A    between atoms: C_13  and  C_15
REMARK    4  A    between atoms: C_19  and  C_22
REMARK    5  A    between atoms: C_20  and  C_26
REMARK                            x       y       z     vdW  Elec       q    Type
REMARK                         _______ _______ _______ _____ _____    ______ ____
ROOT
ATOM      2  N   UNL     1      -2.315  10.558   5.380  0.00  0.00    -0.281 NA
ATOM      3  N   UNL     1      -0.421  11.890   8.331  0.00  0.00    -0.347 N 
ATOM      4  N   UNL     1       1.267  12.128   6.884  0.00  0.00    -0.240 NA
ATOM      8  C   UNL     1      -1.510  11.342   4.381  0.00  0.00    +0.152 C 
ATOM      9  C   UNL     1       0.002  11.459   4.789  0.00  0.00    +0.086 C 
ATOM     10  C   UNL     1      -2.292  11.178   6.737  0.00  0.00    +0.140 C 
ATOM     11  C   UNL     1      -0.917  11.573   7.103  0.00  0.00    +0.053 A 
ATOM     12  C   UNL     1       0.131  11.732   6.234  0.00  0.00    +0.065 A 
ATOM     16  C   UNL     1       0.900  12.217   8.147  0.00  0.00    +0.197 A 
ATOM     30  H   UNL     1      -0.923  11.890   9.208  0.00  0.00    +0.167 HD
ENDROOT
BRANCH   8  14
ATOM      1  O   UNL     1      -0.684   9.798   2.663  0.00  0.00    -0.336 OA
ATOM      5  N   UNL     1      -2.360  11.113   1.974  0.00  0.00    -0.190 NA
ATOM      6  N   UNL     1      -0.928   9.451   1.328  0.00  0.00    -0.056 NA
ATOM     14  C   UNL     1      -1.570  10.782   2.964  0.00  0.00    +0.245 A 
ATOM     19  C   UNL     1      -1.928  10.270   0.993  0.00  0.00    +0.202 A 
BRANCH  19  22
ATOM     22  C   UNL     1      -2.521  10.268  -0.315  0.00  0.00    +0.022 A 
ATOM     24  C   UNL     1      -1.745  10.580  -1.431  0.00  0.00    +0.012 A 
ATOM     25  C   UNL     1      -3.870   9.954  -0.468  0.00  0.00    +0.012 A 
ATOM     27  C   UNL     1      -2.320  10.578  -2.703  0.00  0.00    +0.001 A 
ATOM     28  C   UNL     1      -4.446   9.952  -1.739  0.00  0.00    +0.001 A 
ATOM     29  C   UNL     1      -3.670  10.264  -2.856  0.00  0.00    +0.000 A 
ENDBRANCH  19  22
ENDBRANCH   8  14
BRANCH   2  13
ATOM     13  C   UNL     1      -3.718  10.406   4.972  0.00  0.00    +0.120 C 
BRANCH  13  15
ATOM     15  C   UNL     1      -4.144   8.962   4.955  0.00  0.00    -0.032 A 
ATOM     17  C   UNL     1      -5.442   8.621   4.578  0.00  0.00    +0.023 A 
ATOM     18  C   UNL     1      -3.237   7.965   5.317  0.00  0.00    +0.005 A 
ATOM     20  C   UNL     1      -5.835   7.282   4.562  0.00  0.00    +0.052 A 
ATOM     21  C   UNL     1      -3.630   6.626   5.300  0.00  0.00    +0.002 A 
ATOM     23  C   UNL     1      -4.929   6.285   4.923  0.00  0.00    +0.019 A 
BRANCH  20  26
ATOM      7  N   UNL     1      -8.245   6.646   3.862  0.00  0.00    -0.191 NA
ATOM     26  C   UNL     1      -7.165   6.931   4.176  0.00  0.00    +0.099 C 
ENDBRANCH  20  26
ENDBRANCH  13  15
ENDBRANCH   2  13
TORSDOF 5
ENDMDL
MODEL 9
REMARK VINA RESULT:      -6.7     14.259     17.659
REMARK  Name = 26744756
REMARK  5 active torsions:
REMARK  status: ('A' for Active; 'I' for Inactive)
REMARK    1  A    between atoms: N_2  and  C_13
REMARK    2  A    between atoms: C_8  and  C_14
REMARK    3  A    between atoms: C_13  and  C_15
REMARK    4  A    between atoms: C_19  and  C_22
REMARK    5  A    between atoms: C_20  and  C_26
REMARK                            x       y       z     vdW  Elec       q    Type
REMARK                         _______ _______ _______ _____ _____    ______ ____
ROOT
ATOM      2  N   UNL     1       8.222   8.689   2.392  0.00  0.00    -0.281 NA
ATOM      3  N   UNL     1       5.309  10.347   0.709  0.00  0.00    -0.347 N 
ATOM      4  N   UNL     1       4.463  10.498   2.773  0.00  0.00    -0.240 NA
ATOM      8  C   UNL     1       8.002   9.400   3.698  0.00  0.00    +0.152 C 
ATOM      9  C   UNL     1       6.479   9.599   4.023  0.00  0.00    +0.086 C 
ATOM     10  C   UNL     1       7.640   9.434   1.238  0.00  0.00    +0.140 C 
ATOM     11  C   UNL     1       6.277   9.902   1.558  0.00  0.00    +0.053 A 
ATOM     12  C   UNL     1       5.739  10.010   2.813  0.00  0.00    +0.065 A 
ATOM     16  C   UNL     1       4.234  10.695   1.489  0.00  0.00    +0.197 A 
ATOM     30  H   UNL     1       5.367  10.414  -0.298  0.00  0.00    +0.167 HD
ENDROOT
BRANCH   8  14
ATOM      1  O   UNL     1       9.646   9.387   5.520  0.00  0.00    -0.336 OA
ATOM      5  N   UNL     1       8.385   7.539   5.420  0.00  0.00    -0.190 NA
ATOM      6  N   UNL     1      10.076   8.565   6.569  0.00  0.00    -0.056 NA
ATOM     14  C   UNL     1       8.649   8.709   4.894  0.00  0.00    +0.245 A 
ATOM     19  C   UNL     1       9.286   7.495   6.443  0.00  0.00    +0.202 A 
BRANCH  19  22
ATOM     22  C   UNL     1       9.370   6.366   7.326  0.00  0.00    +0.022 A 
ATOM     24  C   UNL     1       9.040   6.510   8.673  0.00  0.00    +0.012 A 
ATOM     25  C   UNL     1       9.779   5.127   6.836  0.00  0.00    +0.012 A 
ATOM     27  C   UNL     1       9.121   5.413   9.532  0.00  0.00    +0.001 A 
ATOM     28  C   UNL     1       9.861   4.030   7.694  0.00  0.00    +0.001 A 
ATOM     29  C   UNL     1       9.531   4.174   9.042  0.00  0.00    +0.000 A 
ENDBRANCH  19  22
ENDBRANCH   8  14
BRANCH   2  13
ATOM     13  C   UNL     1       9.647   8.458   2.114  0.00  0.00    +0.120 C 
BRANCH  13  15
ATOM     15  C   UNL     1       9.932   7.010   1.818  0.00  0.00    -0.032 A 
ATOM     17  C   UNL     1       9.887   6.544   0.505  0.00  0.00    +0.023 A 
ATOM     18  C   UNL     1      10.243   6.135   2.859  0.00  0.00    +0.005 A 
ATOM     20  C   UNL     1      10.152   5.202   0.231  0.00  0.00    +0.052 A 
ATOM     21  C   UNL     1      10.510   4.793   2.585  0.00  0.00    +0.002 A 
ATOM     23  C   UNL     1      10.464   4.327   1.272  0.00  0.00    +0.019 A 
BRANCH  20  26
ATOM      7  N   UNL     1      10.069   4.333  -2.207  0.00  0.00    -0.191 NA
ATOM     26  C   UNL     1      10.107   4.723  -1.114  0.00  0.00    +0.099 C 
ENDBRANCH  20  26
ENDBRANCH  13  15
ENDBRANCH   2  13
TORSDOF 5
ENDMDL
MODEL 10
REMARK VINA RESULT:      -6.7     27.148     30.758
REMARK  Name = 26744756
REMARK  5 active torsions:
REMARK  status: ('A' for Active; 'I' for Inactive)
REMARK    1  A    between atoms: N_2  and  C_13
REMARK    2  A    between atoms: C_8  and  C_14
REMARK    3  A    between atoms: C_13  and  C_15
REMARK    4  A    between atoms: C_19  and  C_22
REMARK    5  A    between atoms: C_20  and  C_26
REMARK                            x       y       z     vdW  Elec       q    Type
REMARK                         _______ _______ _______ _____ _____    ______ ____
ROOT
ATOM      2  N   UNL     1      -6.157 -10.696  17.829  0.00  0.00    -0.281 NA
ATOM      3  N   UNL     1      -2.617 -11.286  16.737  0.00  0.00    -0.347 N 
ATOM      4  N   UNL     1      -3.392 -10.847  14.686  0.00  0.00    -0.240 NA
ATOM      8  C   UNL     1      -6.463  -9.770  16.685  0.00  0.00    +0.152 C 
ATOM      9  C   UNL     1      -5.754 -10.208  15.354  0.00  0.00    +0.086 C 
ATOM     10  C   UNL     1      -4.698 -10.759  18.132  0.00  0.00    +0.140 C 
ATOM     11  C   UNL     1      -3.916 -10.904  16.887  0.00  0.00    +0.053 A 
ATOM     12  C   UNL     1      -4.366 -10.635  15.621  0.00  0.00    +0.065 A 
ATOM     16  C   UNL     1      -2.348 -11.236  15.392  0.00  0.00    +0.197 A 
ATOM     30  H   UNL     1      -1.973 -11.551  17.470  0.00  0.00    +0.167 HD
ENDROOT
BRANCH   8  14
ATOM      1  O   UNL     1      -8.596 -10.727  15.940  0.00  0.00    -0.336 OA
ATOM      5  N   UNL     1      -8.720  -8.566  16.515  0.00  0.00    -0.190 NA
ATOM      6  N   UNL     1      -9.930 -10.348  15.747  0.00  0.00    -0.056 NA
ATOM     14  C   UNL     1      -7.953  -9.620  16.394  0.00  0.00    +0.245 A 
ATOM     19  C   UNL     1      -9.923  -9.062  16.107  0.00  0.00    +0.202 A 
BRANCH  19  22
ATOM     22  C   UNL     1     -11.103  -8.245  16.073  0.00  0.00    +0.022 A 
ATOM     24  C   UNL     1     -10.991  -6.869  15.875  0.00  0.00    +0.012 A 
ATOM     25  C   UNL     1     -12.359  -8.827  16.235  0.00  0.00    +0.012 A 
ATOM     27  C   UNL     1     -12.138  -6.074  15.842  0.00  0.00    +0.001 A 
ATOM     28  C   UNL     1     -13.506  -8.032  16.202  0.00  0.00    +0.001 A 
ATOM     29  C   UNL     1     -13.394  -6.656  16.004  0.00  0.00    +0.000 A 
ENDBRANCH  19  22
ENDBRANCH   8  14
BRANCH   2  13
ATOM     13  C   UNL     1      -6.863 -10.315  19.061  0.00  0.00    +0.120 C 
BRANCH  13  15
ATOM     15  C   UNL     1      -7.937 -11.306  19.421  0.00  0.00    -0.032 A 
ATOM     17  C   UNL     1      -9.250 -10.876  19.607  0.00  0.00    +0.023 A 
ATOM     18  C   UNL     1      -7.617 -12.656  19.570  0.00  0.00    +0.005 A 
ATOM     20  C   UNL     1     -10.245 -11.795  19.940  0.00  0.00    +0.052 A 
ATOM     21  C   UNL     1      -8.613 -13.575  19.902  0.00  0.00    +0.002 A 
ATOM     23  C   UNL     1      -9.926 -13.145  20.088  0.00  0.00    +0.019 A 
BRANCH  20  26
ATOM      7  N   UNL     1     -12.685 -10.999  20.282  0.00  0.00    -0.191 NA
ATOM     26  C   UNL     1     -11.591 -11.356  20.129  0.00  0.00    +0.099 C 
ENDBRANCH  20  26
ENDBRANCH  13  15
ENDBRANCH   2  13
TORSDOF 5
ENDMDL
