MODEL 1
REMARK VINA RESULT:      -7.4      0.000      0.000
REMARK  Name = 75536254
REMARK  8 active torsions:
REMARK  status: ('A' for Active; 'I' for Inactive)
REMARK    1  A    between atoms: O_3  and  C_12
REMARK    2  A    between atoms: N_5  and  C_11
REMARK    3  A    between atoms: N_5  and  C_18
REMARK    4  A    between atoms: C_7  and  C_11
REMARK    5  A    between atoms: C_10  and  C_18
REMARK    6  A    between atoms: C_16  and  C_20
REMARK    7  A    between atoms: C_20  and  C_21
REMARK    8  A    between atoms: C_23  and  C_24
REMARK                            x       y       z     vdW  Elec       q    Type
REMARK                         _______ _______ _______ _____ _____    ______ ____
ROOT
ATOM      2  O   UNL     1     -16.053   2.313  24.406  0.00  0.00    -0.369 OA
ATOM     10  C   UNL     1     -16.140   3.399  23.474  0.00  0.00    +0.161 C 
ATOM     12  C   UNL     1     -17.502   3.423  22.770  0.00  0.00    +0.145 C 
ATOM     16  C   UNL     1     -17.086   2.275  25.394  0.00  0.00    +0.125 C 
ATOM     17  C   UNL     1     -18.667   3.329  23.752  0.00  0.00    +0.036 C 
ATOM     19  C   UNL     1     -18.461   2.180  24.734  0.00  0.00    +0.034 C 
ENDROOT
BRANCH  12   3
ATOM      3  O   UNL     1     -17.585   2.301  21.887  0.00  0.00    -0.389 OA
ATOM     31  H   UNL     1     -18.474   2.301  21.494  0.00  0.00    +0.210 HD
ENDBRANCH  12   3
BRANCH  10  18
ATOM     18  C   UNL     1     -15.791   4.726  24.144  0.00  0.00    +0.115 C 
BRANCH  18   5
ATOM      5  N   UNL     1     -14.402   5.082  23.899  0.00  0.00    -0.313 NA
ATOM     30  H   UNL     1     -13.789   4.511  24.481  0.00  0.00    +0.122 HD
BRANCH   5  11
ATOM     11  C   UNL     1     -14.056   4.904  22.495  0.00  0.00    +0.084 C 
BRANCH  11   7
ATOM      7  C   UNL     1     -13.638   6.228  21.858  0.00  0.00    +0.003 C 
ATOM      8  C   UNL     1     -12.213   6.132  21.294  0.00  0.00    +0.005 C 
ATOM      9  C   UNL     1     -14.632   6.642  20.765  0.00  0.00    +0.005 C 
ATOM     13  C   UNL     1     -11.791   7.426  20.605  0.00  0.00    +0.000 C 
ATOM     14  C   UNL     1     -14.205   7.936  20.076  0.00  0.00    +0.000 C 
ATOM     15  C   UNL     1     -12.786   7.840  19.524  0.00  0.00    +0.000 C 
ENDBRANCH  11   7
ENDBRANCH   5  11
ENDBRANCH  18   5
ENDBRANCH  10  18
BRANCH  16  20
ATOM     20  C   UNL     1     -16.826   1.066  26.284  0.00  0.00    +0.090 C 
BRANCH  20  21
ATOM      4  O   UNL     1     -15.623   1.252  29.677  0.00  0.00    -0.354 OA
ATOM      6  N   UNL     1     -16.118   0.550  28.585  0.00  0.00    -0.083 NA
ATOM     21  C   UNL     1     -16.292   1.471  27.632  0.00  0.00    +0.087 A 
ATOM     22  C   UNL     1     -15.928   2.759  28.062  0.00  0.00    +0.076 A 
ATOM     23  C   UNL     1     -15.514   2.566  29.353  0.00  0.00    +0.167 A 
BRANCH  23  24
ATOM      1  F   UNL     1     -13.562   5.882  33.371  0.00  0.00    -0.205 F 
ATOM     24  C   UNL     1     -15.011   3.421  30.388  0.00  0.00    +0.020 A 
ATOM     25  C   UNL     1     -13.866   3.058  31.098  0.00  0.00    +0.014 A 
ATOM     26  C   UNL     1     -15.666   4.616  30.686  0.00  0.00    +0.014 A 
ATOM     27  C   UNL     1     -13.376   3.890  32.105  0.00  0.00    +0.039 A 
ATOM     28  C   UNL     1     -15.177   5.448  31.694  0.00  0.00    +0.039 A 
ATOM     29  C   UNL     1     -14.031   5.084  32.403  0.00  0.00    +0.123 A 
ENDBRANCH  23  24
ENDBRANCH  20  21
ENDBRANCH  16  20
TORSDOF 8
ENDMDL
MODEL 2
REMARK VINA RESULT:      -7.2     27.950     31.425
REMARK  Name = 75536254
REMARK  8 active torsions:
REMARK  status: ('A' for Active; 'I' for Inactive)
REMARK    1  A    between atoms: O_3  and  C_12
REMARK    2  A    between atoms: N_5  and  C_11
REMARK    3  A    between atoms: N_5  and  C_18
REMARK    4  A    between atoms: C_7  and  C_11
REMARK    5  A    between atoms: C_10  and  C_18
REMARK    6  A    between atoms: C_16  and  C_20
REMARK    7  A    between atoms: C_20  and  C_21
REMARK    8  A    between atoms: C_23  and  C_24
REMARK                            x       y       z     vdW  Elec       q    Type
REMARK                         _______ _______ _______ _____ _____    ______ ____
ROOT
ATOM      2  O   UNL     1      13.012   8.929  19.807  0.00  0.00    -0.369 OA
ATOM     10  C   UNL     1      12.206   9.373  20.906  0.00  0.00    +0.161 C 
ATOM     12  C   UNL     1      11.153   8.325  21.286  0.00  0.00    +0.145 C 
ATOM     16  C   UNL     1      13.660   7.669  19.997  0.00  0.00    +0.125 C 
ATOM     17  C   UNL     1      11.753   6.931  21.455  0.00  0.00    +0.036 C 
ATOM     19  C   UNL     1      12.634   6.569  20.263  0.00  0.00    +0.034 C 
ENDROOT
BRANCH  12   3
ATOM      3  O   UNL     1      10.176   8.255  20.244  0.00  0.00    -0.389 OA
ATOM     31  H   UNL     1       9.955   7.317  20.110  0.00  0.00    +0.210 HD
ENDBRANCH  12   3
BRANCH  10  18
ATOM     18  C   UNL     1      13.076   9.800  22.087  0.00  0.00    +0.115 C 
BRANCH  18   5
ATOM      5  N   UNL     1      13.042  11.243  22.261  0.00  0.00    -0.313 NA
ATOM     30  H   UNL     1      12.720  11.690  21.403  0.00  0.00    +0.122 HD
BRANCH   5  11
ATOM     11  C   UNL     1      12.170  11.616  23.369  0.00  0.00    +0.084 C 
BRANCH  11   7
ATOM      7  C   UNL     1      11.527  12.981  23.129  0.00  0.00    +0.003 C 
ATOM      8  C   UNL     1      11.037  13.101  21.679  0.00  0.00    +0.005 C 
ATOM      9  C   UNL     1      10.376  13.218  24.116  0.00  0.00    +0.005 C 
ATOM     13  C   UNL     1      10.342  14.436  21.428  0.00  0.00    +0.000 C 
ATOM     14  C   UNL     1       9.682  14.554  23.860  0.00  0.00    +0.000 C 
ATOM     15  C   UNL     1       9.205  14.675  22.416  0.00  0.00    +0.000 C 
ENDBRANCH  11   7
ENDBRANCH   5  11
ENDBRANCH  18   5
ENDBRANCH  10  18
BRANCH  16  20
ATOM     20  C   UNL     1      14.462   7.371  18.737  0.00  0.00    +0.090 C 
BRANCH  20  21
ATOM      4  O   UNL     1      17.568   5.543  18.832  0.00  0.00    -0.354 OA
ATOM      6  N   UNL     1      16.350   5.868  18.248  0.00  0.00    -0.083 NA
ATOM     21  C   UNL     1      15.809   6.781  19.060  0.00  0.00    +0.087 A 
ATOM     22  C   UNL     1      16.633   7.068  20.163  0.00  0.00    +0.076 A 
ATOM     23  C   UNL     1      17.725   6.265  19.971  0.00  0.00    +0.167 A 
BRANCH  23  24
ATOM      1  F   UNL     1      22.461   5.378  22.754  0.00  0.00    -0.205 F 
ATOM     24  C   UNL     1      18.946   6.037  20.688  0.00  0.00    +0.020 A 
ATOM     25  C   UNL     1      19.862   5.094  20.223  0.00  0.00    +0.014 A 
ATOM     26  C   UNL     1      19.217   6.759  21.851  0.00  0.00    +0.014 A 
ATOM     27  C   UNL     1      21.050   4.871  20.921  0.00  0.00    +0.039 A 
ATOM     28  C   UNL     1      20.404   6.536  22.549  0.00  0.00    +0.039 A 
ATOM     29  C   UNL     1      21.321   5.592  22.084  0.00  0.00    +0.123 A 
ENDBRANCH  23  24
ENDBRANCH  20  21
ENDBRANCH  16  20
TORSDOF 8
ENDMDL
MODEL 3
REMARK VINA RESULT:      -7.1     29.659     33.369
REMARK  Name = 75536254
REMARK  8 active torsions:
REMARK  status: ('A' for Active; 'I' for Inactive)
REMARK    1  A    between atoms: O_3  and  C_12
REMARK    2  A    between atoms: N_5  and  C_11
REMARK    3  A    between atoms: N_5  and  C_18
REMARK    4  A    between atoms: C_7  and  C_11
REMARK    5  A    between atoms: C_10  and  C_18
REMARK    6  A    between atoms: C_16  and  C_20
REMARK    7  A    between atoms: C_20  and  C_21
REMARK    8  A    between atoms: C_23  and  C_24
REMARK                            x       y       z     vdW  Elec       q    Type
REMARK                         _______ _______ _______ _____ _____    ______ ____
ROOT
ATOM      2  O   UNL     1      19.692   7.390  22.211  0.00  0.00    -0.369 OA
ATOM     10  C   UNL     1      20.250   8.595  22.750  0.00  0.00    +0.161 C 
ATOM     12  C   UNL     1      21.761   8.672  22.500  0.00  0.00    +0.145 C 
ATOM     16  C   UNL     1      19.942   7.173  20.821  0.00  0.00    +0.125 C 
ATOM     17  C   UNL     1      22.124   8.395  21.043  0.00  0.00    +0.036 C 
ATOM     19  C   UNL     1      21.444   7.125  20.544  0.00  0.00    +0.034 C 
ENDROOT
BRANCH  12   3
ATOM      3  O   UNL     1      22.412   7.687  23.306  0.00  0.00    -0.389 OA
ATOM     31  H   UNL     1      23.316   7.576  22.963  0.00  0.00    +0.210 HD
ENDBRANCH  12   3
BRANCH  10  18
ATOM     18  C   UNL     1      19.497   9.824  22.243  0.00  0.00    +0.115 C 
BRANCH  18   5
ATOM      5  N   UNL     1      18.069   9.691  22.476  0.00  0.00    -0.313 NA
ATOM     30  H   UNL     1      17.889   9.553  23.470  0.00  0.00    +0.122 HD
BRANCH   5  11
ATOM     11  C   UNL     1      17.349  10.867  22.003  0.00  0.00    +0.084 C 
BRANCH  11   7
ATOM      7  C   UNL     1      15.925  10.511  21.583  0.00  0.00    +0.003 C 
ATOM      8  C   UNL     1      14.957  10.665  22.765  0.00  0.00    +0.005 C 
ATOM      9  C   UNL     1      15.478  11.373  20.395  0.00  0.00    +0.005 C 
ATOM     13  C   UNL     1      13.517  10.366  22.358  0.00  0.00    +0.000 C 
ATOM     14  C   UNL     1      14.036  11.072  19.992  0.00  0.00    +0.000 C 
ATOM     15  C   UNL     1      13.079  11.218  21.171  0.00  0.00    +0.000 C 
ENDBRANCH  11   7
ENDBRANCH   5  11
ENDBRANCH  18   5
ENDBRANCH  10  18
BRANCH  16  20
ATOM     20  C   UNL     1      19.276   5.858  20.435  0.00  0.00    +0.090 C 
BRANCH  20  21
ATOM      4  O   UNL     1      16.202   5.919  18.551  0.00  0.00    -0.354 OA
ATOM      6  N   UNL     1      17.523   5.528  18.738  0.00  0.00    -0.083 NA
ATOM     21  C   UNL     1      17.884   6.073  19.903  0.00  0.00    +0.087 A 
ATOM     22  C   UNL     1      16.842   6.812  20.492  0.00  0.00    +0.076 A 
ATOM     23  C   UNL     1      15.809   6.682  19.603  0.00  0.00    +0.167 A 
BRANCH  23  24
ATOM      1  F   UNL     1      10.569   8.541  19.405  0.00  0.00    -0.205 F 
ATOM     24  C   UNL     1      14.458   7.161  19.552  0.00  0.00    +0.020 A 
ATOM     25  C   UNL     1      13.965   7.735  18.381  0.00  0.00    +0.014 A 
ATOM     26  C   UNL     1      13.637   7.051  20.674  0.00  0.00    +0.014 A 
ATOM     27  C   UNL     1      12.651   8.201  18.330  0.00  0.00    +0.039 A 
ATOM     28  C   UNL     1      12.323   7.518  20.625  0.00  0.00    +0.039 A 
ATOM     29  C   UNL     1      11.830   8.093  19.453  0.00  0.00    +0.123 A 
ENDBRANCH  23  24
ENDBRANCH  20  21
ENDBRANCH  16  20
TORSDOF 8
ENDMDL
MODEL 4
REMARK VINA RESULT:      -7.0     30.964     35.395
REMARK  Name = 75536254
REMARK  8 active torsions:
REMARK  status: ('A' for Active; 'I' for Inactive)
REMARK    1  A    between atoms: O_3  and  C_12
REMARK    2  A    between atoms: N_5  and  C_11
REMARK    3  A    between atoms: N_5  and  C_18
REMARK    4  A    between atoms: C_7  and  C_11
REMARK    5  A    between atoms: C_10  and  C_18
REMARK    6  A    between atoms: C_16  and  C_20
REMARK    7  A    between atoms: C_20  and  C_21
REMARK    8  A    between atoms: C_23  and  C_24
REMARK                            x       y       z     vdW  Elec       q    Type
REMARK                         _______ _______ _______ _____ _____    ______ ____
ROOT
ATOM      2  O   UNL     1      13.105   4.910   2.111  0.00  0.00    -0.369 OA
ATOM     10  C   UNL     1      14.461   5.331   1.915  0.00  0.00    +0.161 C 
ATOM     12  C   UNL     1      15.241   4.325   1.060  0.00  0.00    +0.145 C 
ATOM     16  C   UNL     1      12.369   4.653   0.914  0.00  0.00    +0.125 C 
ATOM     17  C   UNL     1      14.497   3.949  -0.219  0.00  0.00    +0.036 C 
ATOM     19  C   UNL     1      13.051   3.566   0.084  0.00  0.00    +0.034 C 
ENDROOT
BRANCH  12   3
ATOM      3  O   UNL     1      15.435   3.128   1.819  0.00  0.00    -0.389 OA
ATOM     31  H   UNL     1      15.801   3.384   2.684  0.00  0.00    +0.210 HD
ENDBRANCH  12   3
BRANCH  10  18
ATOM     18  C   UNL     1      14.520   6.754   1.364  0.00  0.00    +0.115 C 
BRANCH  18   5
ATOM      5  N   UNL     1      14.720   7.718   2.435  0.00  0.00    -0.313 NA
ATOM     30  H   UNL     1      13.822   8.091   2.740  0.00  0.00    +0.122 HD
BRANCH   5  11
ATOM     11  C   UNL     1      15.411   7.108   3.564  0.00  0.00    +0.084 C 
BRANCH  11   7
ATOM      7  C   UNL     1      14.784   7.535   4.890  0.00  0.00    +0.003 C 
ATOM      8  C   UNL     1      15.148   8.990   5.218  0.00  0.00    +0.005 C 
ATOM      9  C   UNL     1      13.261   7.348   4.854  0.00  0.00    +0.005 C 
ATOM     13  C   UNL     1      14.489   9.458   6.513  0.00  0.00    +0.000 C 
ATOM     14  C   UNL     1      12.605   7.820   6.150  0.00  0.00    +0.000 C 
ATOM     15  C   UNL     1      12.977   9.263   6.478  0.00  0.00    +0.000 C 
ENDBRANCH  11   7
ENDBRANCH   5  11
ENDBRANCH  18   5
ENDBRANCH  10  18
BRANCH  16  20
ATOM     20  C   UNL     1      10.965   4.223   1.321  0.00  0.00    +0.090 C 
BRANCH  20  21
ATOM      4  O   UNL     1       9.903   6.323   4.052  0.00  0.00    -0.354 OA
ATOM      6  N   UNL     1      10.210   6.107   2.714  0.00  0.00    -0.083 NA
ATOM     21  C   UNL     1      10.561   4.820   2.643  0.00  0.00    +0.087 A 
ATOM     22  C   UNL     1      10.496   4.179   3.893  0.00  0.00    +0.076 A 
ATOM     23  C   UNL     1      10.077   5.168   4.743  0.00  0.00    +0.167 A 
BRANCH  23  24
ATOM      1  F   UNL     1       8.983   5.432  10.192  0.00  0.00    -0.205 F 
ATOM     24  C   UNL     1       9.795   5.235   6.148  0.00  0.00    +0.020 A 
ATOM     25  C   UNL     1       9.321   6.422   6.707  0.00  0.00    +0.014 A 
ATOM     26  C   UNL     1       9.993   4.115   6.954  0.00  0.00    +0.014 A 
ATOM     27  C   UNL     1       9.046   6.489   8.073  0.00  0.00    +0.039 A 
ATOM     28  C   UNL     1       9.720   4.181   8.321  0.00  0.00    +0.039 A 
ATOM     29  C   UNL     1       9.245   5.368   8.880  0.00  0.00    +0.123 A 
ENDBRANCH  23  24
ENDBRANCH  20  21
ENDBRANCH  16  20
TORSDOF 8
ENDMDL
MODEL 5
REMARK VINA RESULT:      -6.9     21.170     23.520
REMARK  Name = 75536254
REMARK  8 active torsions:
REMARK  status: ('A' for Active; 'I' for Inactive)
REMARK    1  A    between atoms: O_3  and  C_12
REMARK    2  A    between atoms: N_5  and  C_11
REMARK    3  A    between atoms: N_5  and  C_18
REMARK    4  A    between atoms: C_7  and  C_11
REMARK    5  A    between atoms: C_10  and  C_18
REMARK    6  A    between atoms: C_16  and  C_20
REMARK    7  A    between atoms: C_20  and  C_21
REMARK    8  A    between atoms: C_23  and  C_24
REMARK                            x       y       z     vdW  Elec       q    Type
REMARK                         _______ _______ _______ _____ _____    ______ ____
ROOT
ATOM      2  O   UNL     1      -4.090 -12.276  15.915  0.00  0.00    -0.369 OA
ATOM     10  C   UNL     1      -5.334 -12.663  16.511  0.00  0.00    +0.161 C 
ATOM     12  C   UNL     1      -5.182 -12.899  18.019  0.00  0.00    +0.145 C 
ATOM     16  C   UNL     1      -3.464 -11.133  16.501  0.00  0.00    +0.125 C 
ATOM     17  C   UNL     1      -4.469 -11.745  18.719  0.00  0.00    +0.036 C 
ATOM     19  C   UNL     1      -3.186 -11.371  17.984  0.00  0.00    +0.034 C 
ENDROOT
BRANCH  12   3
ATOM      3  O   UNL     1      -4.403 -14.081  18.224  0.00  0.00    -0.389 OA
ATOM     31  H   UNL     1      -4.603 -14.413  19.116  0.00  0.00    +0.210 HD
ENDBRANCH  12   3
BRANCH  10  18
ATOM     18  C   UNL     1      -6.440 -11.666  16.172  0.00  0.00    +0.115 C 
BRANCH  18   5
ATOM      5  N   UNL     1      -6.482 -11.404  14.742  0.00  0.00    -0.313 NA
ATOM     30  H   UNL     1      -7.077 -12.090  14.280  0.00  0.00    +0.122 HD
BRANCH   5  11
ATOM     11  C   UNL     1      -6.977 -10.060  14.471  0.00  0.00    +0.084 C 
BRANCH  11   7
ATOM      7  C   UNL     1      -7.648  -9.985  13.101  0.00  0.00    +0.003 C 
ATOM      8  C   UNL     1      -6.800  -9.153  12.128  0.00  0.00    +0.005 C 
ATOM      9  C   UNL     1      -7.898 -11.392  12.542  0.00  0.00    +0.005 C 
ATOM     13  C   UNL     1      -7.423  -9.107  10.735  0.00  0.00    +0.000 C 
ATOM     14  C   UNL     1      -8.519 -11.342  11.148  0.00  0.00    +0.000 C 
ATOM     15  C   UNL     1      -7.679 -10.507  10.186  0.00  0.00    +0.000 C 
ENDBRANCH  11   7
ENDBRANCH   5  11
ENDBRANCH  18   5
ENDBRANCH  10  18
BRANCH  16  20
ATOM     20  C   UNL     1      -2.169 -10.878  15.740  0.00  0.00    +0.090 C 
BRANCH  20  21
ATOM      4  O   UNL     1      -2.051 -11.819  12.261  0.00  0.00    -0.354 OA
ATOM      6  N   UNL     1      -1.637 -11.938  13.583  0.00  0.00    -0.083 NA
ATOM     21  C   UNL     1      -2.355 -11.034  14.254  0.00  0.00    +0.087 A 
ATOM     22  C   UNL     1      -3.230 -10.319  13.417  0.00  0.00    +0.076 A 
ATOM     23  C   UNL     1      -3.000 -10.851  12.176  0.00  0.00    +0.167 A 
BRANCH  23  24
ATOM      1  F   UNL     1      -5.053  -9.928   7.088  0.00  0.00    -0.205 F 
ATOM     24  C   UNL     1      -3.529 -10.614  10.864  0.00  0.00    +0.020 A 
ATOM     25  C   UNL     1      -3.561  -9.318  10.350  0.00  0.00    +0.014 A 
ATOM     26  C   UNL     1      -4.010 -11.679  10.103  0.00  0.00    +0.014 A 
ATOM     27  C   UNL     1      -4.075  -9.086   9.074  0.00  0.00    +0.039 A 
ATOM     28  C   UNL     1      -4.526 -11.447   8.827  0.00  0.00    +0.039 A 
ATOM     29  C   UNL     1      -4.558 -10.150   8.312  0.00  0.00    +0.123 A 
ENDBRANCH  23  24
ENDBRANCH  20  21
ENDBRANCH  16  20
TORSDOF 8
ENDMDL
MODEL 6
REMARK VINA RESULT:      -6.8     18.763     21.118
REMARK  Name = 75536254
REMARK  8 active torsions:
REMARK  status: ('A' for Active; 'I' for Inactive)
REMARK    1  A    between atoms: O_3  and  C_12
REMARK    2  A    between atoms: N_5  and  C_11
REMARK    3  A    between atoms: N_5  and  C_18
REMARK    4  A    between atoms: C_7  and  C_11
REMARK    5  A    between atoms: C_10  and  C_18
REMARK    6  A    between atoms: C_16  and  C_20
REMARK    7  A    between atoms: C_20  and  C_21
REMARK    8  A    between atoms: C_23  and  C_24
REMARK                            x       y       z     vdW  Elec       q    Type
REMARK                         _______ _______ _______ _____ _____    ______ ____
ROOT
ATOM      2  O   UNL     1      -6.748 -11.763  17.331  0.00  0.00    -0.369 OA
ATOM     10  C   UNL     1      -7.713 -10.913  17.964  0.00  0.00    +0.161 C 
ATOM     12  C   UNL     1      -7.497 -10.854  19.481  0.00  0.00    +0.145 C 
ATOM     16  C   UNL     1      -5.382 -11.432  17.591  0.00  0.00    +0.125 C 
ATOM     17  C   UNL     1      -6.046 -10.560  19.851  0.00  0.00    +0.036 C 
ATOM     19  C   UNL     1      -5.093 -11.477  19.091  0.00  0.00    +0.034 C 
ENDROOT
BRANCH  12   3
ATOM      3  O   UNL     1      -7.842 -12.122  20.045  0.00  0.00    -0.389 OA
ATOM     31  H   UNL     1      -7.622 -12.093  20.992  0.00  0.00    +0.210 HD
ENDBRANCH  12   3
BRANCH  10  18
ATOM     18  C   UNL     1      -7.741  -9.533  17.311  0.00  0.00    +0.115 C 
BRANCH  18   5
ATOM      5  N   UNL     1      -8.880  -8.759  17.778  0.00  0.00    -0.313 NA
ATOM     30  H   UNL     1      -8.832  -7.811  17.407  0.00  0.00    +0.122 HD
BRANCH   5  11
ATOM     11  C   UNL     1     -10.135  -9.383  17.378  0.00  0.00    +0.084 C 
BRANCH  11   7
ATOM      7  C   UNL     1     -10.903  -8.499  16.398  0.00  0.00    +0.003 C 
ATOM      8  C   UNL     1     -12.404  -8.509  16.721  0.00  0.00    +0.005 C 
ATOM      9  C   UNL     1     -10.350  -7.068  16.411  0.00  0.00    +0.005 C 
ATOM     13  C   UNL     1     -13.187  -7.590  15.787  0.00  0.00    +0.000 C 
ATOM     14  C   UNL     1     -11.138  -6.151  15.477  0.00  0.00    +0.000 C 
ATOM     15  C   UNL     1     -12.630  -6.170  15.795  0.00  0.00    +0.000 C 
ENDBRANCH  11   7
ENDBRANCH   5  11
ENDBRANCH  18   5
ENDBRANCH  10  18
BRANCH  16  20
ATOM     20  C   UNL     1      -4.515 -12.435  16.841  0.00  0.00    +0.090 C 
BRANCH  20  21
ATOM      4  O   UNL     1      -2.602 -11.361  13.981  0.00  0.00    -0.354 OA
ATOM      6  N   UNL     1      -2.718 -11.970  15.225  0.00  0.00    -0.083 NA
ATOM     21  C   UNL     1      -4.013 -11.873  15.538  0.00  0.00    +0.087 A 
ATOM     22  C   UNL     1      -4.756 -11.217  14.540  0.00  0.00    +0.076 A 
ATOM     23  C   UNL     1      -3.822 -10.917  13.585  0.00  0.00    +0.167 A 
BRANCH  23  24
ATOM      1  F   UNL     1      -3.971  -8.379   8.636  0.00  0.00    -0.205 F 
ATOM     24  C   UNL     1      -3.861 -10.264  12.309  0.00  0.00    +0.020 A 
ATOM     25  C   UNL     1      -2.685 -10.087  11.579  0.00  0.00    +0.014 A 
ATOM     26  C   UNL     1      -5.074  -9.804  11.797  0.00  0.00    +0.014 A 
ATOM     27  C   UNL     1      -2.722  -9.451  10.338  0.00  0.00    +0.039 A 
ATOM     28  C   UNL     1      -5.112  -9.167  10.556  0.00  0.00    +0.039 A 
ATOM     29  C   UNL     1      -3.935  -8.991   9.827  0.00  0.00    +0.123 A 
ENDBRANCH  23  24
ENDBRANCH  20  21
ENDBRANCH  16  20
TORSDOF 8
ENDMDL
MODEL 7
REMARK VINA RESULT:      -6.8     21.796     24.187
REMARK  Name = 75536254
REMARK  8 active torsions:
REMARK  status: ('A' for Active; 'I' for Inactive)
REMARK    1  A    between atoms: O_3  and  C_12
REMARK    2  A    between atoms: N_5  and  C_11
REMARK    3  A    between atoms: N_5  and  C_18
REMARK    4  A    between atoms: C_7  and  C_11
REMARK    5  A    between atoms: C_10  and  C_18
REMARK    6  A    between atoms: C_16  and  C_20
REMARK    7  A    between atoms: C_20  and  C_21
REMARK    8  A    between atoms: C_23  and  C_24
REMARK                            x       y       z     vdW  Elec       q    Type
REMARK                         _______ _______ _______ _____ _____    ______ ____
ROOT
ATOM      2  O   UNL     1      -3.864 -11.833  17.579  0.00  0.00    -0.369 OA
ATOM     10  C   UNL     1      -5.044 -12.369  18.191  0.00  0.00    +0.161 C 
ATOM     12  C   UNL     1      -6.128 -11.295  18.350  0.00  0.00    +0.145 C 
ATOM     16  C   UNL     1      -4.069 -11.192  16.318  0.00  0.00    +0.125 C 
ATOM     17  C   UNL     1      -6.373 -10.520  17.058  0.00  0.00    +0.036 C 
ATOM     19  C   UNL     1      -5.058 -10.036  16.455  0.00  0.00    +0.034 C 
ENDROOT
BRANCH  12   3
ATOM      3  O   UNL     1      -5.707 -10.359  19.346  0.00  0.00    -0.389 OA
ATOM     31  H   UNL     1      -4.851  -9.993  19.063  0.00  0.00    +0.210 HD
ENDBRANCH  12   3
BRANCH  10  18
ATOM     18  C   UNL     1      -5.535 -13.607  17.444  0.00  0.00    +0.115 C 
BRANCH  18   5
ATOM      5  N   UNL     1      -4.522 -14.650  17.444  0.00  0.00    -0.313 NA
ATOM     30  H   UNL     1      -4.655 -15.263  18.248  0.00  0.00    +0.122 HD
BRANCH   5  11
ATOM     11  C   UNL     1      -4.574 -15.430  16.214  0.00  0.00    +0.084 C 
BRANCH  11   7
ATOM      7  C   UNL     1      -4.160 -14.588  15.009  0.00  0.00    +0.003 C 
ATOM      8  C   UNL     1      -2.691 -14.849  14.646  0.00  0.00    +0.005 C 
ATOM      9  C   UNL     1      -5.077 -14.867  13.811  0.00  0.00    +0.005 C 
ATOM     13  C   UNL     1      -2.267 -14.058  13.411  0.00  0.00    +0.000 C 
ATOM     14  C   UNL     1      -4.648 -14.076  12.577  0.00  0.00    +0.000 C 
ATOM     15  C   UNL     1      -3.186 -14.330  12.224  0.00  0.00    +0.000 C 
ENDBRANCH  11   7
ENDBRANCH   5  11
ENDBRANCH  18   5
ENDBRANCH  10  18
BRANCH  16  20
ATOM     20  C   UNL     1      -2.715 -10.694  15.830  0.00  0.00    +0.090 C 
BRANCH  20  21
ATOM      4  O   UNL     1      -1.851 -10.229  12.361  0.00  0.00    -0.354 OA
ATOM      6  N   UNL     1      -1.524 -10.319  13.708  0.00  0.00    -0.083 NA
ATOM     21  C   UNL     1      -2.684 -10.540  14.332  0.00  0.00    +0.087 A 
ATOM     22  C   UNL     1      -3.768 -10.599  13.439  0.00  0.00    +0.076 A 
ATOM     23  C   UNL     1      -3.190 -10.398  12.214  0.00  0.00    +0.167 A 
BRANCH  23  24
ATOM      1  F   UNL     1      -5.089 -10.146   6.990  0.00  0.00    -0.205 F 
ATOM     24  C   UNL     1      -3.681 -10.333  10.867  0.00  0.00    +0.020 A 
ATOM     25  C   UNL     1      -3.874 -11.506  10.139  0.00  0.00    +0.014 A 
ATOM     26  C   UNL     1      -3.964  -9.096  10.287  0.00  0.00    +0.014 A 
ATOM     27  C   UNL     1      -4.351 -11.444   8.829  0.00  0.00    +0.039 A 
ATOM     28  C   UNL     1      -4.439  -9.033   8.977  0.00  0.00    +0.039 A 
ATOM     29  C   UNL     1      -4.633 -10.207   8.248  0.00  0.00    +0.123 A 
ENDBRANCH  23  24
ENDBRANCH  20  21
ENDBRANCH  16  20
TORSDOF 8
ENDMDL
MODEL 8
REMARK VINA RESULT:      -6.8     19.670     21.631
REMARK  Name = 75536254
REMARK  8 active torsions:
REMARK  status: ('A' for Active; 'I' for Inactive)
REMARK    1  A    between atoms: O_3  and  C_12
REMARK    2  A    between atoms: N_5  and  C_11
REMARK    3  A    between atoms: N_5  and  C_18
REMARK    4  A    between atoms: C_7  and  C_11
REMARK    5  A    between atoms: C_10  and  C_18
REMARK    6  A    between atoms: C_16  and  C_20
REMARK    7  A    between atoms: C_20  and  C_21
REMARK    8  A    between atoms: C_23  and  C_24
REMARK                            x       y       z     vdW  Elec       q    Type
REMARK                         _______ _______ _______ _____ _____    ______ ____
ROOT
ATOM      2  O   UNL     1      -4.705  -9.132  11.540  0.00  0.00    -0.369 OA
ATOM     10  C   UNL     1      -6.000  -8.874  10.984  0.00  0.00    +0.161 C 
ATOM     12  C   UNL     1      -6.014  -9.107   9.468  0.00  0.00    +0.145 C 
ATOM     16  C   UNL     1      -4.173 -10.430  11.267  0.00  0.00    +0.125 C 
ATOM     17  C   UNL     1      -5.408 -10.454   9.081  0.00  0.00    +0.036 C 
ATOM     19  C   UNL     1      -4.059 -10.660   9.761  0.00  0.00    +0.034 C 
ENDROOT
BRANCH  12   3
ATOM      3  O   UNL     1      -5.239  -8.083   8.838  0.00  0.00    -0.389 OA
ATOM     31  H   UNL     1      -4.345  -8.439   8.692  0.00  0.00    +0.210 HD
ENDBRANCH  12   3
BRANCH  10  18
ATOM     18  C   UNL     1      -7.081  -9.664  11.719  0.00  0.00    +0.115 C 
BRANCH  18   5
ATOM      5  N   UNL     1      -7.128  -9.297  13.125  0.00  0.00    -0.313 NA
ATOM     30  H   UNL     1      -6.927  -8.303  13.232  0.00  0.00    +0.122 HD
BRANCH   5  11
ATOM     11  C   UNL     1      -8.431  -9.603  13.702  0.00  0.00    +0.084 C 
BRANCH  11   7
ATOM      7  C   UNL     1      -8.285 -10.268  15.069  0.00  0.00    +0.003 C 
ATOM      8  C   UNL     1      -9.498  -9.952  15.957  0.00  0.00    +0.005 C 
ATOM      9  C   UNL     1      -8.099 -11.784  14.918  0.00  0.00    +0.005 C 
ATOM     13  C   UNL     1      -9.402 -10.650  17.311  0.00  0.00    +0.000 C 
ATOM     14  C   UNL     1      -8.006 -12.479  16.274  0.00  0.00    +0.000 C 
ATOM     15  C   UNL     1      -9.207 -12.156  17.157  0.00  0.00    +0.000 C 
ENDBRANCH  11   7
ENDBRANCH   5  11
ENDBRANCH  18   5
ENDBRANCH  10  18
BRANCH  16  20
ATOM     20  C   UNL     1      -2.806 -10.516  11.935  0.00  0.00    +0.090 C 
BRANCH  20  21
ATOM      4  O   UNL     1      -2.292 -10.454  15.502  0.00  0.00    -0.354 OA
ATOM      6  N   UNL     1      -1.841 -10.345  14.193  0.00  0.00    -0.083 NA
ATOM     21  C   UNL     1      -2.920 -10.558  13.435  0.00  0.00    +0.087 A 
ATOM     22  C   UNL     1      -4.071 -10.805  14.204  0.00  0.00    +0.076 A 
ATOM     23  C   UNL     1      -3.622 -10.728  15.495  0.00  0.00    +0.167 A 
BRANCH  23  24
ATOM      1  F   UNL     1      -5.996 -11.267  20.499  0.00  0.00    -0.205 F 
ATOM     24  C   UNL     1      -4.234 -10.868  16.785  0.00  0.00    +0.020 A 
ATOM     25  C   UNL     1      -5.375 -10.129  17.099  0.00  0.00    +0.014 A 
ATOM     26  C   UNL     1      -3.689 -11.743  17.725  0.00  0.00    +0.014 A 
ATOM     27  C   UNL     1      -5.971 -10.264  18.353  0.00  0.00    +0.039 A 
ATOM     28  C   UNL     1      -4.284 -11.877  18.980  0.00  0.00    +0.039 A 
ATOM     29  C   UNL     1      -5.425 -11.138  19.294  0.00  0.00    +0.123 A 
ENDBRANCH  23  24
ENDBRANCH  20  21
ENDBRANCH  16  20
TORSDOF 8
ENDMDL
MODEL 9
REMARK VINA RESULT:      -6.7     20.085     22.347
REMARK  Name = 75536254
REMARK  8 active torsions:
REMARK  status: ('A' for Active; 'I' for Inactive)
REMARK    1  A    between atoms: O_3  and  C_12
REMARK    2  A    between atoms: N_5  and  C_11
REMARK    3  A    between atoms: N_5  and  C_18
REMARK    4  A    between atoms: C_7  and  C_11
REMARK    5  A    between atoms: C_10  and  C_18
REMARK    6  A    between atoms: C_16  and  C_20
REMARK    7  A    between atoms: C_20  and  C_21
REMARK    8  A    between atoms: C_23  and  C_24
REMARK                            x       y       z     vdW  Elec       q    Type
REMARK                         _______ _______ _______ _____ _____    ______ ____
ROOT
ATOM      2  O   UNL     1      -6.677 -10.462  17.124  0.00  0.00    -0.369 OA
ATOM     10  C   UNL     1      -5.538 -10.425  17.994  0.00  0.00    +0.161 C 
ATOM     12  C   UNL     1      -5.878 -10.975  19.384  0.00  0.00    +0.145 C 
ATOM     16  C   UNL     1      -7.289 -11.745  16.977  0.00  0.00    +0.125 C 
ATOM     17  C   UNL     1      -6.589 -12.324  19.318  0.00  0.00    +0.036 C 
ATOM     19  C   UNL     1      -7.752 -12.281  18.331  0.00  0.00    +0.034 C 
ENDROOT
BRANCH  12   3
ATOM      3  O   UNL     1      -6.752 -10.054  20.043  0.00  0.00    -0.389 OA
ATOM     31  H   UNL     1      -7.335 -10.568  20.628  0.00  0.00    +0.210 HD
ENDBRANCH  12   3
BRANCH  10  18
ATOM     18  C   UNL     1      -4.337 -11.119  17.355  0.00  0.00    +0.115 C 
BRANCH  18   5
ATOM      5  N   UNL     1      -3.899 -10.409  16.165  0.00  0.00    -0.313 NA
ATOM     30  H   UNL     1      -4.050  -9.407  16.282  0.00  0.00    +0.122 HD
BRANCH   5  11
ATOM     11  C   UNL     1      -2.490 -10.666  15.891  0.00  0.00    +0.084 C 
BRANCH  11   7
ATOM      7  C   UNL     1      -2.302 -11.288  14.508  0.00  0.00    +0.003 C 
ATOM      8  C   UNL     1      -3.547 -12.088  14.100  0.00  0.00    +0.005 C 
ATOM      9  C   UNL     1      -1.981 -10.208  13.467  0.00  0.00    +0.005 C 
ATOM     13  C   UNL     1      -3.405 -12.676  12.699  0.00  0.00    +0.000 C 
ATOM     14  C   UNL     1      -1.842 -10.799  12.066  0.00  0.00    +0.000 C 
ATOM     15  C   UNL     1      -3.077 -11.601  11.667  0.00  0.00    +0.000 C 
ENDBRANCH  11   7
ENDBRANCH   5  11
ENDBRANCH  18   5
ENDBRANCH  10  18
BRANCH  16  20
ATOM     20  C   UNL     1      -8.468 -11.585  16.025  0.00  0.00    +0.090 C 
BRANCH  20  21
ATOM      4  O   UNL     1      -8.087  -9.345  13.226  0.00  0.00    -0.354 OA
ATOM      6  N   UNL     1      -8.684  -9.731  14.420  0.00  0.00    -0.083 NA
ATOM     21  C   UNL     1      -8.072 -10.867  14.762  0.00  0.00    +0.087 A 
ATOM     22  C   UNL     1      -7.088 -11.244  13.831  0.00  0.00    +0.076 A 
ATOM     23  C   UNL     1      -7.138 -10.254  12.887  0.00  0.00    +0.167 A 
BRANCH  23  24
ATOM      1  F   UNL     1      -4.384  -9.217   8.164  0.00  0.00    -0.205 F 
ATOM     24  C   UNL     1      -6.428  -9.986  11.669  0.00  0.00    +0.020 A 
ATOM     25  C   UNL     1      -6.533 -10.867  10.593  0.00  0.00    +0.014 A 
ATOM     26  C   UNL     1      -5.634  -8.845  11.562  0.00  0.00    +0.014 A 
ATOM     27  C   UNL     1      -5.843 -10.608   9.408  0.00  0.00    +0.039 A 
ATOM     28  C   UNL     1      -4.942  -8.585  10.378  0.00  0.00    +0.039 A 
ATOM     29  C   UNL     1      -5.048  -9.467   9.301  0.00  0.00    +0.123 A 
ENDBRANCH  23  24
ENDBRANCH  20  21
ENDBRANCH  16  20
TORSDOF 8
ENDMDL
MODEL 10
REMARK VINA RESULT:      -6.6      2.472      3.857
REMARK  Name = 75536254
REMARK  8 active torsions:
REMARK  status: ('A' for Active; 'I' for Inactive)
REMARK    1  A    between atoms: O_3  and  C_12
REMARK    2  A    between atoms: N_5  and  C_11
REMARK    3  A    between atoms: N_5  and  C_18
REMARK    4  A    between atoms: C_7  and  C_11
REMARK    5  A    between atoms: C_10  and  C_18
REMARK    6  A    between atoms: C_16  and  C_20
REMARK    7  A    between atoms: C_20  and  C_21
REMARK    8  A    between atoms: C_23  and  C_24
REMARK                            x       y       z     vdW  Elec       q    Type
REMARK                         _______ _______ _______ _____ _____    ______ ____
ROOT
ATOM      2  O   UNL     1     -15.631   5.931  23.781  0.00  0.00    -0.369 OA
ATOM     10  C   UNL     1     -14.590   6.331  22.881  0.00  0.00    +0.161 C 
ATOM     12  C   UNL     1     -14.576   5.460  21.619  0.00  0.00    +0.145 C 
ATOM     16  C   UNL     1     -16.945   5.909  23.220  0.00  0.00    +0.125 C 
ATOM     17  C   UNL     1     -15.958   5.335  20.984  0.00  0.00    +0.036 C 
ATOM     19  C   UNL     1     -17.006   4.958  22.026  0.00  0.00    +0.034 C 
ENDROOT
BRANCH  12   3
ATOM      3  O   UNL     1     -14.138   4.145  21.972  0.00  0.00    -0.389 OA
ATOM     31  H   UNL     1     -13.270   4.003  21.558  0.00  0.00    +0.210 HD
ENDBRANCH  12   3
BRANCH  10  18
ATOM     18  C   UNL     1     -14.674   7.825  22.574  0.00  0.00    +0.115 C 
BRANCH  18   5
ATOM      5  N   UNL     1     -14.004   8.137  21.322  0.00  0.00    -0.313 NA
ATOM     30  H   UNL     1     -14.632   8.658  20.711  0.00  0.00    +0.122 HD
BRANCH   5  11
ATOM     11  C   UNL     1     -12.790   8.908  21.556  0.00  0.00    +0.084 C 
BRANCH  11   7
ATOM      7  C   UNL     1     -11.711   8.564  20.530  0.00  0.00    +0.003 C 
ATOM      8  C   UNL     1     -12.254   7.581  19.483  0.00  0.00    +0.005 C 
ATOM      9  C   UNL     1     -11.175   9.836  19.860  0.00  0.00    +0.005 C 
ATOM     13  C   UNL     1     -11.211   7.262  18.416  0.00  0.00    +0.000 C 
ATOM     14  C   UNL     1     -10.134   9.513  18.791  0.00  0.00    +0.000 C 
ATOM     15  C   UNL     1     -10.673   8.529  17.757  0.00  0.00    +0.000 C 
ENDBRANCH  11   7
ENDBRANCH   5  11
ENDBRANCH  18   5
ENDBRANCH  10  18
BRANCH  16  20
ATOM     20  C   UNL     1     -17.905   5.465  24.317  0.00  0.00    +0.090 C 
BRANCH  20  21
ATOM      4  O   UNL     1     -16.424   2.526  25.789  0.00  0.00    -0.354 OA
ATOM      6  N   UNL     1     -16.958   3.228  24.715  0.00  0.00    -0.083 NA
ATOM     21  C   UNL     1     -17.287   4.423  25.211  0.00  0.00    +0.087 A 
ATOM     22  C   UNL     1     -16.987   4.533  26.581  0.00  0.00    +0.076 A 
ATOM     23  C   UNL     1     -16.446   3.315  26.894  0.00  0.00    +0.167 A 
BRANCH  23  24
ATOM      1  F   UNL     1     -14.405   1.020  31.533  0.00  0.00    -0.205 F 
ATOM     24  C   UNL     1     -15.921   2.723  28.090  0.00  0.00    +0.020 A 
ATOM     25  C   UNL     1     -15.258   3.515  29.027  0.00  0.00    +0.014 A 
ATOM     26  C   UNL     1     -16.073   1.355  28.316  0.00  0.00    +0.014 A 
ATOM     27  C   UNL     1     -14.746   2.941  30.190  0.00  0.00    +0.039 A 
ATOM     28  C   UNL     1     -15.560   0.779  29.479  0.00  0.00    +0.039 A 
ATOM     29  C   UNL     1     -14.897   1.572  30.416  0.00  0.00    +0.123 A 
ENDBRANCH  23  24
ENDBRANCH  20  21
ENDBRANCH  16  20
TORSDOF 8
ENDMDL
