MODEL 1
REMARK VINA RESULT:      -6.9      0.000      0.000
REMARK  Name = 40777636
REMARK  9 active torsions:
REMARK  status: ('A' for Active; 'I' for Inactive)
REMARK    1  A    between atoms: O_2  and  C_29
REMARK    2  A    between atoms: O_2  and  C_30
REMARK    3  A    between atoms: N_3  and  C_8
REMARK    4  A    between atoms: N_4  and  C_15
REMARK    5  A    between atoms: C_6  and  C_9
REMARK    6  A    between atoms: C_12  and  C_14
REMARK    7  A    between atoms: C_13  and  C_16
REMARK    8  A    between atoms: C_15  and  C_18
REMARK    9  A    between atoms: C_17  and  C_19
REMARK                            x       y       z     vdW  Elec       q    Type
REMARK                         _______ _______ _______ _____ _____    ______ ____
ROOT
ATOM      6  C   UNL     1      16.685   7.642  21.306  0.00  0.00    +0.047 C 
ATOM      7  C   UNL     1      16.174   8.656  20.262  0.00  0.00    +0.039 C 
ATOM      8  C   UNL     1      14.663   8.419  20.151  0.00  0.00    +0.097 C 
ATOM     10  C   UNL     1      15.608   6.596  21.292  0.00  0.00    -0.021 C 
ATOM     11  C   UNL     1      14.507   7.026  20.665  0.00  0.00    -0.009 C 
ENDROOT
BRANCH   6   9
ATOM      4  N   UNL     1      20.219   6.725  21.021  0.00  0.00    -0.264 N 
ATOM      5  N   UNL     1      19.767   5.953  20.019  0.00  0.00    -0.176 NA
ATOM      9  C   UNL     1      18.072   7.122  21.007  0.00  0.00    +0.003 A 
ATOM     12  C   UNL     1      19.244   7.445  21.646  0.00  0.00    +0.041 A 
ATOM     13  C   UNL     1      18.454   6.199  20.015  0.00  0.00    +0.064 A 
ATOM     14  C   UNL     1      19.520   8.357  22.771  0.00  0.00    +0.065 C 
ATOM     16  C   UNL     1      17.592   5.521  19.031  0.00  0.00    +0.068 C 
BRANCH   4  15
ATOM     15  C   UNL     1      21.630   6.721  21.332  0.00  0.00    +0.178 C 
BRANCH  15  18
ATOM     18  C   UNL     1      22.211   5.335  21.459  0.00  0.00    -0.026 A 
ATOM     20  C   UNL     1      21.771   4.485  22.474  0.00  0.00    +0.005 A 
ATOM     21  C   UNL     1      23.188   4.902  20.563  0.00  0.00    +0.005 A 
ATOM     24  C   UNL     1      22.307   3.203  22.592  0.00  0.00    +0.000 A 
ATOM     25  C   UNL     1      23.725   3.620  20.681  0.00  0.00    +0.000 A 
ATOM     26  C   UNL     1      23.285   2.770  21.695  0.00  0.00    +0.000 A 
ENDBRANCH  15  18
ENDBRANCH   4  15
ENDBRANCH   6   9
BRANCH   8   3
ATOM      1  O   UNL     1      11.912   9.157  19.786  0.00  0.00    -0.270 OA
ATOM      3  N   UNL     1      13.898   9.316  20.974  0.00  0.00    -0.305 N 
ATOM     17  C   UNL     1      12.564   9.615  20.721  0.00  0.00    +0.245 C 
ATOM     31  H   UNL     1      14.394   9.808  21.710  0.00  0.00    +0.150 HD
BRANCH  17  19
ATOM     19  C   UNL     1      11.922  10.580  21.649  0.00  0.00    +0.037 A 
ATOM     22  C   UNL     1      11.441  10.147  22.884  0.00  0.00    +0.016 A 
ATOM     23  C   UNL     1      11.798  11.921  21.284  0.00  0.00    +0.016 A 
ATOM     27  C   UNL     1      10.836  11.054  23.754  0.00  0.00    +0.046 A 
ATOM     28  C   UNL     1      11.194  12.828  22.154  0.00  0.00    +0.046 A 
ATOM     29  C   UNL     1      10.713  12.394  23.390  0.00  0.00    +0.120 A 
BRANCH  29   2
ATOM      2  O   UNL     1      10.123  13.279  24.240  0.00  0.00    -0.495 OA
ATOM     30  C   UNL     1      10.647  13.356  25.564  0.00  0.00    +0.277 C 
ENDBRANCH  29   2
ENDBRANCH  17  19
ENDBRANCH   8   3
TORSDOF 6
ENDMDL
MODEL 2
REMARK VINA RESULT:      -6.9     28.221     32.787
REMARK  Name = 40777636
REMARK  9 active torsions:
REMARK  status: ('A' for Active; 'I' for Inactive)
REMARK    1  A    between atoms: O_2  and  C_29
REMARK    2  A    between atoms: O_2  and  C_30
REMARK    3  A    between atoms: N_3  and  C_8
REMARK    4  A    between atoms: N_4  and  C_15
REMARK    5  A    between atoms: C_6  and  C_9
REMARK    6  A    between atoms: C_12  and  C_14
REMARK    7  A    between atoms: C_13  and  C_16
REMARK    8  A    between atoms: C_15  and  C_18
REMARK    9  A    between atoms: C_17  and  C_19
REMARK                            x       y       z     vdW  Elec       q    Type
REMARK                         _______ _______ _______ _____ _____    ______ ____
ROOT
ATOM      6  C   UNL     1     -16.608   5.091  24.787  0.00  0.00    +0.047 C 
ATOM      7  C   UNL     1     -15.351   4.376  24.250  0.00  0.00    +0.039 C 
ATOM      8  C   UNL     1     -15.566   4.228  22.739  0.00  0.00    +0.097 C 
ATOM     10  C   UNL     1     -17.622   4.806  23.717  0.00  0.00    -0.021 C 
ATOM     11  C   UNL     1     -17.048   4.340  22.602  0.00  0.00    -0.009 C 
ENDROOT
BRANCH   6   9
ATOM      4  N   UNL     1     -17.424   3.458  27.963  0.00  0.00    -0.264 N 
ATOM      5  N   UNL     1     -17.764   4.706  28.326  0.00  0.00    -0.176 NA
ATOM      9  C   UNL     1     -17.009   4.637  26.171  0.00  0.00    +0.003 A 
ATOM     12  C   UNL     1     -16.965   3.363  26.682  0.00  0.00    +0.041 A 
ATOM     13  C   UNL     1     -17.508   5.422  27.228  0.00  0.00    +0.064 A 
ATOM     14  C   UNL     1     -16.538   2.086  26.079  0.00  0.00    +0.065 C 
ATOM     16  C   UNL     1     -17.760   6.874  27.234  0.00  0.00    +0.068 C 
BRANCH   4  15
ATOM     15  C   UNL     1     -17.567   2.383  28.917  0.00  0.00    +0.178 C 
BRANCH  15  18
ATOM     18  C   UNL     1     -16.254   1.919  29.496  0.00  0.00    -0.026 A 
ATOM     20  C   UNL     1     -15.266   2.849  29.817  0.00  0.00    +0.005 A 
ATOM     21  C   UNL     1     -16.027   0.559  29.710  0.00  0.00    +0.005 A 
ATOM     24  C   UNL     1     -14.051   2.420  30.353  0.00  0.00    +0.000 A 
ATOM     25  C   UNL     1     -14.813   0.130  30.245  0.00  0.00    +0.000 A 
ATOM     26  C   UNL     1     -13.825   1.060  30.567  0.00  0.00    +0.000 A 
ENDBRANCH  15  18
ENDBRANCH   4  15
ENDBRANCH   6   9
BRANCH   8   3
ATOM      1  O   UNL     1     -12.762   4.847  22.651  0.00  0.00    -0.270 OA
ATOM      3  N   UNL     1     -14.940   5.280  21.983  0.00  0.00    -0.305 N 
ATOM     17  C   UNL     1     -13.569   5.506  22.001  0.00  0.00    +0.245 C 
ATOM     31  H   UNL     1     -15.552   5.928  21.496  0.00  0.00    +0.150 HD
BRANCH  17  19
ATOM     19  C   UNL     1     -13.083   6.649  21.187  0.00  0.00    +0.037 A 
ATOM     22  C   UNL     1     -13.972   7.639  20.772  0.00  0.00    +0.016 A 
ATOM     23  C   UNL     1     -11.735   6.730  20.834  0.00  0.00    +0.016 A 
ATOM     27  C   UNL     1     -13.516   8.711  20.006  0.00  0.00    +0.046 A 
ATOM     28  C   UNL     1     -11.278   7.803  20.068  0.00  0.00    +0.046 A 
ATOM     29  C   UNL     1     -12.169   8.794  19.654  0.00  0.00    +0.120 A 
BRANCH  29   2
ATOM      2  O   UNL     1     -11.723   9.840  18.906  0.00  0.00    -0.495 OA
ATOM     30  C   UNL     1     -10.344   9.835  18.541  0.00  0.00    +0.277 C 
ENDBRANCH  29   2
ENDBRANCH  17  19
ENDBRANCH   8   3
TORSDOF 6
ENDMDL
MODEL 3
REMARK VINA RESULT:      -6.8     30.495     34.334
REMARK  Name = 40777636
REMARK  9 active torsions:
REMARK  status: ('A' for Active; 'I' for Inactive)
REMARK    1  A    between atoms: O_2  and  C_29
REMARK    2  A    between atoms: O_2  and  C_30
REMARK    3  A    between atoms: N_3  and  C_8
REMARK    4  A    between atoms: N_4  and  C_15
REMARK    5  A    between atoms: C_6  and  C_9
REMARK    6  A    between atoms: C_12  and  C_14
REMARK    7  A    between atoms: C_13  and  C_16
REMARK    8  A    between atoms: C_15  and  C_18
REMARK    9  A    between atoms: C_17  and  C_19
REMARK                            x       y       z     vdW  Elec       q    Type
REMARK                         _______ _______ _______ _____ _____    ______ ____
ROOT
ATOM      6  C   UNL     1     -11.797 -10.246  18.063  0.00  0.00    +0.047 C 
ATOM      7  C   UNL     1     -10.835  -9.491  19.003  0.00  0.00    +0.039 C 
ATOM      8  C   UNL     1      -9.794 -10.523  19.454  0.00  0.00    +0.097 C 
ATOM     10  C   UNL     1     -11.588 -11.676  18.469  0.00  0.00    -0.021 C 
ATOM     11  C   UNL     1     -10.493 -11.822  19.223  0.00  0.00    -0.009 C 
ENDROOT
BRANCH   6   9
ATOM      4  N   UNL     1     -15.224  -9.229  18.860  0.00  0.00    -0.264 N 
ATOM      5  N   UNL     1     -15.254  -8.904  17.557  0.00  0.00    -0.176 NA
ATOM      9  C   UNL     1     -13.226  -9.765  18.160  0.00  0.00    +0.003 A 
ATOM     12  C   UNL     1     -14.032  -9.749  19.272  0.00  0.00    +0.041 A 
ATOM     13  C   UNL     1     -14.031  -9.234  17.134  0.00  0.00    +0.064 A 
ATOM     14  C   UNL     1     -13.781 -10.172  20.662  0.00  0.00    +0.065 C 
ATOM     16  C   UNL     1     -13.670  -9.020  15.721  0.00  0.00    +0.068 C 
BRANCH   4  15
ATOM     15  C   UNL     1     -16.401  -9.008  19.670  0.00  0.00    +0.178 C 
BRANCH  15  18
ATOM     18  C   UNL     1     -16.472  -7.620  20.255  0.00  0.00    -0.026 A 
ATOM     20  C   UNL     1     -16.899  -6.551  19.466  0.00  0.00    +0.005 A 
ATOM     21  C   UNL     1     -16.109  -7.403  21.584  0.00  0.00    +0.005 A 
ATOM     24  C   UNL     1     -16.964  -5.267  20.007  0.00  0.00    +0.000 A 
ATOM     25  C   UNL     1     -16.174  -6.119  22.125  0.00  0.00    +0.000 A 
ATOM     26  C   UNL     1     -16.602  -5.051  21.337  0.00  0.00    +0.000 A 
ENDBRANCH  15  18
ENDBRANCH   4  15
ENDBRANCH   6   9
BRANCH   8   3
ATOM      1  O   UNL     1      -7.167 -11.339  20.280  0.00  0.00    -0.270 OA
ATOM      3  N   UNL     1      -8.593 -10.485  18.663  0.00  0.00    -0.305 N 
ATOM     17  C   UNL     1      -7.360 -10.903  19.148  0.00  0.00    +0.245 C 
ATOM     31  H   UNL     1      -8.654 -10.048  17.748  0.00  0.00    +0.150 HD
BRANCH  17  19
ATOM     19  C   UNL     1      -6.211 -10.775  18.215  0.00  0.00    +0.037 A 
ATOM     22  C   UNL     1      -4.980 -11.341  18.542  0.00  0.00    +0.016 A 
ATOM     23  C   UNL     1      -6.365 -10.086  17.012  0.00  0.00    +0.016 A 
ATOM     27  C   UNL     1      -3.901 -11.219  17.666  0.00  0.00    +0.046 A 
ATOM     28  C   UNL     1      -5.287  -9.964  16.135  0.00  0.00    +0.046 A 
ATOM     29  C   UNL     1      -4.054 -10.531  16.462  0.00  0.00    +0.120 A 
BRANCH  29   2
ATOM      2  O   UNL     1      -3.002 -10.411  15.607  0.00  0.00    -0.495 OA
ATOM     30  C   UNL     1      -1.711 -10.738  16.118  0.00  0.00    +0.277 C 
ENDBRANCH  29   2
ENDBRANCH  17  19
ENDBRANCH   8   3
TORSDOF 6
ENDMDL
MODEL 4
REMARK VINA RESULT:      -6.8     28.322     31.115
REMARK  Name = 40777636
REMARK  9 active torsions:
REMARK  status: ('A' for Active; 'I' for Inactive)
REMARK    1  A    between atoms: O_2  and  C_29
REMARK    2  A    between atoms: O_2  and  C_30
REMARK    3  A    between atoms: N_3  and  C_8
REMARK    4  A    between atoms: N_4  and  C_15
REMARK    5  A    between atoms: C_6  and  C_9
REMARK    6  A    between atoms: C_12  and  C_14
REMARK    7  A    between atoms: C_13  and  C_16
REMARK    8  A    between atoms: C_15  and  C_18
REMARK    9  A    between atoms: C_17  and  C_19
REMARK                            x       y       z     vdW  Elec       q    Type
REMARK                         _______ _______ _______ _____ _____    ______ ____
ROOT
ATOM      6  C   UNL     1      -3.416 -11.029  12.025  0.00  0.00    +0.047 C 
ATOM      7  C   UNL     1      -4.511 -10.033  11.592  0.00  0.00    +0.039 C 
ATOM      8  C   UNL     1      -3.886  -9.178  10.483  0.00  0.00    +0.097 C 
ATOM     10  C   UNL     1      -2.160 -10.345  11.568  0.00  0.00    -0.021 C 
ATOM     11  C   UNL     1      -2.422  -9.340  10.725  0.00  0.00    -0.009 C 
ENDROOT
BRANCH   6   9
ATOM      4  N   UNL     1      -3.961 -12.167  15.464  0.00  0.00    -0.264 N 
ATOM      5  N   UNL     1      -2.918 -11.359  15.720  0.00  0.00    -0.176 NA
ATOM      9  C   UNL     1      -3.455 -11.356  13.500  0.00  0.00    +0.003 A 
ATOM     12  C   UNL     1      -4.322 -12.200  14.149  0.00  0.00    +0.041 A 
ATOM     13  C   UNL     1      -2.613 -10.866  14.517  0.00  0.00    +0.064 A 
ATOM     14  C   UNL     1      -5.440 -13.021  13.648  0.00  0.00    +0.065 C 
ATOM     16  C   UNL     1      -1.493  -9.918  14.384  0.00  0.00    +0.068 C 
BRANCH   4  15
ATOM     15  C   UNL     1      -4.575 -12.892  16.552  0.00  0.00    +0.178 C 
BRANCH  15  18
ATOM     18  C   UNL     1      -5.247 -11.996  17.563  0.00  0.00    -0.026 A 
ATOM     20  C   UNL     1      -6.184 -11.051  17.144  0.00  0.00    +0.005 A 
ATOM     21  C   UNL     1      -4.932 -12.111  18.917  0.00  0.00    +0.005 A 
ATOM     24  C   UNL     1      -6.805 -10.222  18.078  0.00  0.00    +0.000 A 
ATOM     25  C   UNL     1      -5.553 -11.283  19.851  0.00  0.00    +0.000 A 
ATOM     26  C   UNL     1      -6.490 -10.338  19.432  0.00  0.00    +0.000 A 
ENDBRANCH  15  18
ENDBRANCH   4  15
ENDBRANCH   6   9
BRANCH   8   3
ATOM      1  O   UNL     1      -6.322  -8.725   9.030  0.00  0.00    -0.270 OA
ATOM      3  N   UNL     1      -4.203  -9.659   9.164  0.00  0.00    -0.305 N 
ATOM     17  C   UNL     1      -5.413  -9.388   8.536  0.00  0.00    +0.245 C 
ATOM     31  H   UNL     1      -3.540 -10.294   8.730  0.00  0.00    +0.150 HD
BRANCH  17  19
ATOM     19  C   UNL     1      -5.597  -9.980   7.186  0.00  0.00    +0.037 A 
ATOM     22  C   UNL     1      -4.802 -11.050   6.780  0.00  0.00    +0.016 A 
ATOM     23  C   UNL     1      -6.563  -9.462   6.324  0.00  0.00    +0.016 A 
ATOM     27  C   UNL     1      -4.973 -11.604   5.511  0.00  0.00    +0.046 A 
ATOM     28  C   UNL     1      -6.736 -10.016   5.056  0.00  0.00    +0.046 A 
ATOM     29  C   UNL     1      -5.941 -11.087   4.649  0.00  0.00    +0.120 A 
BRANCH  29   2
ATOM      2  O   UNL     1      -6.108 -11.628   3.411  0.00  0.00    -0.495 OA
ATOM     30  C   UNL     1      -5.801 -13.012   3.260  0.00  0.00    +0.277 C 
ENDBRANCH  29   2
ENDBRANCH  17  19
ENDBRANCH   8   3
TORSDOF 6
ENDMDL
MODEL 5
REMARK VINA RESULT:      -6.7      4.529     11.049
REMARK  Name = 40777636
REMARK  9 active torsions:
REMARK  status: ('A' for Active; 'I' for Inactive)
REMARK    1  A    between atoms: O_2  and  C_29
REMARK    2  A    between atoms: O_2  and  C_30
REMARK    3  A    between atoms: N_3  and  C_8
REMARK    4  A    between atoms: N_4  and  C_15
REMARK    5  A    between atoms: C_6  and  C_9
REMARK    6  A    between atoms: C_12  and  C_14
REMARK    7  A    between atoms: C_13  and  C_16
REMARK    8  A    between atoms: C_15  and  C_18
REMARK    9  A    between atoms: C_17  and  C_19
REMARK                            x       y       z     vdW  Elec       q    Type
REMARK                         _______ _______ _______ _____ _____    ______ ____
ROOT
ATOM      6  C   UNL     1      18.900   6.861  21.246  0.00  0.00    +0.047 C 
ATOM      7  C   UNL     1      19.475   5.849  20.233  0.00  0.00    +0.039 C 
ATOM      8  C   UNL     1      20.996   5.888  20.418  0.00  0.00    +0.097 C 
ATOM     10  C   UNL     1      20.078   7.752  21.513  0.00  0.00    -0.021 C 
ATOM     11  C   UNL     1      21.218   7.215  21.064  0.00  0.00    -0.009 C 
ENDROOT
BRANCH   6   9
ATOM      4  N   UNL     1      15.826   8.119  19.704  0.00  0.00    -0.264 N 
ATOM      5  N   UNL     1      16.079   9.195  20.468  0.00  0.00    -0.176 NA
ATOM      9  C   UNL     1      17.669   7.577  20.742  0.00  0.00    +0.003 A 
ATOM     12  C   UNL     1      16.748   7.122  19.831  0.00  0.00    +0.041 A 
ATOM     13  C   UNL     1      17.207   8.858  21.101  0.00  0.00    +0.064 A 
ATOM     14  C   UNL     1      16.662   5.854  19.083  0.00  0.00    +0.065 C 
ATOM     16  C   UNL     1      17.815   9.805  22.052  0.00  0.00    +0.068 C 
BRANCH   4  15
ATOM     15  C   UNL     1      14.655   8.117  18.857  0.00  0.00    +0.178 C 
BRANCH  15  18
ATOM     18  C   UNL     1      13.365   7.952  19.621  0.00  0.00    -0.026 A 
ATOM     20  C   UNL     1      13.219   6.900  20.525  0.00  0.00    +0.005 A 
ATOM     21  C   UNL     1      12.317   8.852  19.424  0.00  0.00    +0.005 A 
ATOM     24  C   UNL     1      12.026   6.748  21.232  0.00  0.00    +0.000 A 
ATOM     25  C   UNL     1      11.125   8.701  20.131  0.00  0.00    +0.000 A 
ATOM     26  C   UNL     1      10.979   7.648  21.035  0.00  0.00    +0.000 A 
ENDBRANCH  15  18
ENDBRANCH   4  15
ENDBRANCH   6   9
BRANCH   8   3
ATOM      1  O   UNL     1      23.485   4.471  20.195  0.00  0.00    -0.270 OA
ATOM      3  N   UNL     1      21.477   4.851  21.292  0.00  0.00    -0.305 N 
ATOM     17  C   UNL     1      22.701   4.218  21.106  0.00  0.00    +0.245 C 
ATOM     31  H   UNL     1      20.842   4.520  22.013  0.00  0.00    +0.150 HD
BRANCH  17  19
ATOM     19  C   UNL     1      23.040   3.149  22.080  0.00  0.00    +0.037 A 
ATOM     22  C   UNL     1      23.930   2.137  21.723  0.00  0.00    +0.016 A 
ATOM     23  C   UNL     1      22.466   3.157  23.351  0.00  0.00    +0.016 A 
ATOM     27  C   UNL     1      24.247   1.132  22.637  0.00  0.00    +0.046 A 
ATOM     28  C   UNL     1      22.783   2.153  24.266  0.00  0.00    +0.046 A 
ATOM     29  C   UNL     1      23.673   1.140  23.909  0.00  0.00    +0.120 A 
BRANCH  29   2
ATOM      2  O   UNL     1      23.982   0.159  24.801  0.00  0.00    -0.495 OA
ATOM     30  C   UNL     1      25.213  -0.533  24.603  0.00  0.00    +0.277 C 
ENDBRANCH  29   2
ENDBRANCH  17  19
ENDBRANCH   8   3
TORSDOF 6
ENDMDL
MODEL 6
REMARK VINA RESULT:      -6.7     29.069     31.921
REMARK  Name = 40777636
REMARK  9 active torsions:
REMARK  status: ('A' for Active; 'I' for Inactive)
REMARK    1  A    between atoms: O_2  and  C_29
REMARK    2  A    between atoms: O_2  and  C_30
REMARK    3  A    between atoms: N_3  and  C_8
REMARK    4  A    between atoms: N_4  and  C_15
REMARK    5  A    between atoms: C_6  and  C_9
REMARK    6  A    between atoms: C_12  and  C_14
REMARK    7  A    between atoms: C_13  and  C_16
REMARK    8  A    between atoms: C_15  and  C_18
REMARK    9  A    between atoms: C_17  and  C_19
REMARK                            x       y       z     vdW  Elec       q    Type
REMARK                         _______ _______ _______ _____ _____    ______ ____
ROOT
ATOM      6  C   UNL     1      -3.958 -10.668  10.576  0.00  0.00    +0.047 C 
ATOM      7  C   UNL     1      -5.224 -11.165   9.848  0.00  0.00    +0.039 C 
ATOM      8  C   UNL     1      -5.283 -10.383   8.530  0.00  0.00    +0.097 C 
ATOM     10  C   UNL     1      -3.720  -9.333   9.934  0.00  0.00    -0.021 C 
ATOM     11  C   UNL     1      -4.441  -9.184   8.817  0.00  0.00    -0.009 C 
ENDROOT
BRANCH   6   9
ATOM      4  N   UNL     1      -4.835 -10.301  14.113  0.00  0.00    -0.264 N 
ATOM      5  N   UNL     1      -3.659 -10.924  14.299  0.00  0.00    -0.176 NA
ATOM      9  C   UNL     1      -4.111 -10.627  12.079  0.00  0.00    +0.003 A 
ATOM     12  C   UNL     1      -5.152 -10.100  12.802  0.00  0.00    +0.041 A 
ATOM     13  C   UNL     1      -3.221 -11.121  13.052  0.00  0.00    +0.064 A 
ATOM     14  C   UNL     1      -6.397  -9.434  12.373  0.00  0.00    +0.065 C 
ATOM     16  C   UNL     1      -1.928 -11.795  12.836  0.00  0.00    +0.068 C 
BRANCH   4  15
ATOM     15  C   UNL     1      -5.620  -9.920  15.265  0.00  0.00    +0.178 C 
BRANCH  15  18
ATOM     18  C   UNL     1      -5.489 -10.880  16.421  0.00  0.00    -0.026 A 
ATOM     20  C   UNL     1      -6.187 -12.088  16.407  0.00  0.00    +0.005 A 
ATOM     21  C   UNL     1      -4.672 -10.559  17.505  0.00  0.00    +0.005 A 
ATOM     24  C   UNL     1      -6.066 -12.975  17.477  0.00  0.00    +0.000 A 
ATOM     25  C   UNL     1      -4.551 -11.446  18.575  0.00  0.00    +0.000 A 
ATOM     26  C   UNL     1      -5.248 -12.654  18.561  0.00  0.00    +0.000 A 
ENDBRANCH  15  18
ENDBRANCH   4  15
ENDBRANCH   6   9
BRANCH   8   3
ATOM      1  O   UNL     1      -6.149 -10.308   5.792  0.00  0.00    -0.270 OA
ATOM      3  N   UNL     1      -4.711 -11.109   7.427  0.00  0.00    -0.305 N 
ATOM     17  C   UNL     1      -5.198 -11.009   6.128  0.00  0.00    +0.245 C 
ATOM     31  H   UNL     1      -3.982 -11.782   7.642  0.00  0.00    +0.150 HD
BRANCH  17  19
ATOM     19  C   UNL     1      -4.514 -11.843   5.107  0.00  0.00    +0.037 A 
ATOM     22  C   UNL     1      -5.111 -12.053   3.865  0.00  0.00    +0.016 A 
ATOM     23  C   UNL     1      -3.276 -12.419   5.393  0.00  0.00    +0.016 A 
ATOM     27  C   UNL     1      -4.469 -12.838   2.906  0.00  0.00    +0.046 A 
ATOM     28  C   UNL     1      -2.634 -13.203   4.435  0.00  0.00    +0.046 A 
ATOM     29  C   UNL     1      -3.231 -13.413   3.191  0.00  0.00    +0.120 A 
BRANCH  29   2
ATOM      2  O   UNL     1      -2.605 -14.179   2.256  0.00  0.00    -0.495 OA
ATOM     30  C   UNL     1      -1.187 -14.058   2.162  0.00  0.00    +0.277 C 
ENDBRANCH  29   2
ENDBRANCH  17  19
ENDBRANCH   8   3
TORSDOF 6
ENDMDL
MODEL 7
REMARK VINA RESULT:      -6.6     29.038     31.784
REMARK  Name = 40777636
REMARK  9 active torsions:
REMARK  status: ('A' for Active; 'I' for Inactive)
REMARK    1  A    between atoms: O_2  and  C_29
REMARK    2  A    between atoms: O_2  and  C_30
REMARK    3  A    between atoms: N_3  and  C_8
REMARK    4  A    between atoms: N_4  and  C_15
REMARK    5  A    between atoms: C_6  and  C_9
REMARK    6  A    between atoms: C_12  and  C_14
REMARK    7  A    between atoms: C_13  and  C_16
REMARK    8  A    between atoms: C_15  and  C_18
REMARK    9  A    between atoms: C_17  and  C_19
REMARK                            x       y       z     vdW  Elec       q    Type
REMARK                         _______ _______ _______ _____ _____    ______ ____
ROOT
ATOM      6  C   UNL     1      -3.906 -10.505  10.690  0.00  0.00    +0.047 C 
ATOM      7  C   UNL     1      -5.201 -10.898   9.951  0.00  0.00    +0.039 C 
ATOM      8  C   UNL     1      -5.235 -10.041   8.679  0.00  0.00    +0.097 C 
ATOM     10  C   UNL     1      -3.610  -9.147  10.120  0.00  0.00    -0.021 C 
ATOM     11  C   UNL     1      -4.334  -8.901   9.023  0.00  0.00    -0.009 C 
ENDROOT
BRANCH   6   9
ATOM      4  N   UNL     1      -3.720 -10.869  14.330  0.00  0.00    -0.264 N 
ATOM      5  N   UNL     1      -4.901 -10.229  14.288  0.00  0.00    -0.176 NA
ATOM      9  C   UNL     1      -4.041 -10.541  12.194  0.00  0.00    +0.003 A 
ATOM     12  C   UNL     1      -3.163 -11.080  13.102  0.00  0.00    +0.041 A 
ATOM     13  C   UNL     1      -5.092 -10.030  12.980  0.00  0.00    +0.064 A 
ATOM     14  C   UNL     1      -1.870 -11.765  12.918  0.00  0.00    +0.065 C 
ATOM     16  C   UNL     1      -6.310  -9.340  12.522  0.00  0.00    +0.068 C 
BRANCH   4  15
ATOM     15  C   UNL     1      -3.174 -11.256  15.610  0.00  0.00    +0.178 C 
BRANCH  15  18
ATOM     18  C   UNL     1      -4.224 -11.695  16.600  0.00  0.00    -0.026 A 
ATOM     20  C   UNL     1      -4.578 -10.857  17.658  0.00  0.00    +0.005 A 
ATOM     21  C   UNL     1      -4.841 -12.938  16.459  0.00  0.00    +0.005 A 
ATOM     24  C   UNL     1      -5.549 -11.263  18.573  0.00  0.00    +0.000 A 
ATOM     25  C   UNL     1      -5.811 -13.344  17.374  0.00  0.00    +0.000 A 
ATOM     26  C   UNL     1      -6.166 -12.506  18.432  0.00  0.00    +0.000 A 
ENDBRANCH  15  18
ENDBRANCH   4  15
ENDBRANCH   6   9
BRANCH   8   3
ATOM      1  O   UNL     1      -6.643 -10.649   6.251  0.00  0.00    -0.270 OA
ATOM      3  N   UNL     1      -4.710 -10.729   7.530  0.00  0.00    -0.305 N 
ATOM     17  C   UNL     1      -5.469 -10.980   6.393  0.00  0.00    +0.245 C 
ATOM     31  H   UNL     1      -3.776 -11.118   7.609  0.00  0.00    +0.150 HD
BRANCH  17  19
ATOM     19  C   UNL     1      -4.788 -11.725   5.303  0.00  0.00    +0.037 A 
ATOM     22  C   UNL     1      -3.504 -12.230   5.499  0.00  0.00    +0.016 A 
ATOM     23  C   UNL     1      -5.434 -11.918   4.082  0.00  0.00    +0.016 A 
ATOM     27  C   UNL     1      -2.864 -12.928   4.475  0.00  0.00    +0.046 A 
ATOM     28  C   UNL     1      -4.796 -12.617   3.057  0.00  0.00    +0.046 A 
ATOM     29  C   UNL     1      -3.510 -13.122   3.254  0.00  0.00    +0.120 A 
BRANCH  29   2
ATOM      2  O   UNL     1      -2.886 -13.803   2.254  0.00  0.00    -0.495 OA
ATOM     30  C   UNL     1      -1.465 -13.908   2.329  0.00  0.00    +0.277 C 
ENDBRANCH  29   2
ENDBRANCH  17  19
ENDBRANCH   8   3
TORSDOF 6
ENDMDL
MODEL 8
REMARK VINA RESULT:      -6.6     28.789     32.389
REMARK  Name = 40777636
REMARK  9 active torsions:
REMARK  status: ('A' for Active; 'I' for Inactive)
REMARK    1  A    between atoms: O_2  and  C_29
REMARK    2  A    between atoms: O_2  and  C_30
REMARK    3  A    between atoms: N_3  and  C_8
REMARK    4  A    between atoms: N_4  and  C_15
REMARK    5  A    between atoms: C_6  and  C_9
REMARK    6  A    between atoms: C_12  and  C_14
REMARK    7  A    between atoms: C_13  and  C_16
REMARK    8  A    between atoms: C_15  and  C_18
REMARK    9  A    between atoms: C_17  and  C_19
REMARK                            x       y       z     vdW  Elec       q    Type
REMARK                         _______ _______ _______ _____ _____    ______ ____
ROOT
ATOM      6  C   UNL     1     -13.599   7.706  32.407  0.00  0.00    +0.047 C 
ATOM      7  C   UNL     1     -13.466   6.328  33.086  0.00  0.00    +0.039 C 
ATOM      8  C   UNL     1     -14.891   5.770  33.185  0.00  0.00    +0.097 C 
ATOM     10  C   UNL     1     -15.035   8.057  32.669  0.00  0.00    -0.021 C 
ATOM     11  C   UNL     1     -15.736   6.997  33.089  0.00  0.00    -0.009 C 
ENDROOT
BRANCH   6   9
ATOM      4  N   UNL     1     -11.371  10.022  34.163  0.00  0.00    -0.264 N 
ATOM      5  N   UNL     1     -10.961  10.311  32.917  0.00  0.00    -0.176 NA
ATOM      9  C   UNL     1     -12.600   8.721  32.912  0.00  0.00    +0.003 A 
ATOM     12  C   UNL     1     -12.351   9.075  34.216  0.00  0.00    +0.041 A 
ATOM     13  C   UNL     1     -11.715   9.512  32.157  0.00  0.00    +0.064 A 
ATOM     14  C   UNL     1     -12.947   8.609  35.482  0.00  0.00    +0.065 C 
ATOM     16  C   UNL     1     -11.553   9.541  30.692  0.00  0.00    +0.068 C 
BRANCH   4  15
ATOM     15  C   UNL     1     -10.765  10.707  35.282  0.00  0.00    +0.178 C 
BRANCH  15  18
ATOM     18  C   UNL     1      -9.492  10.056  35.762  0.00  0.00    -0.026 A 
ATOM     20  C   UNL     1      -9.551   8.947  36.606  0.00  0.00    +0.005 A 
ATOM     21  C   UNL     1      -8.255  10.564  35.364  0.00  0.00    +0.005 A 
ATOM     24  C   UNL     1      -8.373   8.346  37.051  0.00  0.00    +0.000 A 
ATOM     25  C   UNL     1      -7.078   9.963  35.808  0.00  0.00    +0.000 A 
ATOM     26  C   UNL     1      -7.137   8.853  36.652  0.00  0.00    +0.000 A 
ENDBRANCH  15  18
ENDBRANCH   4  15
ENDBRANCH   6   9
BRANCH   8   3
ATOM      1  O   UNL     1     -14.293   2.965  33.017  0.00  0.00    -0.270 OA
ATOM      3  N   UNL     1     -15.219   4.884  32.100  0.00  0.00    -0.305 N 
ATOM     17  C   UNL     1     -14.889   3.534  32.106  0.00  0.00    +0.245 C 
ATOM     31  H   UNL     1     -15.627   5.300  31.268  0.00  0.00    +0.150 HD
BRANCH  17  19
ATOM     19  C   UNL     1     -15.274   2.761  30.897  0.00  0.00    +0.037 A 
ATOM     22  C   UNL     1     -15.584   3.426  29.713  0.00  0.00    +0.016 A 
ATOM     23  C   UNL     1     -15.328   1.368  30.949  0.00  0.00    +0.016 A 
ATOM     27  C   UNL     1     -15.948   2.700  28.579  0.00  0.00    +0.046 A 
ATOM     28  C   UNL     1     -15.691   0.640  29.816  0.00  0.00    +0.046 A 
ATOM     29  C   UNL     1     -16.001   1.307  28.630  0.00  0.00    +0.120 A 
BRANCH  29   2
ATOM      2  O   UNL     1     -16.356   0.598  27.523  0.00  0.00    -0.495 OA
ATOM     30  C   UNL     1     -16.832   1.340  26.402  0.00  0.00    +0.277 C 
ENDBRANCH  29   2
ENDBRANCH  17  19
ENDBRANCH   8   3
TORSDOF 6
ENDMDL
MODEL 9
REMARK VINA RESULT:      -6.5     28.298     32.087
REMARK  Name = 40777636
REMARK  9 active torsions:
REMARK  status: ('A' for Active; 'I' for Inactive)
REMARK    1  A    between atoms: O_2  and  C_29
REMARK    2  A    between atoms: O_2  and  C_30
REMARK    3  A    between atoms: N_3  and  C_8
REMARK    4  A    between atoms: N_4  and  C_15
REMARK    5  A    between atoms: C_6  and  C_9
REMARK    6  A    between atoms: C_12  and  C_14
REMARK    7  A    between atoms: C_13  and  C_16
REMARK    8  A    between atoms: C_15  and  C_18
REMARK    9  A    between atoms: C_17  and  C_19
REMARK                            x       y       z     vdW  Elec       q    Type
REMARK                         _______ _______ _______ _____ _____    ______ ____
ROOT
ATOM      6  C   UNL     1     -14.997   6.181  23.043  0.00  0.00    +0.047 C 
ATOM      7  C   UNL     1     -16.419   6.049  23.626  0.00  0.00    +0.039 C 
ATOM      8  C   UNL     1     -16.460   4.684  24.325  0.00  0.00    +0.097 C 
ATOM     10  C   UNL     1     -14.548   4.751  22.962  0.00  0.00    -0.021 C 
ATOM     11  C   UNL     1     -15.347   3.940  23.665  0.00  0.00    -0.009 C 
ENDROOT
BRANCH   6   9
ATOM      4  N   UNL     1     -14.558   8.376  20.144  0.00  0.00    -0.264 N 
ATOM      5  N   UNL     1     -15.345   7.467  19.545  0.00  0.00    -0.176 NA
ATOM      9  C   UNL     1     -14.957   6.929  21.731  0.00  0.00    +0.003 A 
ATOM     12  C   UNL     1     -14.295   8.101  21.453  0.00  0.00    +0.041 A 
ATOM     13  C   UNL     1     -15.586   6.585  20.519  0.00  0.00    +0.064 A 
ATOM     14  C   UNL     1     -13.453   8.967  22.299  0.00  0.00    +0.065 C 
ATOM     16  C   UNL     1     -16.434   5.412  20.242  0.00  0.00    +0.068 C 
BRANCH   4  15
ATOM     15  C   UNL     1     -14.084   9.509  19.382  0.00  0.00    +0.178 C 
BRANCH  15  18
ATOM     18  C   UNL     1     -12.662   9.354  18.904  0.00  0.00    -0.026 A 
ATOM     20  C   UNL     1     -11.731  10.365  19.146  0.00  0.00    +0.005 A 
ATOM     21  C   UNL     1     -12.277   8.201  18.220  0.00  0.00    +0.005 A 
ATOM     24  C   UNL     1     -10.416  10.222  18.704  0.00  0.00    +0.000 A 
ATOM     25  C   UNL     1     -10.962   8.058  17.778  0.00  0.00    +0.000 A 
ATOM     26  C   UNL     1     -10.031   9.068  18.019  0.00  0.00    +0.000 A 
ENDBRANCH  15  18
ENDBRANCH   4  15
ENDBRANCH   6   9
BRANCH   8   3
ATOM      1  O   UNL     1     -17.150   2.741  26.325  0.00  0.00    -0.270 OA
ATOM      3  N   UNL     1     -16.198   4.773  25.736  0.00  0.00    -0.305 N 
ATOM     17  C   UNL     1     -16.570   3.779  26.634  0.00  0.00    +0.245 C 
ATOM     31  H   UNL     1     -15.808   5.645  26.082  0.00  0.00    +0.150 HD
BRANCH  17  19
ATOM     19  C   UNL     1     -16.251   4.034  28.062  0.00  0.00    +0.037 A 
ATOM     22  C   UNL     1     -16.799   5.139  28.713  0.00  0.00    +0.016 A 
ATOM     23  C   UNL     1     -15.402   3.169  28.752  0.00  0.00    +0.016 A 
ATOM     27  C   UNL     1     -16.498   5.380  30.053  0.00  0.00    +0.046 A 
ATOM     28  C   UNL     1     -15.101   3.409  30.093  0.00  0.00    +0.046 A 
ATOM     29  C   UNL     1     -15.650   4.514  30.744  0.00  0.00    +0.120 A 
BRANCH  29   2
ATOM      2  O   UNL     1     -15.356   4.749  32.052  0.00  0.00    -0.495 OA
ATOM     30  C   UNL     1     -14.109   4.253  32.536  0.00  0.00    +0.277 C 
ENDBRANCH  29   2
ENDBRANCH  17  19
ENDBRANCH   8   3
TORSDOF 6
ENDMDL
MODEL 10
REMARK VINA RESULT:      -6.5      0.812      2.053
REMARK  Name = 40777636
REMARK  9 active torsions:
REMARK  status: ('A' for Active; 'I' for Inactive)
REMARK    1  A    between atoms: O_2  and  C_29
REMARK    2  A    between atoms: O_2  and  C_30
REMARK    3  A    between atoms: N_3  and  C_8
REMARK    4  A    between atoms: N_4  and  C_15
REMARK    5  A    between atoms: C_6  and  C_9
REMARK    6  A    between atoms: C_12  and  C_14
REMARK    7  A    between atoms: C_13  and  C_16
REMARK    8  A    between atoms: C_15  and  C_18
REMARK    9  A    between atoms: C_17  and  C_19
REMARK                            x       y       z     vdW  Elec       q    Type
REMARK                         _______ _______ _______ _____ _____    ______ ____
ROOT
ATOM      6  C   UNL     1      17.152   7.641  21.512  0.00  0.00    +0.047 C 
ATOM      7  C   UNL     1      16.703   8.758  20.548  0.00  0.00    +0.039 C 
ATOM      8  C   UNL     1      15.242   8.450  20.200  0.00  0.00    +0.097 C 
ATOM     10  C   UNL     1      16.169   6.546  21.215  0.00  0.00    -0.021 C 
ATOM     11  C   UNL     1      15.129   6.993  20.502  0.00  0.00    -0.009 C 
ENDROOT
BRANCH   6   9
ATOM      4  N   UNL     1      20.467   6.299  20.722  0.00  0.00    -0.264 N 
ATOM      5  N   UNL     1      20.871   7.231  21.602  0.00  0.00    -0.176 NA
ATOM      9  C   UNL     1      18.602   7.251  21.343  0.00  0.00    +0.003 A 
ATOM     12  C   UNL     1      19.117   6.270  20.531  0.00  0.00    +0.041 A 
ATOM     13  C   UNL     1      19.727   7.810  21.977  0.00  0.00    +0.064 A 
ATOM     14  C   UNL     1      18.460   5.325  19.609  0.00  0.00    +0.065 C 
ATOM     16  C   UNL     1      19.759   8.908  22.960  0.00  0.00    +0.068 C 
BRANCH   4  15
ATOM     15  C   UNL     1      21.452   5.454  20.089  0.00  0.00    +0.178 C 
BRANCH  15  18
ATOM     18  C   UNL     1      22.333   4.723  21.072  0.00  0.00    -0.026 A 
ATOM     20  C   UNL     1      23.690   5.038  21.161  0.00  0.00    +0.005 A 
ATOM     21  C   UNL     1      21.793   3.732  21.891  0.00  0.00    +0.005 A 
ATOM     24  C   UNL     1      24.504   4.363  22.069  0.00  0.00    +0.000 A 
ATOM     25  C   UNL     1      22.607   3.057  22.800  0.00  0.00    +0.000 A 
ATOM     26  C   UNL     1      23.963   3.372  22.889  0.00  0.00    +0.000 A 
ENDBRANCH  15  18
ENDBRANCH   4  15
ENDBRANCH   6   9
BRANCH   8   3
ATOM      1  O   UNL     1      12.777   9.650  19.344  0.00  0.00    -0.270 OA
ATOM      3  N   UNL     1      14.310   9.177  21.019  0.00  0.00    -0.305 N 
ATOM     17  C   UNL     1      13.135   9.725  20.516  0.00  0.00    +0.245 C 
ATOM     31  H   UNL     1      14.583   9.364  21.979  0.00  0.00    +0.150 HD
BRANCH  17  19
ATOM     19  C   UNL     1      12.292  10.470  21.486  0.00  0.00    +0.037 A 
ATOM     22  C   UNL     1      12.086  11.839  21.324  0.00  0.00    +0.016 A 
ATOM     23  C   UNL     1      11.709   9.799  22.561  0.00  0.00    +0.016 A 
ATOM     27  C   UNL     1      11.296  12.538  22.237  0.00  0.00    +0.046 A 
ATOM     28  C   UNL     1      10.918  10.497  23.473  0.00  0.00    +0.046 A 
ATOM     29  C   UNL     1      10.711  11.867  23.311  0.00  0.00    +0.120 A 
BRANCH  29   2
ATOM      2  O   UNL     1       9.940  12.549  24.202  0.00  0.00    -0.495 OA
ATOM     30  C   UNL     1      10.608  13.156  25.306  0.00  0.00    +0.277 C 
ENDBRANCH  29   2
ENDBRANCH  17  19
ENDBRANCH   8   3
TORSDOF 6
ENDMDL
