REMARK  Name = 45361411
REMARK  14 active torsions:
REMARK  status: ('A' for Active; 'I' for Inactive)
REMARK    1  A    between atoms: O_1  and  C_9
REMARK    2  A    between atoms: N_4  and  C_13
REMARK    3  A    between atoms: N_5  and  C_24
REMARK    4  A    between atoms: C_6  and  C_16
REMARK    5  A    between atoms: C_8  and  C_18
REMARK    6  A    between atoms: C_12  and  C_17
REMARK    7  A    between atoms: C_17  and  C_19
REMARK    8  A    between atoms: C_17  and  C_20
REMARK    9  A    between atoms: C_21  and  C_22
REMARK   10  A    between atoms: C_22  and  C_23
REMARK   11  A    between atoms: C_23  and  C_25
REMARK   12  A    between atoms: C_23  and  C_26
REMARK   13  A    between atoms: C_23  and  C_27
REMARK   14  A    between atoms: C_24  and  C_28
REMARK                            x       y       z     vdW  Elec       q    Type
REMARK                         _______ _______ _______ _____ _____    ______ ____
ROOT
ATOM      6  C   UNL     1      -0.425   0.356   0.969  0.00  0.00    -0.027 C 
ATOM      7  C   UNL     1      -0.643  -0.623  -0.233  0.00  0.00    +0.028 C 
ATOM      8  C   UNL     1      -2.150  -1.054  -0.336  0.00  0.00    +0.012 C 
ATOM      9  C   UNL     1       0.386  -1.790  -0.203  0.00  0.00    +0.122 C 
ATOM     10  C   UNL     1       1.041   0.849   0.974  0.00  0.00    +0.007 C 
ATOM     11  C   UNL     1      -1.336   1.592   0.783  0.00  0.00    +0.009 C 
ATOM     12  C   UNL     1       1.846  -1.292  -0.093  0.00  0.00    +0.029 C 
ATOM     13  C   UNL     1      -3.062   0.199  -0.446  0.00  0.00    +0.076 C 
ATOM     14  C   UNL     1       2.050  -0.289   1.043  0.00  0.00    +0.007 C 
ATOM     15  C   UNL     1      -2.809   1.234   0.650  0.00  0.00    +0.023 C 
ATOM     16  C   UNL     1      -0.733  -0.304   2.336  0.00  0.00    +0.011 C 
ATOM     18  C   UNL     1      -2.441  -1.997  -1.516  0.00  0.00    +0.010 C 
ENDROOT
BRANCH  13   4
ATOM      3  O   UNL     1      -5.236   1.555  -1.798  0.00  0.00    -0.276 OA
ATOM      4  N   UNL     1      -4.466  -0.156  -0.427  0.00  0.00    -0.312 N 
ATOM     21  C   UNL     1      -5.436   0.557  -1.108  0.00  0.00    +0.214 C 
ATOM     34  H   UNL     1      -4.743  -0.947   0.147  0.00  0.00    +0.149 HD
BRANCH  21  22
ATOM     22  C   UNL     1      -6.832  -0.014  -0.920  0.00  0.00    +0.102 C 
BRANCH  22  23
ATOM     23  C   UNL     1      -7.589   0.524   0.318  0.00  0.00    -0.029 C 
ATOM     25  C   UNL     1      -7.736   2.053   0.267  0.00  0.00    +0.011 C 
ATOM     26  C   UNL     1      -6.775   0.154   1.573  0.00  0.00    +0.011 C 
ATOM     27  C   UNL     1      -8.982  -0.116   0.436  0.00  0.00    +0.011 C 
ENDBRANCH  22  23
ENDBRANCH  21  22
ENDBRANCH  13   4
BRANCH   9   1
ATOM      1  O   UNL     1       0.299  -2.534  -1.419  0.00  0.00    -0.391 OA
ATOM     35  H   UNL     1       0.492  -1.931  -2.157  0.00  0.00    +0.210 HD
ENDBRANCH   9   1
BRANCH  12  17
ATOM     17  C   UNL     1       2.833  -2.455   0.067  0.00  0.00    +0.077 C 
ATOM     19  C   UNL     1       2.500  -3.257   1.321  0.00  0.00    +0.017 C 
BRANCH  17  20
ATOM      2  O   UNL     1       5.016  -2.120   1.061  0.00  0.00    -0.276 OA
ATOM      5  N   UNL     1       4.596  -1.204  -1.028  0.00  0.00    -0.311 N 
ATOM     20  C   UNL     1       4.262  -1.923   0.111  0.00  0.00    +0.216 C 
ATOM     36  H   UNL     1       3.933  -1.129  -1.793  0.00  0.00    +0.149 HD
BRANCH   5  24
ATOM     24  C   UNL     1       5.894  -0.599  -1.217  0.00  0.00    +0.139 C 
BRANCH  24  28
ATOM     28  C   UNL     1       5.943   0.805  -0.687  0.00  0.00    -0.030 A 
ATOM     29  C   UNL     1       5.613   1.876  -1.517  0.00  0.00    +0.005 A 
ATOM     30  C   UNL     1       6.318   1.038   0.636  0.00  0.00    +0.005 A 
ATOM     31  C   UNL     1       5.658   3.180  -1.025  0.00  0.00    +0.000 A 
ATOM     32  C   UNL     1       6.363   2.342   1.129  0.00  0.00    +0.000 A 
ATOM     33  C   UNL     1       6.034   3.413   0.298  0.00  0.00    +0.000 A 
ENDBRANCH  24  28
ENDBRANCH   5  24
ENDBRANCH  17  20
ENDBRANCH  12  17
TORSDOF 8
