REMARK  Name = 51137785
REMARK  5 active torsions:
REMARK  status: ('A' for Active; 'I' for Inactive)
REMARK    1  A    between atoms: O_3  and  C_25
REMARK    2  A    between atoms: O_3  and  C_26
REMARK    3  A    between atoms: C_7  and  C_11
REMARK    4  A    between atoms: C_12  and  C_13
REMARK    5  A    between atoms: C_14  and  C_17
REMARK                            x       y       z     vdW  Elec       q    Type
REMARK                         _______ _______ _______ _____ _____    ______ ____
ROOT
ATOM      2  O   UNL     1       2.746  -0.704   2.487  0.00  0.00    -0.270 OA
ATOM      4  N   UNL     1       2.447   0.965   0.900  0.00  0.00    -0.297 N 
ATOM      7  C   UNL     1       1.580   2.766  -0.391  0.00  0.00    +0.095 C 
ATOM      8  C   UNL     1       1.948   3.268   1.014  0.00  0.00    +0.033 C 
ATOM      9  C   UNL     1       2.373   1.455  -0.478  0.00  0.00    +0.121 C 
ATOM     10  C   UNL     1       2.042   1.995   1.844  0.00  0.00    +0.109 C 
ATOM     12  C   UNL     1       2.768  -0.316   1.320  0.00  0.00    +0.247 C 
ENDROOT
BRANCH  12  13
ATOM     13  C   UNL     1       3.151  -1.294   0.290  0.00  0.00    +0.037 A 
ATOM     15  C   UNL     1       4.258  -1.054  -0.524  0.00  0.00    +0.013 A 
ATOM     16  C   UNL     1       2.405  -2.462   0.127  0.00  0.00    +0.013 A 
ATOM     18  C   UNL     1       4.619  -1.981  -1.502  0.00  0.00    +0.001 A 
ATOM     19  C   UNL     1       2.767  -3.389  -0.851  0.00  0.00    +0.001 A 
ATOM     22  C   UNL     1       3.874  -3.149  -1.665  0.00  0.00    +0.000 A 
ENDBRANCH  12  13
BRANCH   7  11
ATOM      1  O   UNL     1      -0.502   1.473  -0.255  0.00  0.00    -0.420 OA
ATOM      5  N   UNL     1      -0.778   3.563  -1.001  0.00  0.00    -0.112 NA
ATOM      6  N   UNL     1      -2.018   2.953  -0.974  0.00  0.00    -0.107 NA
ATOM     11  C   UNL     1       0.076   2.663  -0.573  0.00  0.00    +0.222 A 
ATOM     14  C   UNL     1      -1.809   1.734  -0.532  0.00  0.00    +0.248 A 
BRANCH  14  17
ATOM     17  C   UNL     1      -2.727   0.657  -0.301  0.00  0.00    +0.039 A 
ATOM     20  C   UNL     1      -4.087   0.833  -0.556  0.00  0.00    +0.017 A 
ATOM     21  C   UNL     1      -2.261  -0.566   0.179  0.00  0.00    +0.017 A 
ATOM     23  C   UNL     1      -4.981  -0.214  -0.332  0.00  0.00    +0.046 A 
ATOM     24  C   UNL     1      -3.154  -1.614   0.404  0.00  0.00    +0.046 A 
ATOM     25  C   UNL     1      -4.514  -1.438   0.148  0.00  0.00    +0.120 A 
BRANCH  25   3
ATOM      3  O   UNL     1      -5.385  -2.461   0.365  0.00  0.00    -0.495 OA
ATOM     26  C   UNL     1      -4.839  -3.684   0.856  0.00  0.00    +0.277 C 
ENDBRANCH  25   3
ENDBRANCH  14  17
ENDBRANCH   7  11
TORSDOF 4
