MODEL 1
REMARK VINA RESULT:      -5.8      0.000      0.000
REMARK  Name = 38030854
REMARK  13 active torsions:
REMARK  status: ('A' for Active; 'I' for Inactive)
REMARK    1  A    between atoms: O_2  and  C_32
REMARK    2  A    between atoms: O_2  and  C_33
REMARK    3  A    between atoms: N_3  and  C_14
REMARK    4  A    between atoms: N_3  and  C_20
REMARK    5  A    between atoms: C_7  and  C_11
REMARK    6  A    between atoms: C_8  and  C_14
REMARK    7  A    between atoms: C_10  and  C_15
REMARK    8  A    between atoms: C_11  and  C_16
REMARK    9  A    between atoms: C_11  and  C_17
REMARK   10  A    between atoms: C_12  and  C_18
REMARK   11  A    between atoms: C_15  and  C_19
REMARK   12  A    between atoms: C_20  and  C_21
REMARK   13  A    between atoms: C_22  and  C_25
REMARK                            x       y       z     vdW  Elec       q    Type
REMARK                         _______ _______ _______ _____ _____    ______ ____
ROOT
ATOM      7  C   UNL     1      -4.400 -11.735  13.381  0.00  0.00    +0.000 C 
ATOM      8  C   UNL     1      -2.933 -11.712  12.888  0.00  0.00    +0.029 C 
ATOM      9  C   UNL     1      -5.368 -11.677  12.189  0.00  0.00    +0.012 C 
ATOM     10  C   UNL     1      -5.161 -10.414  11.331  0.00  0.00    +0.024 C 
ATOM     12  C   UNL     1      -3.696 -10.176  11.026  0.00  0.00    -0.073 C 
ATOM     13  C   UNL     1      -2.714 -10.775  11.724  0.00  0.00    -0.023 C 
ATOM     18  C   UNL     1      -3.384  -9.267   9.870  0.00  0.00    +0.039 C 
ENDROOT
BRANCH   7  11
ATOM     11  C   UNL     1      -4.697 -12.974  14.231  0.00  0.00    -0.013 C 
ATOM     16  C   UNL     1      -6.113 -12.908  14.794  0.00  0.00    +0.007 C 
ATOM     17  C   UNL     1      -4.502 -14.243  13.406  0.00  0.00    +0.007 C 
ENDBRANCH   7  11
BRANCH   8  14
ATOM     14  C   UNL     1      -1.972 -11.347  14.025  0.00  0.00    +0.089 C 
BRANCH  14   3
ATOM      3  N   UNL     1      -2.543 -10.308  14.865  0.00  0.00    -0.311 NA
ATOM     34  H   UNL     1      -2.075  -9.420  14.689  0.00  0.00    +0.122 HD
BRANCH   3  20
ATOM     20  C   UNL     1      -2.416 -10.646  16.277  0.00  0.00    +0.116 C 
BRANCH  20  21
ATOM      6  N   UNL     1      -6.251 -10.968  18.197  0.00  0.00    -0.263 NA
ATOM     21  C   UNL     1      -3.759 -10.759  16.950  0.00  0.00    -0.031 A 
ATOM     23  C   UNL     1      -3.955 -11.689  17.964  0.00  0.00    +0.024 A 
ATOM     24  C   UNL     1      -4.807  -9.933  16.558  0.00  0.00    +0.024 A 
ATOM     26  C   UNL     1      -5.209 -11.753  18.551  0.00  0.00    +0.111 A 
ATOM     27  C   UNL     1      -6.023 -10.076  17.208  0.00  0.00    +0.111 A 
ENDBRANCH  20  21
ENDBRANCH   3  20
ENDBRANCH  14   3
ENDBRANCH   8  14
BRANCH  10  15
ATOM     15  C   UNL     1      -5.790  -9.185  11.996  0.00  0.00    +0.105 C 
BRANCH  15  19
ATOM      1  O   UNL     1      -7.279  -9.473  13.907  0.00  0.00    -0.420 OA
ATOM      4  N   UNL     1      -8.261  -9.801  11.924  0.00  0.00    -0.112 NA
ATOM      5  N   UNL     1      -9.211  -9.994  12.909  0.00  0.00    -0.107 NA
ATOM     19  C   UNL     1      -7.149  -9.498  12.553  0.00  0.00    +0.218 A 
ATOM     22  C   UNL     1      -8.594  -9.794  14.049  0.00  0.00    +0.248 A 
BRANCH  22  25
ATOM     25  C   UNL     1      -9.083  -9.858  15.396  0.00  0.00    +0.039 A 
ATOM     28  C   UNL     1      -9.368 -11.093  15.977  0.00  0.00    +0.017 A 
ATOM     29  C   UNL     1      -9.274  -8.684  16.125  0.00  0.00    +0.017 A 
ATOM     30  C   UNL     1      -9.844 -11.156  17.287  0.00  0.00    +0.046 A 
ATOM     31  C   UNL     1      -9.750  -8.747  17.435  0.00  0.00    +0.046 A 
ATOM     32  C   UNL     1     -10.035  -9.983  18.015  0.00  0.00    +0.120 A 
BRANCH  32   2
ATOM      2  O   UNL     1     -10.498 -10.043  19.294  0.00  0.00    -0.495 OA
ATOM     33  C   UNL     1     -10.151 -11.198  20.056  0.00  0.00    +0.277 C 
ENDBRANCH  32   2
ENDBRANCH  22  25
ENDBRANCH  15  19
ENDBRANCH  10  15
TORSDOF 9
ENDMDL
MODEL 2
REMARK VINA RESULT:      -5.8      3.306      5.259
REMARK  Name = 38030854
REMARK  13 active torsions:
REMARK  status: ('A' for Active; 'I' for Inactive)
REMARK    1  A    between atoms: O_2  and  C_32
REMARK    2  A    between atoms: O_2  and  C_33
REMARK    3  A    between atoms: N_3  and  C_14
REMARK    4  A    between atoms: N_3  and  C_20
REMARK    5  A    between atoms: C_7  and  C_11
REMARK    6  A    between atoms: C_8  and  C_14
REMARK    7  A    between atoms: C_10  and  C_15
REMARK    8  A    between atoms: C_11  and  C_16
REMARK    9  A    between atoms: C_11  and  C_17
REMARK   10  A    between atoms: C_12  and  C_18
REMARK   11  A    between atoms: C_15  and  C_19
REMARK   12  A    between atoms: C_20  and  C_21
REMARK   13  A    between atoms: C_22  and  C_25
REMARK                            x       y       z     vdW  Elec       q    Type
REMARK                         _______ _______ _______ _____ _____    ______ ____
ROOT
ATOM      7  C   UNL     1      -3.291 -12.262  13.580  0.00  0.00    +0.000 C 
ATOM      8  C   UNL     1      -1.874 -11.656  13.734  0.00  0.00    +0.029 C 
ATOM      9  C   UNL     1      -3.654 -12.405  12.094  0.00  0.00    +0.012 C 
ATOM     10  C   UNL     1      -3.618 -11.054  11.353  0.00  0.00    +0.024 C 
ATOM     12  C   UNL     1      -2.360 -10.272  11.670  0.00  0.00    -0.073 C 
ATOM     13  C   UNL     1      -1.586 -10.564  12.731  0.00  0.00    -0.023 C 
ATOM     18  C   UNL     1      -1.986  -9.174  10.713  0.00  0.00    +0.039 C 
ENDROOT
BRANCH   7  11
ATOM     11  C   UNL     1      -3.407 -13.622  14.275  0.00  0.00    -0.013 C 
ATOM     16  C   UNL     1      -4.689 -13.693  15.098  0.00  0.00    +0.007 C 
ATOM     17  C   UNL     1      -3.361 -14.749  13.248  0.00  0.00    +0.007 C 
ENDBRANCH   7  11
BRANCH   8  14
ATOM     14  C   UNL     1      -1.654 -11.117  15.152  0.00  0.00    +0.089 C 
BRANCH  14   3
ATOM      3  N   UNL     1      -2.795 -10.329  15.585  0.00  0.00    -0.311 NA
ATOM     34  H   UNL     1      -2.542  -9.343  15.632  0.00  0.00    +0.122 HD
BRANCH   3  20
ATOM     20  C   UNL     1      -3.270 -10.766  16.892  0.00  0.00    +0.116 C 
BRANCH  20  21
ATOM      6  N   UNL     1      -7.408  -9.770  17.509  0.00  0.00    -0.263 NA
ATOM     21  C   UNL     1      -4.719 -10.417  17.108  0.00  0.00    -0.031 A 
ATOM     23  C   UNL     1      -5.322 -10.671  18.335  0.00  0.00    +0.024 A 
ATOM     24  C   UNL     1      -5.458  -9.840  16.081  0.00  0.00    +0.024 A 
ATOM     26  C   UNL     1      -6.658 -10.332  18.483  0.00  0.00    +0.111 A 
ATOM     27  C   UNL     1      -6.787  -9.537  16.331  0.00  0.00    +0.111 A 
ENDBRANCH  20  21
ENDBRANCH   3  20
ENDBRANCH  14   3
ENDBRANCH   8  14
BRANCH  10  15
ATOM     15  C   UNL     1      -4.871 -10.225  11.656  0.00  0.00    +0.105 C 
BRANCH  15  19
ATOM      1  O   UNL     1      -6.589  -8.918  10.519  0.00  0.00    -0.420 OA
ATOM      4  N   UNL     1      -5.380 -10.219   9.160  0.00  0.00    -0.112 NA
ATOM      5  N   UNL     1      -6.307  -9.541   8.390  0.00  0.00    -0.107 NA
ATOM     19  C   UNL     1      -5.582  -9.823  10.396  0.00  0.00    +0.218 A 
ATOM     22  C   UNL     1      -6.991  -8.795   9.225  0.00  0.00    +0.248 A 
BRANCH  22  25
ATOM     25  C   UNL     1      -8.075  -7.886   8.987  0.00  0.00    +0.039 A 
ATOM     28  C   UNL     1      -7.844  -6.683   8.322  0.00  0.00    +0.017 A 
ATOM     29  C   UNL     1      -9.361  -8.206   9.424  0.00  0.00    +0.017 A 
ATOM     30  C   UNL     1      -8.897  -5.798   8.092  0.00  0.00    +0.046 A 
ATOM     31  C   UNL     1     -10.415  -7.321   9.194  0.00  0.00    +0.046 A 
ATOM     32  C   UNL     1     -10.183  -6.117   8.528  0.00  0.00    +0.120 A 
BRANCH  32   2
ATOM      2  O   UNL     1     -11.212  -5.256   8.303  0.00  0.00    -0.495 OA
ATOM     33  C   UNL     1     -11.211  -4.036   9.043  0.00  0.00    +0.277 C 
ENDBRANCH  32   2
ENDBRANCH  22  25
ENDBRANCH  15  19
ENDBRANCH  10  15
TORSDOF 9
ENDMDL
MODEL 3
REMARK VINA RESULT:      -5.6      3.472      5.676
REMARK  Name = 38030854
REMARK  13 active torsions:
REMARK  status: ('A' for Active; 'I' for Inactive)
REMARK    1  A    between atoms: O_2  and  C_32
REMARK    2  A    between atoms: O_2  and  C_33
REMARK    3  A    between atoms: N_3  and  C_14
REMARK    4  A    between atoms: N_3  and  C_20
REMARK    5  A    between atoms: C_7  and  C_11
REMARK    6  A    between atoms: C_8  and  C_14
REMARK    7  A    between atoms: C_10  and  C_15
REMARK    8  A    between atoms: C_11  and  C_16
REMARK    9  A    between atoms: C_11  and  C_17
REMARK   10  A    between atoms: C_12  and  C_18
REMARK   11  A    between atoms: C_15  and  C_19
REMARK   12  A    between atoms: C_20  and  C_21
REMARK   13  A    between atoms: C_22  and  C_25
REMARK                            x       y       z     vdW  Elec       q    Type
REMARK                         _______ _______ _______ _____ _____    ______ ____
ROOT
ATOM      7  C   UNL     1      -5.433 -10.703  17.774  0.00  0.00    +0.000 C 
ATOM      8  C   UNL     1      -4.631 -11.003  16.484  0.00  0.00    +0.029 C 
ATOM      9  C   UNL     1      -6.919 -11.037  17.572  0.00  0.00    +0.012 C 
ATOM     10  C   UNL     1      -7.543 -10.237  16.412  0.00  0.00    +0.024 C 
ATOM     12  C   UNL     1      -6.669 -10.265  15.175  0.00  0.00    -0.073 C 
ATOM     13  C   UNL     1      -5.373 -10.622  15.225  0.00  0.00    -0.023 C 
ATOM     18  C   UNL     1      -7.329  -9.915  13.870  0.00  0.00    +0.039 C 
ENDROOT
BRANCH   7  11
ATOM     11  C   UNL     1      -4.887 -11.477  18.978  0.00  0.00    -0.013 C 
ATOM     16  C   UNL     1      -5.874 -11.422  20.139  0.00  0.00    +0.007 C 
ATOM     17  C   UNL     1      -4.589 -12.922  18.589  0.00  0.00    +0.007 C 
ENDBRANCH   7  11
BRANCH   8  14
ATOM     14  C   UNL     1      -3.268 -10.302  16.505  0.00  0.00    +0.089 C 
BRANCH  14   3
ATOM      3  N   UNL     1      -2.201 -11.247  16.224  0.00  0.00    -0.311 NA
ATOM     34  H   UNL     1      -1.615 -11.370  17.049  0.00  0.00    +0.122 HD
BRANCH   3  20
ATOM     20  C   UNL     1      -1.374 -10.792  15.113  0.00  0.00    +0.116 C 
BRANCH  20  21
ATOM      6  N   UNL     1      -2.982 -12.010  11.315  0.00  0.00    -0.263 NA
ATOM     21  C   UNL     1      -1.937 -11.219  13.783  0.00  0.00    -0.031 A 
ATOM     23  C   UNL     1      -2.060 -10.297  12.749  0.00  0.00    +0.024 A 
ATOM     24  C   UNL     1      -2.337 -12.536  13.584  0.00  0.00    +0.024 A 
ATOM     26  C   UNL     1      -2.584 -10.739  11.545  0.00  0.00    +0.111 A 
ATOM     27  C   UNL     1      -2.848 -12.878  12.342  0.00  0.00    +0.111 A 
ENDBRANCH  20  21
ENDBRANCH   3  20
ENDBRANCH  14   3
ENDBRANCH   8  14
BRANCH  10  15
ATOM     15  C   UNL     1      -7.849  -8.797  16.836  0.00  0.00    +0.105 C 
BRANCH  15  19
ATOM      1  O   UNL     1      -9.890  -7.749  16.004  0.00  0.00    -0.420 OA
ATOM      4  N   UNL     1     -10.187  -9.018  17.823  0.00  0.00    -0.112 NA
ATOM      5  N   UNL     1     -11.414  -8.491  17.463  0.00  0.00    -0.107 NA
ATOM     19  C   UNL     1      -9.328  -8.558  16.943  0.00  0.00    +0.218 A 
ATOM     22  C   UNL     1     -11.193  -7.758  16.398  0.00  0.00    +0.248 A 
BRANCH  22  25
ATOM     25  C   UNL     1     -12.095  -6.979  15.600  0.00  0.00    +0.039 A 
ATOM     28  C   UNL     1     -11.617  -5.896  14.863  0.00  0.00    +0.017 A 
ATOM     29  C   UNL     1     -13.450  -7.305  15.562  0.00  0.00    +0.017 A 
ATOM     30  C   UNL     1     -12.494  -5.137  14.088  0.00  0.00    +0.046 A 
ATOM     31  C   UNL     1     -14.328  -6.546  14.787  0.00  0.00    +0.046 A 
ATOM     32  C   UNL     1     -13.849  -5.463  14.050  0.00  0.00    +0.120 A 
BRANCH  32   2
ATOM      2  O   UNL     1     -14.706  -4.724  13.292  0.00  0.00    -0.495 OA
ATOM     33  C   UNL     1     -15.604  -5.439  12.445  0.00  0.00    +0.277 C 
ENDBRANCH  32   2
ENDBRANCH  22  25
ENDBRANCH  15  19
ENDBRANCH  10  15
TORSDOF 9
ENDMDL
MODEL 4
REMARK VINA RESULT:      -5.6      2.503      7.198
REMARK  Name = 38030854
REMARK  13 active torsions:
REMARK  status: ('A' for Active; 'I' for Inactive)
REMARK    1  A    between atoms: O_2  and  C_32
REMARK    2  A    between atoms: O_2  and  C_33
REMARK    3  A    between atoms: N_3  and  C_14
REMARK    4  A    between atoms: N_3  and  C_20
REMARK    5  A    between atoms: C_7  and  C_11
REMARK    6  A    between atoms: C_8  and  C_14
REMARK    7  A    between atoms: C_10  and  C_15
REMARK    8  A    between atoms: C_11  and  C_16
REMARK    9  A    between atoms: C_11  and  C_17
REMARK   10  A    between atoms: C_12  and  C_18
REMARK   11  A    between atoms: C_15  and  C_19
REMARK   12  A    between atoms: C_20  and  C_21
REMARK   13  A    between atoms: C_22  and  C_25
REMARK                            x       y       z     vdW  Elec       q    Type
REMARK                         _______ _______ _______ _____ _____    ______ ____
ROOT
ATOM      7  C   UNL     1      -6.771 -11.999  16.197  0.00  0.00    +0.000 C 
ATOM      8  C   UNL     1      -7.221 -12.209  17.664  0.00  0.00    +0.029 C 
ATOM      9  C   UNL     1      -5.418 -12.684  15.948  0.00  0.00    +0.012 C 
ATOM     10  C   UNL     1      -4.314 -12.148  16.879  0.00  0.00    +0.024 C 
ATOM     12  C   UNL     1      -4.779 -12.072  18.319  0.00  0.00    -0.073 C 
ATOM     13  C   UNL     1      -6.082 -12.115  18.651  0.00  0.00    -0.023 C 
ATOM     18  C   UNL     1      -3.710 -11.992  19.374  0.00  0.00    +0.039 C 
ENDROOT
BRANCH   7  11
ATOM     11  C   UNL     1      -7.809 -12.526  15.202  0.00  0.00    -0.013 C 
ATOM     16  C   UNL     1      -7.468 -12.073  13.786  0.00  0.00    +0.007 C 
ATOM     17  C   UNL     1      -7.894 -14.047  15.278  0.00  0.00    +0.007 C 
ENDBRANCH   7  11
BRANCH   8  14
ATOM     14  C   UNL     1      -8.319 -11.213  18.054  0.00  0.00    +0.089 C 
BRANCH  14   3
ATOM      3  N   UNL     1      -7.752  -9.902  18.320  0.00  0.00    -0.311 NA
ATOM     34  H   UNL     1      -8.340  -9.394  18.980  0.00  0.00    +0.122 HD
BRANCH   3  20
ATOM     20  C   UNL     1      -7.626  -9.126  17.093  0.00  0.00    +0.116 C 
BRANCH  20  21
ATOM      6  N   UNL     1     -11.459  -7.900  15.573  0.00  0.00    -0.263 NA
ATOM     21  C   UNL     1      -8.968  -8.697  16.561  0.00  0.00    -0.031 A 
ATOM     23  C   UNL     1      -9.354  -9.051  15.273  0.00  0.00    +0.024 A 
ATOM     24  C   UNL     1      -9.826  -7.944  17.356  0.00  0.00    +0.024 A 
ATOM     26  C   UNL     1     -10.598  -8.631  14.830  0.00  0.00    +0.111 A 
ATOM     27  C   UNL     1     -11.050  -7.575  16.820  0.00  0.00    +0.111 A 
ENDBRANCH  20  21
ENDBRANCH   3  20
ENDBRANCH  14   3
ENDBRANCH   8  14
BRANCH  10  15
ATOM     15  C   UNL     1      -3.797 -10.787  16.397  0.00  0.00    +0.105 C 
BRANCH  15  19
ATOM      1  O   UNL     1      -3.926 -10.573  13.970  0.00  0.00    -0.420 OA
ATOM      4  N   UNL     1      -1.933 -11.253  14.725  0.00  0.00    -0.112 NA
ATOM      5  N   UNL     1      -1.865 -11.176  13.347  0.00  0.00    -0.107 NA
ATOM     19  C   UNL     1      -3.154 -10.892  15.044  0.00  0.00    +0.218 A 
ATOM     22  C   UNL     1      -3.049 -10.776  12.949  0.00  0.00    +0.248 A 
BRANCH  22  25
ATOM     25  C   UNL     1      -3.552 -10.523  11.630  0.00  0.00    +0.039 A 
ATOM     28  C   UNL     1      -3.076  -9.436  10.898  0.00  0.00    +0.017 A 
ATOM     29  C   UNL     1      -4.520 -11.364  11.080  0.00  0.00    +0.017 A 
ATOM     30  C   UNL     1      -3.566  -9.189   9.615  0.00  0.00    +0.046 A 
ATOM     31  C   UNL     1      -5.011 -11.117   9.798  0.00  0.00    +0.046 A 
ATOM     32  C   UNL     1      -4.533 -10.030   9.065  0.00  0.00    +0.120 A 
BRANCH  32   2
ATOM      2  O   UNL     1      -5.011  -9.791   7.814  0.00  0.00    -0.495 OA
ATOM     33  C   UNL     1      -6.394  -9.461   7.699  0.00  0.00    +0.277 C 
ENDBRANCH  32   2
ENDBRANCH  22  25
ENDBRANCH  15  19
ENDBRANCH  10  15
TORSDOF 9
ENDMDL
MODEL 5
REMARK VINA RESULT:      -5.5     25.746     30.173
REMARK  Name = 38030854
REMARK  13 active torsions:
REMARK  status: ('A' for Active; 'I' for Inactive)
REMARK    1  A    between atoms: O_2  and  C_32
REMARK    2  A    between atoms: O_2  and  C_33
REMARK    3  A    between atoms: N_3  and  C_14
REMARK    4  A    between atoms: N_3  and  C_20
REMARK    5  A    between atoms: C_7  and  C_11
REMARK    6  A    between atoms: C_8  and  C_14
REMARK    7  A    between atoms: C_10  and  C_15
REMARK    8  A    between atoms: C_11  and  C_16
REMARK    9  A    between atoms: C_11  and  C_17
REMARK   10  A    between atoms: C_12  and  C_18
REMARK   11  A    between atoms: C_15  and  C_19
REMARK   12  A    between atoms: C_20  and  C_21
REMARK   13  A    between atoms: C_22  and  C_25
REMARK                            x       y       z     vdW  Elec       q    Type
REMARK                         _______ _______ _______ _____ _____    ______ ____
ROOT
ATOM      7  C   UNL     1      10.726   6.078   5.541  0.00  0.00    +0.000 C 
ATOM      8  C   UNL     1      10.726   5.890   4.004  0.00  0.00    +0.029 C 
ATOM      9  C   UNL     1      11.072   7.530   5.904  0.00  0.00    +0.012 C 
ATOM     10  C   UNL     1      12.449   7.955   5.360  0.00  0.00    +0.024 C 
ATOM     12  C   UNL     1      12.627   7.559   3.908  0.00  0.00    -0.073 C 
ATOM     13  C   UNL     1      11.839   6.644   3.316  0.00  0.00    -0.023 C 
ATOM     18  C   UNL     1      13.705   8.272   3.139  0.00  0.00    +0.039 C 
ENDROOT
BRANCH   7  11
ATOM     11  C   UNL     1       9.379   5.695   6.162  0.00  0.00    -0.013 C 
ATOM     16  C   UNL     1       9.428   5.849   7.679  0.00  0.00    +0.007 C 
ATOM     17  C   UNL     1       8.260   6.544   5.568  0.00  0.00    +0.007 C 
ENDBRANCH   7  11
BRANCH   8  14
ATOM     14  C   UNL     1      10.806   4.406   3.628  0.00  0.00    +0.089 C 
BRANCH  14   3
ATOM      3  N   UNL     1      11.202   4.249   2.240  0.00  0.00    -0.311 NA
ATOM     34  H   UNL     1      10.382   4.082   1.658  0.00  0.00    +0.122 HD
BRANCH   3  20
ATOM     20  C   UNL     1      12.135   3.140   2.082  0.00  0.00    +0.116 C 
BRANCH  20  21
ATOM      6  N   UNL     1      15.298   4.086  -0.675  0.00  0.00    -0.263 NA
ATOM     21  C   UNL     1      13.242   3.471   1.117  0.00  0.00    -0.031 A 
ATOM     23  C   UNL     1      14.549   3.607   1.573  0.00  0.00    +0.024 A 
ATOM     24  C   UNL     1      12.962   3.642  -0.235  0.00  0.00    +0.024 A 
ATOM     26  C   UNL     1      15.531   3.913   0.645  0.00  0.00    +0.111 A 
ATOM     27  C   UNL     1      14.016   3.945  -1.082  0.00  0.00    +0.111 A 
ENDBRANCH  20  21
ENDBRANCH   3  20
ENDBRANCH  14   3
ENDBRANCH   8  14
BRANCH  10  15
ATOM     15  C   UNL     1      13.582   7.392   6.226  0.00  0.00    +0.105 C 
BRANCH  15  19
ATOM      1  O   UNL     1      15.967   7.710   5.820  0.00  0.00    -0.420 OA
ATOM      4  N   UNL     1      14.896   9.559   6.481  0.00  0.00    -0.112 NA
ATOM      5  N   UNL     1      16.226   9.881   6.289  0.00  0.00    -0.107 NA
ATOM     19  C   UNL     1      14.791   8.282   6.195  0.00  0.00    +0.218 A 
ATOM     22  C   UNL     1      16.813   8.772   5.905  0.00  0.00    +0.248 A 
BRANCH  22  25
ATOM     25  C   UNL     1      18.182   8.512   5.567  0.00  0.00    +0.039 A 
ATOM     28  C   UNL     1      19.181   8.669   6.528  0.00  0.00    +0.017 A 
ATOM     29  C   UNL     1      18.516   8.104   4.275  0.00  0.00    +0.017 A 
ATOM     30  C   UNL     1      20.513   8.417   6.199  0.00  0.00    +0.046 A 
ATOM     31  C   UNL     1      19.848   7.853   3.945  0.00  0.00    +0.046 A 
ATOM     32  C   UNL     1      20.846   8.009   4.907  0.00  0.00    +0.120 A 
BRANCH  32   2
ATOM      2  O   UNL     1      22.145   7.762   4.586  0.00  0.00    -0.495 OA
ATOM     33  C   UNL     1      23.141   8.501   5.291  0.00  0.00    +0.277 C 
ENDBRANCH  32   2
ENDBRANCH  22  25
ENDBRANCH  15  19
ENDBRANCH  10  15
TORSDOF 9
ENDMDL
MODEL 6
REMARK VINA RESULT:      -5.5     24.311     28.392
REMARK  Name = 38030854
REMARK  13 active torsions:
REMARK  status: ('A' for Active; 'I' for Inactive)
REMARK    1  A    between atoms: O_2  and  C_32
REMARK    2  A    between atoms: O_2  and  C_33
REMARK    3  A    between atoms: N_3  and  C_14
REMARK    4  A    between atoms: N_3  and  C_20
REMARK    5  A    between atoms: C_7  and  C_11
REMARK    6  A    between atoms: C_8  and  C_14
REMARK    7  A    between atoms: C_10  and  C_15
REMARK    8  A    between atoms: C_11  and  C_16
REMARK    9  A    between atoms: C_11  and  C_17
REMARK   10  A    between atoms: C_12  and  C_18
REMARK   11  A    between atoms: C_15  and  C_19
REMARK   12  A    between atoms: C_20  and  C_21
REMARK   13  A    between atoms: C_22  and  C_25
REMARK                            x       y       z     vdW  Elec       q    Type
REMARK                         _______ _______ _______ _____ _____    ______ ____
ROOT
ATOM      7  C   UNL     1       8.967   8.381   5.068  0.00  0.00    +0.000 C 
ATOM      8  C   UNL     1       8.566   8.222   6.556  0.00  0.00    +0.029 C 
ATOM      9  C   UNL     1       8.757   7.060   4.312  0.00  0.00    +0.012 C 
ATOM     10  C   UNL     1       9.577   5.905   4.918  0.00  0.00    +0.024 C 
ATOM     12  C   UNL     1       9.443   5.851   6.426  0.00  0.00    -0.073 C 
ATOM     13  C   UNL     1       8.976   6.891   7.140  0.00  0.00    -0.023 C 
ATOM     18  C   UNL     1       9.814   4.555   7.093  0.00  0.00    +0.039 C 
ENDROOT
BRANCH   7  11
ATOM     11  C   UNL     1       8.179   9.502   4.383  0.00  0.00    -0.013 C 
ATOM     16  C   UNL     1       9.070  10.719   4.158  0.00  0.00    +0.007 C 
ATOM     17  C   UNL     1       7.593   9.009   3.063  0.00  0.00    +0.007 C 
ENDBRANCH   7  11
BRANCH   8  14
ATOM     14  C   UNL     1       9.146   9.355   7.409  0.00  0.00    +0.089 C 
BRANCH  14   3
ATOM      3  N   UNL     1      10.456   8.992   7.923  0.00  0.00    -0.311 NA
ATOM     34  H   UNL     1      10.464   9.059   8.940  0.00  0.00    +0.122 HD
BRANCH   3  20
ATOM     20  C   UNL     1      11.493   9.859   7.376  0.00  0.00    +0.116 C 
BRANCH  20  21
ATOM      6  N   UNL     1      15.041   7.657   6.348  0.00  0.00    -0.263 NA
ATOM     21  C   UNL     1      12.736   9.088   7.016  0.00  0.00    -0.031 A 
ATOM     23  C   UNL     1      12.749   7.701   7.113  0.00  0.00    +0.024 A 
ATOM     24  C   UNL     1      13.874   9.761   6.585  0.00  0.00    +0.024 A 
ATOM     26  C   UNL     1      13.916   7.038   6.770  0.00  0.00    +0.111 A 
ATOM     27  C   UNL     1      14.991   9.005   6.266  0.00  0.00    +0.111 A 
ENDBRANCH  20  21
ENDBRANCH   3  20
ENDBRANCH  14   3
ENDBRANCH   8  14
BRANCH  10  15
ATOM     15  C   UNL     1      11.049   5.995   4.501  0.00  0.00    +0.105 C 
BRANCH  15  19
ATOM      1  O   UNL     1      12.536   5.347   2.679  0.00  0.00    -0.420 OA
ATOM      4  N   UNL     1      10.551   4.318   2.650  0.00  0.00    -0.112 NA
ATOM      5  N   UNL     1      11.285   3.860   1.572  0.00  0.00    -0.107 NA
ATOM     19  C   UNL     1      11.321   5.183   3.268  0.00  0.00    +0.218 A 
ATOM     22  C   UNL     1      12.436   4.488   1.628  0.00  0.00    +0.248 A 
BRANCH  22  25
ATOM     25  C   UNL     1      13.582   4.410   0.770  0.00  0.00    +0.039 A 
ATOM     28  C   UNL     1      14.772   3.857   1.243  0.00  0.00    +0.017 A 
ATOM     29  C   UNL     1      13.507   4.888  -0.539  0.00  0.00    +0.017 A 
ATOM     30  C   UNL     1      15.887   3.781   0.409  0.00  0.00    +0.046 A 
ATOM     31  C   UNL     1      14.623   4.813  -1.373  0.00  0.00    +0.046 A 
ATOM     32  C   UNL     1      15.813   4.259  -0.899  0.00  0.00    +0.120 A 
BRANCH  32   2
ATOM      2  O   UNL     1      16.900   4.185  -1.714  0.00  0.00    -0.495 OA
ATOM     33  C   UNL     1      16.841   4.907  -2.943  0.00  0.00    +0.277 C 
ENDBRANCH  32   2
ENDBRANCH  22  25
ENDBRANCH  15  19
ENDBRANCH  10  15
TORSDOF 9
ENDMDL
MODEL 7
REMARK VINA RESULT:      -5.5     28.499     31.461
REMARK  Name = 38030854
REMARK  13 active torsions:
REMARK  status: ('A' for Active; 'I' for Inactive)
REMARK    1  A    between atoms: O_2  and  C_32
REMARK    2  A    between atoms: O_2  and  C_33
REMARK    3  A    between atoms: N_3  and  C_14
REMARK    4  A    between atoms: N_3  and  C_20
REMARK    5  A    between atoms: C_7  and  C_11
REMARK    6  A    between atoms: C_8  and  C_14
REMARK    7  A    between atoms: C_10  and  C_15
REMARK    8  A    between atoms: C_11  and  C_16
REMARK    9  A    between atoms: C_11  and  C_17
REMARK   10  A    between atoms: C_12  and  C_18
REMARK   11  A    between atoms: C_15  and  C_19
REMARK   12  A    between atoms: C_20  and  C_21
REMARK   13  A    between atoms: C_22  and  C_25
REMARK                            x       y       z     vdW  Elec       q    Type
REMARK                         _______ _______ _______ _____ _____    ______ ____
ROOT
ATOM      7  C   UNL     1      21.485   6.467  22.259  0.00  0.00    +0.000 C 
ATOM      8  C   UNL     1      21.621   5.248  21.314  0.00  0.00    +0.029 C 
ATOM      9  C   UNL     1      20.043   6.589  22.773  0.00  0.00    +0.012 C 
ATOM     10  C   UNL     1      19.026   6.745  21.627  0.00  0.00    +0.024 C 
ATOM     12  C   UNL     1      19.267   5.738  20.521  0.00  0.00    -0.073 C 
ATOM     13  C   UNL     1      20.428   5.069  20.405  0.00  0.00    -0.023 C 
ATOM     18  C   UNL     1      18.125   5.483  19.575  0.00  0.00    +0.039 C 
ENDROOT
BRANCH   7  11
ATOM     11  C   UNL     1      22.453   6.381  23.443  0.00  0.00    -0.013 C 
ATOM     16  C   UNL     1      22.253   7.567  24.382  0.00  0.00    +0.007 C 
ATOM     17  C   UNL     1      22.264   5.063  24.188  0.00  0.00    +0.007 C 
ENDBRANCH   7  11
BRANCH   8  14
ATOM     14  C   UNL     1      22.897   5.341  20.470  0.00  0.00    +0.089 C 
BRANCH  14   3
ATOM      3  N   UNL     1      23.416   4.016  20.177  0.00  0.00    -0.311 NA
ATOM     34  H   UNL     1      23.088   3.706  19.263  0.00  0.00    +0.122 HD
BRANCH   3  20
ATOM     20  C   UNL     1      23.001   3.053  21.189  0.00  0.00    +0.116 C 
BRANCH  20  21
ATOM      6  N   UNL     1      26.363   1.038  22.959  0.00  0.00    -0.263 NA
ATOM     21  C   UNL     1      24.178   2.348  21.809  0.00  0.00    -0.031 A 
ATOM     23  C   UNL     1      24.501   1.053  21.418  0.00  0.00    +0.024 A 
ATOM     24  C   UNL     1      24.947   2.989  22.775  0.00  0.00    +0.024 A 
ATOM     26  C   UNL     1      25.594   0.448  22.018  0.00  0.00    +0.111 A 
ATOM     27  C   UNL     1      26.019   2.297  23.314  0.00  0.00    +0.111 A 
ENDBRANCH  20  21
ENDBRANCH   3  20
ENDBRANCH  14   3
ENDBRANCH   8  14
BRANCH  10  15
ATOM     15  C   UNL     1      19.028   8.175  21.076  0.00  0.00    +0.105 C 
BRANCH  15  19
ATOM      1  O   UNL     1      16.783   8.232  20.124  0.00  0.00    -0.420 OA
ATOM      4  N   UNL     1      17.115   9.705  21.774  0.00  0.00    -0.112 NA
ATOM      5  N   UNL     1      15.813   9.846  21.332  0.00  0.00    -0.107 NA
ATOM     19  C   UNL     1      17.643   8.753  21.041  0.00  0.00    +0.218 A 
ATOM     22  C   UNL     1      15.664   8.968  20.369  0.00  0.00    +0.248 A 
BRANCH  22  25
ATOM     25  C   UNL     1      14.525   8.668  19.551  0.00  0.00    +0.039 A 
ATOM     28  C   UNL     1      13.930   7.408  19.617  0.00  0.00    +0.017 A 
ATOM     29  C   UNL     1      14.013   9.636  18.687  0.00  0.00    +0.017 A 
ATOM     30  C   UNL     1      12.822   7.116  18.821  0.00  0.00    +0.046 A 
ATOM     31  C   UNL     1      12.905   9.344  17.890  0.00  0.00    +0.046 A 
ATOM     32  C   UNL     1      12.310   8.084  17.957  0.00  0.00    +0.120 A 
BRANCH  32   2
ATOM      2  O   UNL     1      11.229   7.800  17.181  0.00  0.00    -0.495 OA
ATOM     33  C   UNL     1      10.782   8.823  16.292  0.00  0.00    +0.277 C 
ENDBRANCH  32   2
ENDBRANCH  22  25
ENDBRANCH  15  19
ENDBRANCH  10  15
TORSDOF 9
ENDMDL
MODEL 8
REMARK VINA RESULT:      -5.4      3.637      6.538
REMARK  Name = 38030854
REMARK  13 active torsions:
REMARK  status: ('A' for Active; 'I' for Inactive)
REMARK    1  A    between atoms: O_2  and  C_32
REMARK    2  A    between atoms: O_2  and  C_33
REMARK    3  A    between atoms: N_3  and  C_14
REMARK    4  A    between atoms: N_3  and  C_20
REMARK    5  A    between atoms: C_7  and  C_11
REMARK    6  A    between atoms: C_8  and  C_14
REMARK    7  A    between atoms: C_10  and  C_15
REMARK    8  A    between atoms: C_11  and  C_16
REMARK    9  A    between atoms: C_11  and  C_17
REMARK   10  A    between atoms: C_12  and  C_18
REMARK   11  A    between atoms: C_15  and  C_19
REMARK   12  A    between atoms: C_20  and  C_21
REMARK   13  A    between atoms: C_22  and  C_25
REMARK                            x       y       z     vdW  Elec       q    Type
REMARK                         _______ _______ _______ _____ _____    ______ ____
ROOT
ATOM      7  C   UNL     1      -3.843 -12.116  13.409  0.00  0.00    +0.000 C 
ATOM      8  C   UNL     1      -2.347 -11.736  13.286  0.00  0.00    +0.029 C 
ATOM      9  C   UNL     1      -4.498 -12.172  12.021  0.00  0.00    +0.012 C 
ATOM     10  C   UNL     1      -4.396 -10.828  11.274  0.00  0.00    +0.024 C 
ATOM     12  C   UNL     1      -2.995 -10.253  11.339  0.00  0.00    -0.073 C 
ATOM     13  C   UNL     1      -2.089 -10.681  12.237  0.00  0.00    -0.023 C 
ATOM     18  C   UNL     1      -2.644  -9.206  10.318  0.00  0.00    +0.039 C 
ENDROOT
BRANCH   7  11
ATOM     11  C   UNL     1      -4.033 -13.457  14.126  0.00  0.00    -0.013 C 
ATOM     16  C   UNL     1      -5.347 -13.465  14.900  0.00  0.00    +0.007 C 
ATOM     17  C   UNL     1      -3.987 -14.606  13.124  0.00  0.00    +0.007 C 
ENDBRANCH   7  11
BRANCH   8  14
ATOM     14  C   UNL     1      -1.783 -11.266  14.632  0.00  0.00    +0.089 C 
BRANCH  14   3
ATOM      3  N   UNL     1      -2.672 -10.298  15.251  0.00  0.00    -0.311 NA
ATOM     34  H   UNL     1      -2.235  -9.378  15.262  0.00  0.00    +0.122 HD
BRANCH   3  20
ATOM     20  C   UNL     1      -3.004 -10.688  16.616  0.00  0.00    +0.116 C 
BRANCH  20  21
ATOM      6  N   UNL     1      -7.151  -9.992  17.516  0.00  0.00    -0.263 NA
ATOM     21  C   UNL     1      -4.456 -10.445  16.931  0.00  0.00    -0.031 A 
ATOM     23  C   UNL     1      -5.287  -9.858  15.983  0.00  0.00    +0.024 A 
ATOM     24  C   UNL     1      -4.971 -10.805  18.172  0.00  0.00    +0.024 A 
ATOM     26  C   UNL     1      -6.615  -9.655  16.322  0.00  0.00    +0.111 A 
ATOM     27  C   UNL     1      -6.314 -10.560  18.413  0.00  0.00    +0.111 A 
ENDBRANCH  20  21
ENDBRANCH   3  20
ENDBRANCH  14   3
ENDBRANCH   8  14
BRANCH  10  15
ATOM     15  C   UNL     1      -5.426  -9.824  11.801  0.00  0.00    +0.105 C 
BRANCH  15  19
ATOM      1  O   UNL     1      -6.171  -9.755   9.479  0.00  0.00    -0.420 OA
ATOM      4  N   UNL     1      -7.729  -9.133  10.958  0.00  0.00    -0.112 NA
ATOM      5  N   UNL     1      -8.282  -9.047   9.695  0.00  0.00    -0.107 NA
ATOM     19  C   UNL     1      -6.496  -9.550  10.784  0.00  0.00    +0.218 A 
ATOM     22  C   UNL     1      -7.338  -9.419   8.863  0.00  0.00    +0.248 A 
BRANCH  22  25
ATOM     25  C   UNL     1      -7.345  -9.524   7.433  0.00  0.00    +0.039 A 
ATOM     28  C   UNL     1      -7.125 -10.759   6.822  0.00  0.00    +0.017 A 
ATOM     29  C   UNL     1      -7.571  -8.391   6.651  0.00  0.00    +0.017 A 
ATOM     30  C   UNL     1      -7.131 -10.862   5.431  0.00  0.00    +0.046 A 
ATOM     31  C   UNL     1      -7.577  -8.493   5.259  0.00  0.00    +0.046 A 
ATOM     32  C   UNL     1      -7.357  -9.729   4.650  0.00  0.00    +0.120 A 
BRANCH  32   2
ATOM      2  O   UNL     1      -7.364  -9.828   3.293  0.00  0.00    -0.495 OA
ATOM     33  C   UNL     1      -7.737 -11.088   2.736  0.00  0.00    +0.277 C 
ENDBRANCH  32   2
ENDBRANCH  22  25
ENDBRANCH  15  19
ENDBRANCH  10  15
TORSDOF 9
ENDMDL
MODEL 9
REMARK VINA RESULT:      -5.4      2.567      4.938
REMARK  Name = 38030854
REMARK  13 active torsions:
REMARK  status: ('A' for Active; 'I' for Inactive)
REMARK    1  A    between atoms: O_2  and  C_32
REMARK    2  A    between atoms: O_2  and  C_33
REMARK    3  A    between atoms: N_3  and  C_14
REMARK    4  A    between atoms: N_3  and  C_20
REMARK    5  A    between atoms: C_7  and  C_11
REMARK    6  A    between atoms: C_8  and  C_14
REMARK    7  A    between atoms: C_10  and  C_15
REMARK    8  A    between atoms: C_11  and  C_16
REMARK    9  A    between atoms: C_11  and  C_17
REMARK   10  A    between atoms: C_12  and  C_18
REMARK   11  A    between atoms: C_15  and  C_19
REMARK   12  A    between atoms: C_20  and  C_21
REMARK   13  A    between atoms: C_22  and  C_25
REMARK                            x       y       z     vdW  Elec       q    Type
REMARK                         _______ _______ _______ _____ _____    ______ ____
ROOT
ATOM      7  C   UNL     1      -5.519 -10.720  17.692  0.00  0.00    +0.000 C 
ATOM      8  C   UNL     1      -4.682 -11.005  16.421  0.00  0.00    +0.029 C 
ATOM      9  C   UNL     1      -6.984 -11.124  17.471  0.00  0.00    +0.012 C 
ATOM     10  C   UNL     1      -7.624 -10.373  16.287  0.00  0.00    +0.024 C 
ATOM     12  C   UNL     1      -6.727 -10.382  15.066  0.00  0.00    -0.073 C 
ATOM     13  C   UNL     1      -5.417 -10.679  15.143  0.00  0.00    -0.023 C 
ATOM     18  C   UNL     1      -7.379 -10.084  13.744  0.00  0.00    +0.039 C 
ENDROOT
BRANCH   7  11
ATOM     11  C   UNL     1      -4.960 -11.449  18.918  0.00  0.00    -0.013 C 
ATOM     16  C   UNL     1      -5.920 -11.323  20.097  0.00  0.00    +0.007 C 
ATOM     17  C   UNL     1      -4.695 -12.915  18.590  0.00  0.00    +0.007 C 
ENDBRANCH   7  11
BRANCH   8  14
ATOM     14  C   UNL     1      -3.352 -10.243  16.453  0.00  0.00    +0.089 C 
BRANCH  14   3
ATOM      3  N   UNL     1      -2.232 -11.167  16.495  0.00  0.00    -0.311 NA
ATOM     34  H   UNL     1      -1.734 -11.075  17.380  0.00  0.00    +0.122 HD
BRANCH   3  20
ATOM     20  C   UNL     1      -1.306 -10.921  15.396  0.00  0.00    +0.116 C 
BRANCH  20  21
ATOM      6  N   UNL     1      -2.888 -12.280  11.634  0.00  0.00    -0.263 NA
ATOM     21  C   UNL     1      -1.860 -11.397  14.079  0.00  0.00    -0.031 A 
ATOM     23  C   UNL     1      -2.183 -12.737  13.901  0.00  0.00    +0.024 A 
ATOM     24  C   UNL     1      -2.050 -10.497  13.035  0.00  0.00    +0.024 A 
ATOM     26  C   UNL     1      -2.690 -13.124  12.671  0.00  0.00    +0.111 A 
ATOM     27  C   UNL     1      -2.563 -10.985  11.844  0.00  0.00    +0.111 A 
ENDBRANCH  20  21
ENDBRANCH   3  20
ENDBRANCH  14   3
ENDBRANCH   8  14
BRANCH  10  15
ATOM     15  C   UNL     1      -8.002  -8.941  16.681  0.00  0.00    +0.105 C 
BRANCH  15  19
ATOM      1  O   UNL     1     -10.093  -9.352  17.868  0.00  0.00    -0.420 OA
ATOM      4  N   UNL     1     -10.324  -8.151  15.996  0.00  0.00    -0.112 NA
ATOM      5  N   UNL     1     -11.576  -8.306  16.561  0.00  0.00    -0.107 NA
ATOM     19  C   UNL     1      -9.490  -8.777  16.792  0.00  0.00    +0.218 A 
ATOM     22  C   UNL     1     -11.393  -9.013  17.651  0.00  0.00    +0.248 A 
BRANCH  22  25
ATOM     25  C   UNL     1     -12.334  -9.475  18.629  0.00  0.00    +0.039 A 
ATOM     28  C   UNL     1     -11.890  -9.876  19.890  0.00  0.00    +0.017 A 
ATOM     29  C   UNL     1     -13.693  -9.526  18.321  0.00  0.00    +0.017 A 
ATOM     30  C   UNL     1     -12.805 -10.326  20.842  0.00  0.00    +0.046 A 
ATOM     31  C   UNL     1     -14.608  -9.977  19.273  0.00  0.00    +0.046 A 
ATOM     32  C   UNL     1     -14.164 -10.377  20.533  0.00  0.00    +0.120 A 
BRANCH  32   2
ATOM      2  O   UNL     1     -15.057 -10.815  21.462  0.00  0.00    -0.495 OA
ATOM     33  C   UNL     1     -14.932 -12.168  21.895  0.00  0.00    +0.277 C 
ENDBRANCH  32   2
ENDBRANCH  22  25
ENDBRANCH  15  19
ENDBRANCH  10  15
TORSDOF 9
ENDMDL
MODEL 10
REMARK VINA RESULT:      -5.2     23.176     27.396
REMARK  Name = 38030854
REMARK  13 active torsions:
REMARK  status: ('A' for Active; 'I' for Inactive)
REMARK    1  A    between atoms: O_2  and  C_32
REMARK    2  A    between atoms: O_2  and  C_33
REMARK    3  A    between atoms: N_3  and  C_14
REMARK    4  A    between atoms: N_3  and  C_20
REMARK    5  A    between atoms: C_7  and  C_11
REMARK    6  A    between atoms: C_8  and  C_14
REMARK    7  A    between atoms: C_10  and  C_15
REMARK    8  A    between atoms: C_11  and  C_16
REMARK    9  A    between atoms: C_11  and  C_17
REMARK   10  A    between atoms: C_12  and  C_18
REMARK   11  A    between atoms: C_15  and  C_19
REMARK   12  A    between atoms: C_20  and  C_21
REMARK   13  A    between atoms: C_22  and  C_25
REMARK                            x       y       z     vdW  Elec       q    Type
REMARK                         _______ _______ _______ _____ _____    ______ ____
ROOT
ATOM      7  C   UNL     1      11.480   8.275   5.213  0.00  0.00    +0.000 C 
ATOM      8  C   UNL     1      10.540   9.505   5.270  0.00  0.00    +0.029 C 
ATOM      9  C   UNL     1      11.823   7.930   3.755  0.00  0.00    +0.012 C 
ATOM     10  C   UNL     1      10.567   7.624   2.917  0.00  0.00    +0.024 C 
ATOM     12  C   UNL     1       9.483   8.661   3.130  0.00  0.00    -0.073 C 
ATOM     13  C   UNL     1       9.495   9.502   4.181  0.00  0.00    -0.023 C 
ATOM     18  C   UNL     1       8.406   8.741   2.083  0.00  0.00    +0.039 C 
ENDROOT
BRANCH   7  11
ATOM     11  C   UNL     1      12.768   8.504   6.008  0.00  0.00    -0.013 C 
ATOM     16  C   UNL     1      13.031   7.331   6.947  0.00  0.00    +0.007 C 
ATOM     17  C   UNL     1      13.946   8.715   5.063  0.00  0.00    +0.007 C 
ENDBRANCH   7  11
BRANCH   8  14
ATOM     14  C   UNL     1       9.854   9.613   6.636  0.00  0.00    +0.089 C 
BRANCH  14   3
ATOM      3  N   UNL     1       8.886   8.544   6.811  0.00  0.00    -0.311 NA
ATOM     34  H   UNL     1       7.941   8.904   6.687  0.00  0.00    +0.122 HD
BRANCH   3  20
ATOM     20  C   UNL     1       9.001   7.942   8.134  0.00  0.00    +0.116 C 
BRANCH  20  21
ATOM      6  N   UNL     1       9.793   3.721   7.908  0.00  0.00    -0.263 NA
ATOM     21  C   UNL     1       9.278   6.464   8.055  0.00  0.00    -0.031 A 
ATOM     23  C   UNL     1       9.545   5.868   6.827  0.00  0.00    +0.024 A 
ATOM     24  C   UNL     1       9.268   5.689   9.210  0.00  0.00    +0.024 A 
ATOM     26  C   UNL     1       9.794   4.505   6.808  0.00  0.00    +0.111 A 
ATOM     27  C   UNL     1       9.530   4.334   9.084  0.00  0.00    +0.111 A 
ENDBRANCH  20  21
ENDBRANCH   3  20
ENDBRANCH  14   3
ENDBRANCH   8  14
BRANCH  10  15
ATOM     15  C   UNL     1      10.041   6.214   3.204  0.00  0.00    +0.105 C 
BRANCH  15  19
ATOM      1  O   UNL     1      10.526   5.237   1.022  0.00  0.00    -0.420 OA
ATOM      4  N   UNL     1      11.550   4.217   2.729  0.00  0.00    -0.112 NA
ATOM      5  N   UNL     1      11.911   3.567   1.564  0.00  0.00    -0.107 NA
ATOM     19  C   UNL     1      10.741   5.185   2.364  0.00  0.00    +0.218 A 
ATOM     22  C   UNL     1      11.290   4.195   0.594  0.00  0.00    +0.248 A 
BRANCH  22  25
ATOM     25  C   UNL     1      11.293   3.958  -0.820  0.00  0.00    +0.039 A 
ATOM     28  C   UNL     1      10.484   4.725  -1.658  0.00  0.00    +0.017 A 
ATOM     29  C   UNL     1      12.103   2.958  -1.358  0.00  0.00    +0.017 A 
ATOM     30  C   UNL     1      10.485   4.495  -3.034  0.00  0.00    +0.046 A 
ATOM     31  C   UNL     1      12.105   2.727  -2.734  0.00  0.00    +0.046 A 
ATOM     32  C   UNL     1      11.296   3.495  -3.572  0.00  0.00    +0.120 A 
BRANCH  32   2
ATOM      2  O   UNL     1      11.299   3.270  -4.914  0.00  0.00    -0.495 OA
ATOM     33  C   UNL     1      10.077   2.825  -5.501  0.00  0.00    +0.277 C 
ENDBRANCH  32   2
ENDBRANCH  22  25
ENDBRANCH  15  19
ENDBRANCH  10  15
TORSDOF 9
ENDMDL
