REMARK  Name = 11882576
REMARK  11 active torsions:
REMARK  status: ('A' for Active; 'I' for Inactive)
REMARK    1  A    between atoms: O_2  and  C_13
REMARK    2  A    between atoms: O_3  and  C_16
REMARK    3  A    between atoms: O_4  and  C_18
REMARK    4  A    between atoms: O_8  and  C_32
REMARK    5  A    between atoms: N_9  and  C_14
REMARK    6  A    between atoms: N_10  and  C_20
REMARK    7  A    between atoms: N_11  and  C_25
REMARK    8  A    between atoms: C_13  and  C_19
REMARK    9  A    between atoms: C_20  and  C_22
REMARK   10  A    between atoms: C_20  and  C_23
REMARK   11  A    between atoms: C_22  and  C_24
REMARK                            x       y       z     vdW  Elec       q    Type
REMARK                         _______ _______ _______ _____ _____    ______ ____
ROOT
ATOM     13  C   UNL     1      -1.973  -1.797   0.900  0.00  0.00    +0.146 C 
ATOM     14  C   UNL     1       0.304  -2.255  -0.131  0.00  0.00    +0.109 C 
ATOM     15  C   UNL     1      -0.692  -1.185   0.330  0.00  0.00    +0.069 C 
ATOM     16  C   UNL     1      -0.337  -3.249  -1.108  0.00  0.00    +0.163 C 
ATOM     17  C   UNL     1      -2.611  -2.769  -0.090  0.00  0.00    +0.078 C 
ATOM     18  C   UNL     1      -1.631  -3.848  -0.552  0.00  0.00    +0.148 C 
ENDROOT
BRANCH  14   9
ATOM      6  O   UNL     1       2.662  -1.355   1.223  0.00  0.00    -0.252 OA
ATOM      9  N   UNL     1       1.458  -1.622  -0.732  0.00  0.00    -0.294 N 
ATOM     11  N   UNL     1       3.525  -0.636  -0.839  0.00  0.00    -0.269 N 
ATOM     21  C   UNL     1       2.572  -1.212   0.006  0.00  0.00    +0.304 C 
ATOM     36  H   UNL     1       1.425  -1.398  -1.722  0.00  0.00    +0.151 HD
ATOM     41  H   UNL     1       3.293  -0.595  -1.828  0.00  0.00    +0.156 HD
BRANCH  11  25
ATOM      1  F   UNL     1       6.842   0.414   2.470  0.00  0.00    -0.205 F 
ATOM     25  C   UNL     1       4.785  -0.098  -0.487  0.00  0.00    +0.037 A 
ATOM     28  C   UNL     1       5.200  -0.107   0.845  0.00  0.00    +0.061 A 
ATOM     29  C   UNL     1       5.612   0.441  -1.472  0.00  0.00    +0.023 A 
ATOM     33  C   UNL     1       6.442   0.423   1.191  0.00  0.00    +0.125 A 
ATOM     34  C   UNL     1       6.854   0.972  -1.125  0.00  0.00    +0.005 A 
ATOM     35  C   UNL     1       7.270   0.963   0.206  0.00  0.00    +0.038 A 
ENDBRANCH  11  25
ENDBRANCH  14   9
BRANCH  13  19
ATOM      5  O   UNL     1      -3.372  -0.600   2.421  0.00  0.00    -0.273 OA
ATOM     10  N   UNL     1      -3.311   0.059   0.190  0.00  0.00    -0.301 N 
ATOM     19  C   UNL     1      -2.951  -0.722   1.274  0.00  0.00    +0.246 C 
ATOM     40  H   UNL     1      -2.976  -0.180  -0.738  0.00  0.00    +0.150 HD
BRANCH  10  20
ATOM     20  C   UNL     1      -4.257   1.148   0.279  0.00  0.00    +0.163 C 
BRANCH  20  23
ATOM      7  O   UNL     1      -5.887  -0.390  -0.659  0.00  0.00    -0.274 OA
ATOM     12  N   UNL     1      -6.596   1.153   0.887  0.00  0.00    -0.328 N 
ATOM     23  C   UNL     1      -5.644   0.553   0.089  0.00  0.00    +0.231 C 
ATOM     42  H   UNL     1      -7.561   0.840   0.870  0.00  0.00    +0.145 HD
ATOM     43  H   UNL     1      -6.381   1.929   1.505  0.00  0.00    +0.145 HD
ENDBRANCH  20  23
BRANCH  20  22
ATOM     22  C   UNL     1      -3.993   2.233  -0.771  0.00  0.00    +0.067 C 
BRANCH  22  24
ATOM     24  C   UNL     1      -2.617   2.841  -0.649  0.00  0.00    -0.045 A 
ATOM     26  C   UNL     1      -2.416   3.958   0.161  0.00  0.00    +0.007 A 
ATOM     27  C   UNL     1      -1.545   2.284  -1.348  0.00  0.00    +0.007 A 
ATOM     30  C   UNL     1      -1.144   4.519   0.273  0.00  0.00    +0.045 A 
ATOM     31  C   UNL     1      -0.273   2.846  -1.236  0.00  0.00    +0.045 A 
ATOM     32  C   UNL     1      -0.072   3.963  -0.425  0.00  0.00    +0.117 A 
BRANCH  32   8
ATOM      8  O   UNL     1       1.169   4.510  -0.316  0.00  0.00    -0.507 OA
ATOM     44  H   UNL     1       1.788   3.998  -0.864  0.00  0.00    +0.292 HD
ENDBRANCH  32   8
ENDBRANCH  22  24
ENDBRANCH  20  22
ENDBRANCH  10  20
ENDBRANCH  13  19
BRANCH  13   2
ATOM      2  O   UNL     1      -1.698  -2.485   2.115  0.00  0.00    -0.379 OA
ATOM     37  H   UNL     1      -2.507  -2.944   2.398  0.00  0.00    +0.211 HD
ENDBRANCH  13   2
BRANCH  16   3
ATOM      3  O   UNL     1       0.574  -4.327  -1.342  0.00  0.00    -0.387 OA
ATOM     38  H   UNL     1       0.768  -4.748  -0.487  0.00  0.00    +0.210 HD
ENDBRANCH  16   3
BRANCH  18   4
ATOM      4  O   UNL     1      -2.248  -4.623  -1.579  0.00  0.00    -0.389 OA
ATOM     39  H   UNL     1      -3.061  -5.007  -1.208  0.00  0.00    +0.210 HD
ENDBRANCH  18   4
TORSDOF 11
