MODEL 1
REMARK VINA RESULT:      -7.5      0.000      0.000
REMARK  Name = 71693881
REMARK  8 active torsions:
REMARK  status: ('A' for Active; 'I' for Inactive)
REMARK    1  A    between atoms: O_1  and  C_9
REMARK    2  A    between atoms: O_2  and  C_11
REMARK    3  A    between atoms: O_4  and  C_18
REMARK    4  A    between atoms: O_4  and  C_25
REMARK    5  A    between atoms: N_5  and  C_8
REMARK    6  A    between atoms: C_7  and  C_12
REMARK    7  A    between atoms: C_15  and  C_19
REMARK    8  A    between atoms: C_24  and  C_26
REMARK                            x       y       z     vdW  Elec       q    Type
REMARK                         _______ _______ _______ _____ _____    ______ ____
ROOT
ATOM      7  C   UNL     1      13.067   9.189  20.138  0.00  0.00    +0.044 C 
ATOM      8  C   UNL     1      13.243   7.668  20.349  0.00  0.00    +0.112 C 
ATOM      9  C   UNL     1      12.381   7.377  21.577  0.00  0.00    +0.164 C 
ATOM     10  C   UNL     1      11.727   9.559  20.824  0.00  0.00    +0.044 C 
ATOM     11  C   UNL     1      11.150   8.246  21.350  0.00  0.00    +0.145 C 
ENDROOT
BRANCH   7  12
ATOM     12  C   UNL     1      13.157   9.600  18.684  0.00  0.00    -0.042 A 
ATOM     13  C   UNL     1      12.332   8.996  17.735  0.00  0.00    +0.007 A 
ATOM     14  C   UNL     1      14.065  10.584  18.293  0.00  0.00    +0.007 A 
ATOM     16  C   UNL     1      12.415   9.375  16.396  0.00  0.00    +0.046 A 
ATOM     17  C   UNL     1      14.149  10.963  16.954  0.00  0.00    +0.046 A 
ATOM     18  C   UNL     1      13.324  10.359  16.005  0.00  0.00    +0.120 A 
BRANCH  18   4
ATOM      4  O   UNL     1      13.405  10.729  14.698  0.00  0.00    -0.495 OA
ATOM     25  C   UNL     1      14.306  11.789  14.378  0.00  0.00    +0.277 C 
ENDBRANCH  18   4
ENDBRANCH   7  12
BRANCH   8   5
ATOM      3  O   UNL     1      15.142   6.902  18.338  0.00  0.00    -0.270 OA
ATOM      5  N   UNL     1      14.621   7.307  20.561  0.00  0.00    -0.305 N 
ATOM     15  C   UNL     1      15.468   6.949  19.521  0.00  0.00    +0.244 C 
ATOM     27  H   UNL     1      14.952   7.301  21.520  0.00  0.00    +0.149 HD
BRANCH  15  19
ATOM     19  C   UNL     1      16.853   6.578  19.908  0.00  0.00    +0.037 A 
ATOM     20  C   UNL     1      17.561   5.639  19.156  0.00  0.00    +0.014 A 
ATOM     21  C   UNL     1      17.448   7.169  21.023  0.00  0.00    +0.014 A 
ATOM     22  C   UNL     1      18.863   5.293  19.519  0.00  0.00    +0.019 A 
ATOM     23  C   UNL     1      18.750   6.822  21.386  0.00  0.00    +0.019 A 
ATOM     24  C   UNL     1      19.456   5.885  20.634  0.00  0.00    +0.052 A 
BRANCH  24  26
ATOM      6  N   UNL     1      21.873   5.239  21.305  0.00  0.00    -0.191 NA
ATOM     26  C   UNL     1      20.790   5.528  21.005  0.00  0.00    +0.099 C 
ENDBRANCH  24  26
ENDBRANCH  15  19
ENDBRANCH   8   5
BRANCH   9   1
ATOM      1  O   UNL     1      12.031   6.010  21.676  0.00  0.00    -0.387 OA
ATOM     28  H   UNL     1      11.836   5.694  20.777  0.00  0.00    +0.210 HD
ENDBRANCH   9   1
BRANCH  11   2
ATOM      2  O   UNL     1      10.307   7.685  20.348  0.00  0.00    -0.389 OA
ATOM     29  H   UNL     1      10.374   6.718  20.417  0.00  0.00    +0.210 HD
ENDBRANCH  11   2
TORSDOF 7
ENDMDL
MODEL 2
REMARK VINA RESULT:      -6.5      2.312      4.493
REMARK  Name = 71693881
REMARK  8 active torsions:
REMARK  status: ('A' for Active; 'I' for Inactive)
REMARK    1  A    between atoms: O_1  and  C_9
REMARK    2  A    between atoms: O_2  and  C_11
REMARK    3  A    between atoms: O_4  and  C_18
REMARK    4  A    between atoms: O_4  and  C_25
REMARK    5  A    between atoms: N_5  and  C_8
REMARK    6  A    between atoms: C_7  and  C_12
REMARK    7  A    between atoms: C_15  and  C_19
REMARK    8  A    between atoms: C_24  and  C_26
REMARK                            x       y       z     vdW  Elec       q    Type
REMARK                         _______ _______ _______ _____ _____    ______ ____
ROOT
ATOM      7  C   UNL     1      12.501   8.383  19.347  0.00  0.00    +0.044 C 
ATOM      8  C   UNL     1      13.826   8.806  18.673  0.00  0.00    +0.112 C 
ATOM      9  C   UNL     1      13.681   8.284  17.244  0.00  0.00    +0.164 C 
ATOM     10  C   UNL     1      11.479   8.200  18.195  0.00  0.00    +0.044 C 
ATOM     11  C   UNL     1      12.222   8.578  16.915  0.00  0.00    +0.145 C 
ENDROOT
BRANCH   7  12
ATOM     12  C   UNL     1      12.054   9.342  20.430  0.00  0.00    -0.042 A 
ATOM     13  C   UNL     1      12.393  10.693  20.350  0.00  0.00    +0.007 A 
ATOM     14  C   UNL     1      11.303   8.875  21.509  0.00  0.00    +0.007 A 
ATOM     16  C   UNL     1      11.981  11.576  21.347  0.00  0.00    +0.046 A 
ATOM     17  C   UNL     1      10.891   9.758  22.506  0.00  0.00    +0.046 A 
ATOM     18  C   UNL     1      11.230  11.109  22.425  0.00  0.00    +0.120 A 
BRANCH  18   4
ATOM      4  O   UNL     1      10.828  11.970  23.399  0.00  0.00    -0.495 OA
ATOM     25  C   UNL     1      11.005  11.551  24.752  0.00  0.00    +0.277 C 
ENDBRANCH  18   4
ENDBRANCH   7  12
BRANCH   8   5
ATOM      3  O   UNL     1      15.778  10.232  20.222  0.00  0.00    -0.270 OA
ATOM      5  N   UNL     1      14.974   8.244  19.338  0.00  0.00    -0.305 N 
ATOM     15  C   UNL     1      15.867   9.017  20.068  0.00  0.00    +0.244 C 
ATOM     27  H   UNL     1      15.123   7.246  19.232  0.00  0.00    +0.149 HD
BRANCH  15  19
ATOM     19  C   UNL     1      17.015   8.291  20.669  0.00  0.00    +0.037 A 
ATOM     20  C   UNL     1      17.248   6.956  20.338  0.00  0.00    +0.014 A 
ATOM     21  C   UNL     1      17.862   8.946  21.564  0.00  0.00    +0.014 A 
ATOM     22  C   UNL     1      18.327   6.275  20.902  0.00  0.00    +0.019 A 
ATOM     23  C   UNL     1      18.942   8.265  22.128  0.00  0.00    +0.019 A 
ATOM     24  C   UNL     1      19.174   6.930  21.796  0.00  0.00    +0.052 A 
BRANCH  24  26
ATOM      6  N   UNL     1      21.177   5.664  22.842  0.00  0.00    -0.191 NA
ATOM     26  C   UNL     1      20.279   6.232  22.374  0.00  0.00    +0.099 C 
ENDBRANCH  24  26
ENDBRANCH  15  19
ENDBRANCH   8   5
BRANCH   9   1
ATOM      1  O   UNL     1      14.551   8.939  16.342  0.00  0.00    -0.387 OA
ATOM     28  H   UNL     1      15.454   8.631  16.533  0.00  0.00    +0.210 HD
ENDBRANCH   9   1
BRANCH  11   2
ATOM      2  O   UNL     1      12.025   9.967  16.666  0.00  0.00    -0.389 OA
ATOM     29  H   UNL     1      11.494  10.323  17.398  0.00  0.00    +0.210 HD
ENDBRANCH  11   2
TORSDOF 7
ENDMDL
MODEL 3
REMARK VINA RESULT:      -6.0     13.778     17.466
REMARK  Name = 71693881
REMARK  8 active torsions:
REMARK  status: ('A' for Active; 'I' for Inactive)
REMARK    1  A    between atoms: O_1  and  C_9
REMARK    2  A    between atoms: O_2  and  C_11
REMARK    3  A    between atoms: O_4  and  C_18
REMARK    4  A    between atoms: O_4  and  C_25
REMARK    5  A    between atoms: N_5  and  C_8
REMARK    6  A    between atoms: C_7  and  C_12
REMARK    7  A    between atoms: C_15  and  C_19
REMARK    8  A    between atoms: C_24  and  C_26
REMARK                            x       y       z     vdW  Elec       q    Type
REMARK                         _______ _______ _______ _____ _____    ______ ____
ROOT
ATOM      7  C   UNL     1       8.570   7.391   4.616  0.00  0.00    +0.044 C 
ATOM      8  C   UNL     1       9.776   7.873   3.777  0.00  0.00    +0.112 C 
ATOM      9  C   UNL     1       9.308   9.219   3.223  0.00  0.00    +0.164 C 
ATOM     10  C   UNL     1       7.771   8.668   4.980  0.00  0.00    +0.044 C 
ATOM     11  C   UNL     1       8.564   9.837   4.399  0.00  0.00    +0.145 C 
ENDROOT
BRANCH   7  12
ATOM     12  C   UNL     1       8.976   6.548   5.806  0.00  0.00    -0.042 A 
ATOM     13  C   UNL     1       8.954   7.096   7.089  0.00  0.00    +0.007 A 
ATOM     14  C   UNL     1       9.371   5.224   5.621  0.00  0.00    +0.007 A 
ATOM     16  C   UNL     1       9.327   6.319   8.186  0.00  0.00    +0.046 A 
ATOM     17  C   UNL     1       9.744   4.447   6.716  0.00  0.00    +0.046 A 
ATOM     18  C   UNL     1       9.722   4.995   7.999  0.00  0.00    +0.120 A 
BRANCH  18   4
ATOM      4  O   UNL     1      10.086   4.236   9.069  0.00  0.00    -0.495 OA
ATOM     25  C   UNL     1       9.373   4.447  10.288  0.00  0.00    +0.277 C 
ENDBRANCH  18   4
ENDBRANCH   7  12
BRANCH   8   5
ATOM      3  O   UNL     1      12.154   6.276   3.595  0.00  0.00    -0.270 OA
ATOM      5  N   UNL     1      10.110   6.945   2.727  0.00  0.00    -0.305 N 
ATOM     15  C   UNL     1      11.290   6.213   2.725  0.00  0.00    +0.244 C 
ATOM     27  H   UNL     1       9.450   6.861   1.961  0.00  0.00    +0.149 HD
BRANCH  15  19
ATOM     19  C   UNL     1      11.498   5.319   1.557  0.00  0.00    +0.037 A 
ATOM     20  C   UNL     1      10.602   5.346   0.488  0.00  0.00    +0.014 A 
ATOM     21  C   UNL     1      12.593   4.454   1.528  0.00  0.00    +0.014 A 
ATOM     22  C   UNL     1      10.800   4.508  -0.609  0.00  0.00    +0.019 A 
ATOM     23  C   UNL     1      12.791   3.616   0.430  0.00  0.00    +0.019 A 
ATOM     24  C   UNL     1      11.894   3.643  -0.638  0.00  0.00    +0.052 A 
BRANCH  24  26
ATOM      6  N   UNL     1      12.259   2.088  -2.676  0.00  0.00    -0.191 NA
ATOM     26  C   UNL     1      12.096   2.785  -1.763  0.00  0.00    +0.099 C 
ENDBRANCH  24  26
ENDBRANCH  15  19
ENDBRANCH   8   5
BRANCH   9   1
ATOM      1  O   UNL     1      10.388  10.035   2.814  0.00  0.00    -0.387 OA
ATOM     28  H   UNL     1      10.111  10.505   2.009  0.00  0.00    +0.210 HD
ENDBRANCH   9   1
BRANCH  11   2
ATOM      2  O   UNL     1       9.473  10.308   5.389  0.00  0.00    -0.389 OA
ATOM     29  H   UNL     1      10.337  10.428   4.959  0.00  0.00    +0.210 HD
ENDBRANCH  11   2
TORSDOF 7
ENDMDL
MODEL 4
REMARK VINA RESULT:      -5.9     26.444     29.246
REMARK  Name = 71693881
REMARK  8 active torsions:
REMARK  status: ('A' for Active; 'I' for Inactive)
REMARK    1  A    between atoms: O_1  and  C_9
REMARK    2  A    between atoms: O_2  and  C_11
REMARK    3  A    between atoms: O_4  and  C_18
REMARK    4  A    between atoms: O_4  and  C_25
REMARK    5  A    between atoms: N_5  and  C_8
REMARK    6  A    between atoms: C_7  and  C_12
REMARK    7  A    between atoms: C_15  and  C_19
REMARK    8  A    between atoms: C_24  and  C_26
REMARK                            x       y       z     vdW  Elec       q    Type
REMARK                         _______ _______ _______ _____ _____    ______ ____
ROOT
ATOM      7  C   UNL     1      -5.982 -11.465  16.807  0.00  0.00    +0.044 C 
ATOM      8  C   UNL     1      -6.333 -10.297  17.756  0.00  0.00    +0.112 C 
ATOM      9  C   UNL     1      -6.807 -11.002  19.027  0.00  0.00    +0.164 C 
ATOM     10  C   UNL     1      -5.703 -12.685  17.722  0.00  0.00    +0.044 C 
ATOM     11  C   UNL     1      -5.840 -12.172  19.154  0.00  0.00    +0.145 C 
ENDROOT
BRANCH   7  12
ATOM     12  C   UNL     1      -4.858 -11.133  15.849  0.00  0.00    -0.042 A 
ATOM     13  C   UNL     1      -5.121 -10.984  14.487  0.00  0.00    +0.007 A 
ATOM     14  C   UNL     1      -3.557 -10.977  16.329  0.00  0.00    +0.007 A 
ATOM     16  C   UNL     1      -4.085 -10.678  13.606  0.00  0.00    +0.046 A 
ATOM     17  C   UNL     1      -2.521 -10.671  15.448  0.00  0.00    +0.046 A 
ATOM     18  C   UNL     1      -2.785 -10.521  14.086  0.00  0.00    +0.120 A 
BRANCH  18   4
ATOM      4  O   UNL     1      -1.773 -10.223  13.226  0.00  0.00    -0.495 OA
ATOM     25  C   UNL     1      -2.056 -10.319  11.830  0.00  0.00    +0.277 C 
ENDBRANCH  18   4
ENDBRANCH   7  12
BRANCH   8   5
ATOM      3  O   UNL     1      -9.080 -10.982  17.280  0.00  0.00    -0.270 OA
ATOM      5  N   UNL     1      -7.351  -9.439  17.205  0.00  0.00    -0.305 N 
ATOM     15  C   UNL     1      -8.659  -9.861  17.010  0.00  0.00    +0.244 C 
ATOM     27  H   UNL     1      -7.066  -8.503  16.936  0.00  0.00    +0.149 HD
BRANCH  15  19
ATOM     19  C   UNL     1      -9.581  -8.864  16.407  0.00  0.00    +0.037 A 
ATOM     20  C   UNL     1      -9.989  -7.754  17.146  0.00  0.00    +0.014 A 
ATOM     21  C   UNL     1     -10.037  -9.039  15.100  0.00  0.00    +0.014 A 
ATOM     22  C   UNL     1     -10.854  -6.817  16.578  0.00  0.00    +0.019 A 
ATOM     23  C   UNL     1     -10.902  -8.102  14.532  0.00  0.00    +0.019 A 
ATOM     24  C   UNL     1     -11.309  -6.992  15.272  0.00  0.00    +0.052 A 
BRANCH  24  26
ATOM      6  N   UNL     1     -12.914  -5.252  14.220  0.00  0.00    -0.191 NA
ATOM     26  C   UNL     1     -12.195  -6.032  14.691  0.00  0.00    +0.099 C 
ENDBRANCH  24  26
ENDBRANCH  15  19
ENDBRANCH   8   5
BRANCH   9   1
ATOM      1  O   UNL     1      -6.744 -10.160  20.162  0.00  0.00    -0.387 OA
ATOM     28  H   UNL     1      -6.345  -9.319  19.879  0.00  0.00    +0.210 HD
ENDBRANCH   9   1
BRANCH  11   2
ATOM      2  O   UNL     1      -4.563 -11.733  19.606  0.00  0.00    -0.389 OA
ATOM     29  H   UNL     1      -4.707 -11.147  20.367  0.00  0.00    +0.210 HD
ENDBRANCH  11   2
TORSDOF 7
ENDMDL
MODEL 5
REMARK VINA RESULT:      -5.9     26.592     28.854
REMARK  Name = 71693881
REMARK  8 active torsions:
REMARK  status: ('A' for Active; 'I' for Inactive)
REMARK    1  A    between atoms: O_1  and  C_9
REMARK    2  A    between atoms: O_2  and  C_11
REMARK    3  A    between atoms: O_4  and  C_18
REMARK    4  A    between atoms: O_4  and  C_25
REMARK    5  A    between atoms: N_5  and  C_8
REMARK    6  A    between atoms: C_7  and  C_12
REMARK    7  A    between atoms: C_15  and  C_19
REMARK    8  A    between atoms: C_24  and  C_26
REMARK                            x       y       z     vdW  Elec       q    Type
REMARK                         _______ _______ _______ _____ _____    ______ ____
ROOT
ATOM      7  C   UNL     1      -3.074 -10.652  14.723  0.00  0.00    +0.044 C 
ATOM      8  C   UNL     1      -3.595 -11.431  13.494  0.00  0.00    +0.112 C 
ATOM      9  C   UNL     1      -2.320 -11.987  12.859  0.00  0.00    +0.164 C 
ATOM     10  C   UNL     1      -1.691 -11.267  15.060  0.00  0.00    +0.044 C 
ATOM     11  C   UNL     1      -1.489 -12.408  14.064  0.00  0.00    +0.145 C 
ENDROOT
BRANCH   7  12
ATOM     12  C   UNL     1      -4.052 -10.646  15.879  0.00  0.00    -0.042 A 
ATOM     13  C   UNL     1      -5.291 -10.019  15.741  0.00  0.00    +0.007 A 
ATOM     14  C   UNL     1      -3.714 -11.267  17.081  0.00  0.00    +0.007 A 
ATOM     16  C   UNL     1      -6.191 -10.014  16.806  0.00  0.00    +0.046 A 
ATOM     17  C   UNL     1      -4.614 -11.262  18.145  0.00  0.00    +0.046 A 
ATOM     18  C   UNL     1      -5.853 -10.635  18.008  0.00  0.00    +0.120 A 
BRANCH  18   4
ATOM      4  O   UNL     1      -6.732 -10.631  19.048  0.00  0.00    -0.495 OA
ATOM     25  C   UNL     1      -7.043 -11.890  19.642  0.00  0.00    +0.277 C 
ENDBRANCH  18   4
ENDBRANCH   7  12
BRANCH   8   5
ATOM      3  O   UNL     1      -5.627 -12.254  11.641  0.00  0.00    -0.270 OA
ATOM      5  N   UNL     1      -4.324 -10.584  12.585  0.00  0.00    -0.305 N 
ATOM     15  C   UNL     1      -5.294 -11.075  11.722  0.00  0.00    +0.244 C 
ATOM     27  H   UNL     1      -4.082  -9.599  12.582  0.00  0.00    +0.149 HD
BRANCH  15  19
ATOM     19  C   UNL     1      -5.935 -10.076  10.829  0.00  0.00    +0.037 A 
ATOM     20  C   UNL     1      -7.295 -10.175  10.534  0.00  0.00    +0.014 A 
ATOM     21  C   UNL     1      -5.178  -9.037  10.286  0.00  0.00    +0.014 A 
ATOM     22  C   UNL     1      -7.898  -9.235   9.696  0.00  0.00    +0.019 A 
ATOM     23  C   UNL     1      -5.780  -8.098   9.449  0.00  0.00    +0.019 A 
ATOM     24  C   UNL     1      -7.139  -8.197   9.155  0.00  0.00    +0.052 A 
BRANCH  24  26
ATOM      6  N   UNL     1      -8.260  -6.454   7.601  0.00  0.00    -0.191 NA
ATOM     26  C   UNL     1      -7.757  -7.235   8.297  0.00  0.00    +0.099 C 
ENDBRANCH  24  26
ENDBRANCH  15  19
ENDBRANCH   8   5
BRANCH   9   1
ATOM      1  O   UNL     1      -2.580 -13.086  12.007  0.00  0.00    -0.387 OA
ATOM     28  H   UNL     1      -2.772 -12.730  11.123  0.00  0.00    +0.210 HD
ENDBRANCH   9   1
BRANCH  11   2
ATOM      2  O   UNL     1      -1.994 -13.610  14.639  0.00  0.00    -0.389 OA
ATOM     29  H   UNL     1      -2.963 -13.579  14.578  0.00  0.00    +0.210 HD
ENDBRANCH  11   2
TORSDOF 7
ENDMDL
MODEL 6
REMARK VINA RESULT:      -5.8     27.566     29.914
REMARK  Name = 71693881
REMARK  8 active torsions:
REMARK  status: ('A' for Active; 'I' for Inactive)
REMARK    1  A    between atoms: O_1  and  C_9
REMARK    2  A    between atoms: O_2  and  C_11
REMARK    3  A    between atoms: O_4  and  C_18
REMARK    4  A    between atoms: O_4  and  C_25
REMARK    5  A    between atoms: N_5  and  C_8
REMARK    6  A    between atoms: C_7  and  C_12
REMARK    7  A    between atoms: C_15  and  C_19
REMARK    8  A    between atoms: C_24  and  C_26
REMARK                            x       y       z     vdW  Elec       q    Type
REMARK                         _______ _______ _______ _____ _____    ______ ____
ROOT
ATOM      7  C   UNL     1     -10.305  -9.898  18.966  0.00  0.00    +0.044 C 
ATOM      8  C   UNL     1      -9.862 -11.249  18.359  0.00  0.00    +0.112 C 
ATOM      9  C   UNL     1     -10.039 -12.234  19.514  0.00  0.00    +0.164 C 
ATOM     10  C   UNL     1     -11.232 -10.254  20.158  0.00  0.00    +0.044 C 
ATOM     11  C   UNL     1     -11.340 -11.778  20.161  0.00  0.00    +0.145 C 
ENDROOT
BRANCH   7  12
ATOM     12  C   UNL     1     -10.928  -8.966  17.949  0.00  0.00    -0.042 A 
ATOM     13  C   UNL     1     -12.263  -9.130  17.578  0.00  0.00    +0.007 A 
ATOM     14  C   UNL     1     -10.168  -7.943  17.383  0.00  0.00    +0.007 A 
ATOM     16  C   UNL     1     -12.837  -8.271  16.641  0.00  0.00    +0.046 A 
ATOM     17  C   UNL     1     -10.741  -7.085  16.446  0.00  0.00    +0.046 A 
ATOM     18  C   UNL     1     -12.076  -7.248  16.075  0.00  0.00    +0.120 A 
BRANCH  18   4
ATOM      4  O   UNL     1     -12.635  -6.410  15.160  0.00  0.00    -0.495 OA
ATOM     25  C   UNL     1     -14.050  -6.488  14.987  0.00  0.00    +0.277 C 
ENDBRANCH  18   4
ENDBRANCH   7  12
BRANCH   8   5
ATOM      3  O   UNL     1      -7.515 -10.774  19.941  0.00  0.00    -0.270 OA
ATOM      5  N   UNL     1      -8.501 -11.209  17.888  0.00  0.00    -0.305 N 
ATOM     15  C   UNL     1      -7.425 -10.972  18.732  0.00  0.00    +0.244 C 
ATOM     27  H   UNL     1      -8.356 -11.341  16.892  0.00  0.00    +0.149 HD
BRANCH  15  19
ATOM     19  C   UNL     1      -6.088 -10.936  18.087  0.00  0.00    +0.037 A 
ATOM     20  C   UNL     1      -5.918 -10.280  16.867  0.00  0.00    +0.014 A 
ATOM     21  C   UNL     1      -5.000 -11.556  18.702  0.00  0.00    +0.014 A 
ATOM     22  C   UNL     1      -4.661 -10.245  16.263  0.00  0.00    +0.019 A 
ATOM     23  C   UNL     1      -3.743 -11.521  18.098  0.00  0.00    +0.019 A 
ATOM     24  C   UNL     1      -3.574 -10.865  16.879  0.00  0.00    +0.052 A 
BRANCH  24  26
ATOM      6  N   UNL     1      -1.242 -10.800  15.755  0.00  0.00    -0.191 NA
ATOM     26  C   UNL     1      -2.287 -10.829  16.259  0.00  0.00    +0.099 C 
ENDBRANCH  24  26
ENDBRANCH  15  19
ENDBRANCH   8   5
BRANCH   9   1
ATOM      1  O   UNL     1     -10.131 -13.573  19.068  0.00  0.00    -0.387 OA
ATOM     28  H   UNL     1      -9.251 -13.834  18.746  0.00  0.00    +0.210 HD
ENDBRANCH   9   1
BRANCH  11   2
ATOM      2  O   UNL     1     -12.464 -12.157  19.372  0.00  0.00    -0.389 OA
ATOM     29  H   UNL     1     -13.067 -11.395  19.336  0.00  0.00    +0.210 HD
ENDBRANCH  11   2
TORSDOF 7
ENDMDL
MODEL 7
REMARK VINA RESULT:      -5.8     19.524     22.259
REMARK  Name = 71693881
REMARK  8 active torsions:
REMARK  status: ('A' for Active; 'I' for Inactive)
REMARK    1  A    between atoms: O_1  and  C_9
REMARK    2  A    between atoms: O_2  and  C_11
REMARK    3  A    between atoms: O_4  and  C_18
REMARK    4  A    between atoms: O_4  and  C_25
REMARK    5  A    between atoms: N_5  and  C_8
REMARK    6  A    between atoms: C_7  and  C_12
REMARK    7  A    between atoms: C_15  and  C_19
REMARK    8  A    between atoms: C_24  and  C_26
REMARK                            x       y       z     vdW  Elec       q    Type
REMARK                         _______ _______ _______ _____ _____    ______ ____
ROOT
ATOM      7  C   UNL     1       9.959  -6.844  33.607  0.00  0.00    +0.044 C 
ATOM      8  C   UNL     1       8.551  -6.897  32.972  0.00  0.00    +0.112 C 
ATOM      9  C   UNL     1       7.666  -6.207  34.010  0.00  0.00    +0.164 C 
ATOM     10  C   UNL     1       9.924  -5.666  34.615  0.00  0.00    +0.044 C 
ATOM     11  C   UNL     1       8.534  -5.048  34.486  0.00  0.00    +0.145 C 
ENDROOT
BRANCH   7  12
ATOM     12  C   UNL     1      11.069  -6.754  32.581  0.00  0.00    -0.042 A 
ATOM     13  C   UNL     1      11.739  -5.547  32.382  0.00  0.00    +0.007 A 
ATOM     14  C   UNL     1      11.421  -7.879  31.835  0.00  0.00    +0.007 A 
ATOM     16  C   UNL     1      12.762  -5.465  31.437  0.00  0.00    +0.046 A 
ATOM     17  C   UNL     1      12.443  -7.797  30.891  0.00  0.00    +0.046 A 
ATOM     18  C   UNL     1      13.114  -6.590  30.691  0.00  0.00    +0.120 A 
BRANCH  18   4
ATOM      4  O   UNL     1      14.112  -6.510  29.769  0.00  0.00    -0.495 OA
ATOM     25  C   UNL     1      15.255  -5.728  30.114  0.00  0.00    +0.277 C 
ENDBRANCH  18   4
ENDBRANCH   7  12
BRANCH   8   5
ATOM      3  O   UNL     1       6.640  -7.748  31.006  0.00  0.00    -0.270 OA
ATOM      5  N   UNL     1       8.124  -8.250  32.716  0.00  0.00    -0.305 N 
ATOM     15  C   UNL     1       7.190  -8.566  31.739  0.00  0.00    +0.244 C 
ATOM     27  H   UNL     1       8.521  -8.975  33.303  0.00  0.00    +0.149 HD
BRANCH  15  19
ATOM     19  C   UNL     1       6.836 -10.003  31.617  0.00  0.00    +0.037 A 
ATOM     20  C   UNL     1       6.801 -10.610  30.362  0.00  0.00    +0.014 A 
ATOM     21  C   UNL     1       6.541 -10.747  32.760  0.00  0.00    +0.014 A 
ATOM     22  C   UNL     1       6.471 -11.961  30.248  0.00  0.00    +0.019 A 
ATOM     23  C   UNL     1       6.211 -12.098  32.647  0.00  0.00    +0.019 A 
ATOM     24  C   UNL     1       6.176 -12.704  31.391  0.00  0.00    +0.052 A 
BRANCH  24  26
ATOM      6  N   UNL     1       5.563 -15.212  31.179  0.00  0.00    -0.191 NA
ATOM     26  C   UNL     1       5.838 -14.088  31.274  0.00  0.00    +0.099 C 
ENDBRANCH  24  26
ENDBRANCH  15  19
ENDBRANCH   8   5
BRANCH   9   1
ATOM      1  O   UNL     1       6.452  -5.742  33.454  0.00  0.00    -0.387 OA
ATOM     28  H   UNL     1       5.740  -6.312  33.791  0.00  0.00    +0.210 HD
ENDBRANCH   9   1
BRANCH  11   2
ATOM      2  O   UNL     1       8.584  -4.012  33.510  0.00  0.00    -0.389 OA
ATOM     29  H   UNL     1       9.515  -3.892  33.257  0.00  0.00    +0.210 HD
ENDBRANCH  11   2
TORSDOF 7
ENDMDL
MODEL 8
REMARK VINA RESULT:      -5.8     27.218     30.175
REMARK  Name = 71693881
REMARK  8 active torsions:
REMARK  status: ('A' for Active; 'I' for Inactive)
REMARK    1  A    between atoms: O_1  and  C_9
REMARK    2  A    between atoms: O_2  and  C_11
REMARK    3  A    between atoms: O_4  and  C_18
REMARK    4  A    between atoms: O_4  and  C_25
REMARK    5  A    between atoms: N_5  and  C_8
REMARK    6  A    between atoms: C_7  and  C_12
REMARK    7  A    between atoms: C_15  and  C_19
REMARK    8  A    between atoms: C_24  and  C_26
REMARK                            x       y       z     vdW  Elec       q    Type
REMARK                         _______ _______ _______ _____ _____    ______ ____
ROOT
ATOM      7  C   UNL     1      -7.859 -11.426  17.459  0.00  0.00    +0.044 C 
ATOM      8  C   UNL     1      -8.427 -10.320  18.378  0.00  0.00    +0.112 C 
ATOM      9  C   UNL     1      -9.385 -11.078  19.297  0.00  0.00    +0.164 C 
ATOM     10  C   UNL     1      -8.033 -12.755  18.239  0.00  0.00    +0.044 C 
ATOM     11  C   UNL     1      -8.633 -12.371  19.590  0.00  0.00    +0.145 C 
ENDROOT
BRANCH   7  12
ATOM     12  C   UNL     1      -6.441 -11.149  17.007  0.00  0.00    -0.042 A 
ATOM     13  C   UNL     1      -5.368 -11.468  17.839  0.00  0.00    +0.007 A 
ATOM     14  C   UNL     1      -6.207 -10.577  15.757  0.00  0.00    +0.007 A 
ATOM     16  C   UNL     1      -4.062 -11.214  17.422  0.00  0.00    +0.046 A 
ATOM     17  C   UNL     1      -4.902 -10.322  15.339  0.00  0.00    +0.046 A 
ATOM     18  C   UNL     1      -3.829 -10.641  16.172  0.00  0.00    +0.120 A 
BRANCH  18   4
ATOM      4  O   UNL     1      -2.554 -10.393  15.764  0.00  0.00    -0.495 OA
ATOM     25  C   UNL     1      -2.181 -10.870  14.471  0.00  0.00    +0.277 C 
ENDBRANCH  18   4
ENDBRANCH   7  12
BRANCH   8   5
ATOM      3  O   UNL     1     -10.752 -10.641  16.726  0.00  0.00    -0.270 OA
ATOM      5  N   UNL     1      -9.101  -9.289  17.631  0.00  0.00    -0.305 N 
ATOM     15  C   UNL     1     -10.225  -9.541  16.856  0.00  0.00    +0.244 C 
ATOM     27  H   UNL     1      -8.702  -8.357  17.674  0.00  0.00    +0.149 HD
BRANCH  15  19
ATOM     19  C   UNL     1     -10.786  -8.375  16.126  0.00  0.00    +0.037 A 
ATOM     20  C   UNL     1     -10.723  -7.101  16.691  0.00  0.00    +0.014 A 
ATOM     21  C   UNL     1     -11.374  -8.555  14.874  0.00  0.00    +0.014 A 
ATOM     22  C   UNL     1     -11.248  -6.006  16.003  0.00  0.00    +0.019 A 
ATOM     23  C   UNL     1     -11.899  -7.460  14.186  0.00  0.00    +0.019 A 
ATOM     24  C   UNL     1     -11.836  -6.187  14.751  0.00  0.00    +0.052 A 
BRANCH  24  26
ATOM      6  N   UNL     1     -12.810  -4.153  13.477  0.00  0.00    -0.191 NA
ATOM     26  C   UNL     1     -12.374  -5.065  14.048  0.00  0.00    +0.099 C 
ENDBRANCH  24  26
ENDBRANCH  15  19
ENDBRANCH   8   5
BRANCH   9   1
ATOM      1  O   UNL     1      -9.663 -10.367  20.487  0.00  0.00    -0.387 OA
ATOM     28  H   UNL     1      -8.832 -10.297  20.986  0.00  0.00    +0.210 HD
ENDBRANCH   9   1
BRANCH  11   2
ATOM      2  O   UNL     1      -7.571 -12.145  20.513  0.00  0.00    -0.389 OA
ATOM     29  H   UNL     1      -7.522 -12.920  21.097  0.00  0.00    +0.210 HD
ENDBRANCH  11   2
TORSDOF 7
ENDMDL
MODEL 9
REMARK VINA RESULT:      -5.6     13.031     15.133
REMARK  Name = 71693881
REMARK  8 active torsions:
REMARK  status: ('A' for Active; 'I' for Inactive)
REMARK    1  A    between atoms: O_1  and  C_9
REMARK    2  A    between atoms: O_2  and  C_11
REMARK    3  A    between atoms: O_4  and  C_18
REMARK    4  A    between atoms: O_4  and  C_25
REMARK    5  A    between atoms: N_5  and  C_8
REMARK    6  A    between atoms: C_7  and  C_12
REMARK    7  A    between atoms: C_15  and  C_19
REMARK    8  A    between atoms: C_24  and  C_26
REMARK                            x       y       z     vdW  Elec       q    Type
REMARK                         _______ _______ _______ _____ _____    ______ ____
ROOT
ATOM      7  C   UNL     1      10.597   6.105   4.858  0.00  0.00    +0.044 C 
ATOM      8  C   UNL     1      11.515   6.202   6.097  0.00  0.00    +0.112 C 
ATOM      9  C   UNL     1      10.544   6.070   7.270  0.00  0.00    +0.164 C 
ATOM     10  C   UNL     1       9.324   5.357   5.331  0.00  0.00    +0.044 C 
ATOM     11  C   UNL     1       9.571   4.997   6.795  0.00  0.00    +0.145 C 
ENDROOT
BRANCH   7  12
ATOM     12  C   UNL     1      11.280   5.477   3.662  0.00  0.00    -0.042 A 
ATOM     13  C   UNL     1      10.918   4.197   3.243  0.00  0.00    +0.007 A 
ATOM     14  C   UNL     1      12.273   6.179   2.978  0.00  0.00    +0.007 A 
ATOM     16  C   UNL     1      11.547   3.619   2.140  0.00  0.00    +0.046 A 
ATOM     17  C   UNL     1      12.903   5.602   1.876  0.00  0.00    +0.046 A 
ATOM     18  C   UNL     1      12.540   4.322   1.457  0.00  0.00    +0.120 A 
BRANCH  18   4
ATOM      4  O   UNL     1      13.154   3.758   0.382  0.00  0.00    -0.495 OA
ATOM     25  C   UNL     1      14.229   4.489  -0.210  0.00  0.00    +0.277 C 
ENDBRANCH  18   4
ENDBRANCH   7  12
BRANCH   8   5
ATOM      3  O   UNL     1      14.223   6.578   6.973  0.00  0.00    -0.270 OA
ATOM      5  N   UNL     1      12.241   7.445   6.137  0.00  0.00    -0.305 N 
ATOM     15  C   UNL     1      13.554   7.530   6.578  0.00  0.00    +0.244 C 
ATOM     27  H   UNL     1      11.740   8.279   5.847  0.00  0.00    +0.149 HD
BRANCH  15  19
ATOM     19  C   UNL     1      14.153   8.890   6.584  0.00  0.00    +0.037 A 
ATOM     20  C   UNL     1      15.485   9.067   6.210  0.00  0.00    +0.014 A 
ATOM     21  C   UNL     1      13.381   9.989   6.960  0.00  0.00    +0.014 A 
ATOM     22  C   UNL     1      16.046  10.345   6.214  0.00  0.00    +0.019 A 
ATOM     23  C   UNL     1      13.942  11.267   6.964  0.00  0.00    +0.019 A 
ATOM     24  C   UNL     1      15.274  11.444   6.590  0.00  0.00    +0.052 A 
BRANCH  24  26
ATOM      6  N   UNL     1      16.318  13.814   6.595  0.00  0.00    -0.191 NA
ATOM     26  C   UNL     1      15.850  12.752   6.593  0.00  0.00    +0.099 C 
ENDBRANCH  24  26
ENDBRANCH  15  19
ENDBRANCH   8   5
BRANCH   9   1
ATOM      1  O   UNL     1      11.194   5.678   8.464  0.00  0.00    -0.387 OA
ATOM     28  H   UNL     1      10.890   4.780   8.680  0.00  0.00    +0.210 HD
ENDBRANCH   9   1
BRANCH  11   2
ATOM      2  O   UNL     1      10.168   3.705   6.852  0.00  0.00    -0.389 OA
ATOM     29  H   UNL     1       9.607   3.149   7.419  0.00  0.00    +0.210 HD
ENDBRANCH  11   2
TORSDOF 7
ENDMDL
MODEL 10
REMARK VINA RESULT:      -5.5     27.632     29.524
REMARK  Name = 71693881
REMARK  8 active torsions:
REMARK  status: ('A' for Active; 'I' for Inactive)
REMARK    1  A    between atoms: O_1  and  C_9
REMARK    2  A    between atoms: O_2  and  C_11
REMARK    3  A    between atoms: O_4  and  C_18
REMARK    4  A    between atoms: O_4  and  C_25
REMARK    5  A    between atoms: N_5  and  C_8
REMARK    6  A    between atoms: C_7  and  C_12
REMARK    7  A    between atoms: C_15  and  C_19
REMARK    8  A    between atoms: C_24  and  C_26
REMARK                            x       y       z     vdW  Elec       q    Type
REMARK                         _______ _______ _______ _____ _____    ______ ____
ROOT
ATOM      7  C   UNL     1      -8.824  -8.526   8.125  0.00  0.00    +0.044 C 
ATOM      8  C   UNL     1      -7.303  -8.530   8.398  0.00  0.00    +0.112 C 
ATOM      9  C   UNL     1      -6.744  -9.418   7.287  0.00  0.00    +0.164 C 
ATOM     10  C   UNL     1      -8.986  -8.877   6.624  0.00  0.00    +0.044 C 
ATOM     11  C   UNL     1      -7.568  -9.010   6.072  0.00  0.00    +0.145 C 
ENDROOT
BRANCH   7  12
ATOM     12  C   UNL     1      -9.497  -7.235   8.540  0.00  0.00    -0.042 A 
ATOM     13  C   UNL     1      -8.897  -6.010   8.249  0.00  0.00    +0.007 A 
ATOM     14  C   UNL     1     -10.719  -7.270   9.212  0.00  0.00    +0.007 A 
ATOM     16  C   UNL     1      -9.518  -4.821   8.631  0.00  0.00    +0.046 A 
ATOM     17  C   UNL     1     -11.339  -6.082   9.594  0.00  0.00    +0.046 A 
ATOM     18  C   UNL     1     -10.739  -4.857   9.303  0.00  0.00    +0.120 A 
BRANCH  18   4
ATOM      4  O   UNL     1     -11.345  -3.696   9.676  0.00  0.00    -0.495 OA
ATOM     25  C   UNL     1     -12.524  -3.321   8.964  0.00  0.00    +0.277 C 
ENDBRANCH  18   4
ENDBRANCH   7  12
BRANCH   8   5
ATOM      3  O   UNL     1      -4.901  -8.053   9.896  0.00  0.00    -0.270 OA
ATOM      5  N   UNL     1      -6.989  -9.044   9.707  0.00  0.00    -0.305 N 
ATOM     15  C   UNL     1      -5.796  -8.757  10.356  0.00  0.00    +0.244 C 
ATOM     27  H   UNL     1      -7.675  -9.655  10.137  0.00  0.00    +0.149 HD
BRANCH  15  19
ATOM     19  C   UNL     1      -5.613  -9.386  11.689  0.00  0.00    +0.037 A 
ATOM     20  C   UNL     1      -4.406 -10.011  12.007  0.00  0.00    +0.014 A 
ATOM     21  C   UNL     1      -6.647  -9.350  12.625  0.00  0.00    +0.014 A 
ATOM     22  C   UNL     1      -4.234 -10.599  13.260  0.00  0.00    +0.019 A 
ATOM     23  C   UNL     1      -6.475  -9.939  13.878  0.00  0.00    +0.019 A 
ATOM     24  C   UNL     1      -5.268 -10.563  14.195  0.00  0.00    +0.052 A 
BRANCH  24  26
ATOM      6  N   UNL     1      -4.947 -11.658  16.520  0.00  0.00    -0.191 NA
ATOM     26  C   UNL     1      -5.091 -11.166  15.478  0.00  0.00    +0.099 C 
ENDBRANCH  24  26
ENDBRANCH  15  19
ENDBRANCH   8   5
BRANCH   9   1
ATOM      1  O   UNL     1      -5.364  -9.199   7.067  0.00  0.00    -0.387 OA
ATOM     28  H   UNL     1      -5.257  -8.924   6.140  0.00  0.00    +0.210 HD
ENDBRANCH   9   1
BRANCH  11   2
ATOM      2  O   UNL     1      -7.151  -7.742   5.574  0.00  0.00    -0.389 OA
ATOM     29  H   UNL     1      -7.544  -7.630   4.692  0.00  0.00    +0.210 HD
ENDBRANCH  11   2
TORSDOF 7
ENDMDL
