MODEL 1
REMARK VINA RESULT:      -6.9      0.000      0.000
REMARK  Name = 45783817
REMARK  8 active torsions:
REMARK  status: ('A' for Active; 'I' for Inactive)
REMARK    1  A    between atoms: N_2  and  C_11
REMARK    2  A    between atoms: N_6  and  C_25
REMARK    3  A    between atoms: N_6  and  C_26
REMARK    4  A    between atoms: N_6  and  C_27
REMARK    5  A    between atoms: C_7  and  C_12
REMARK    6  A    between atoms: C_11  and  C_13
REMARK    7  A    between atoms: C_16  and  C_20
REMARK    8  A    between atoms: C_19  and  C_21
REMARK                            x       y       z     vdW  Elec       q    Type
REMARK                         _______ _______ _______ _____ _____    ______ ____
ROOT
ATOM      1  O   UNL     1     -16.809   2.415  23.652  0.00  0.00    -0.336 OA
ATOM      3  N   UNL     1     -16.899   3.807  25.403  0.00  0.00    -0.190 NA
ATOM      4  N   UNL     1     -16.415   1.664  24.767  0.00  0.00    -0.056 NA
ATOM     12  C   UNL     1     -17.076   3.664  24.115  0.00  0.00    +0.245 A 
ATOM     16  C   UNL     1     -16.494   2.554  25.760  0.00  0.00    +0.204 A 
ENDROOT
BRANCH  16  20
ATOM      5  N   UNL     1     -16.116   0.573  28.884  0.00  0.00    -0.240 NA
ATOM     20  C   UNL     1     -16.174   2.224  27.119  0.00  0.00    +0.041 A 
ATOM     22  C   UNL     1     -15.633   3.173  27.979  0.00  0.00    +0.016 A 
ATOM     23  C   UNL     1     -16.393   0.949  27.616  0.00  0.00    +0.124 A 
ATOM     24  C   UNL     1     -15.333   2.824  29.291  0.00  0.00    +0.044 A 
ATOM     25  C   UNL     1     -15.591   1.523  29.691  0.00  0.00    +0.121 A 
BRANCH  25   6
ATOM      6  N   UNL     1     -15.279   1.182  31.030  0.00  0.00    -0.321 N 
ATOM     26  C   UNL     1     -15.209   2.210  32.045  0.00  0.00    +0.130 C 
ATOM     27  C   UNL     1     -15.037  -0.197  31.393  0.00  0.00    +0.130 C 
ENDBRANCH  25   6
ENDBRANCH  16  20
BRANCH  12   7
ATOM      2  N   UNL     1     -16.409   5.217  22.288  0.00  0.00    -0.287 NA
ATOM      7  C   UNL     1     -17.529   4.682  23.089  0.00  0.00    +0.146 C 
ATOM      8  C   UNL     1     -18.503   4.090  22.054  0.00  0.00    +0.030 C 
ATOM      9  C   UNL     1     -17.877   4.395  20.700  0.00  0.00    +0.017 C 
ATOM     10  C   UNL     1     -16.968   5.573  20.983  0.00  0.00    +0.085 C 
BRANCH   2  11
ATOM     11  C   UNL     1     -15.737   6.344  22.922  0.00  0.00    +0.120 C 
BRANCH  11  13
ATOM     13  C   UNL     1     -14.499   6.754  22.168  0.00  0.00    -0.033 A 
ATOM     14  C   UNL     1     -14.362   8.066  21.718  0.00  0.00    +0.005 A 
ATOM     15  C   UNL     1     -13.493   5.821  21.917  0.00  0.00    +0.005 A 
ATOM     17  C   UNL     1     -13.217   8.446  21.017  0.00  0.00    +0.003 A 
ATOM     18  C   UNL     1     -12.349   6.201  21.217  0.00  0.00    +0.003 A 
ATOM     19  C   UNL     1     -12.210   7.514  20.767  0.00  0.00    -0.050 A 
ATOM     21  C   UNL     1     -10.986   7.921  20.017  0.00  0.00    +0.044 C 
ENDBRANCH  11  13
ENDBRANCH   2  11
ENDBRANCH  12   7
TORSDOF 5
ENDMDL
MODEL 2
REMARK VINA RESULT:      -6.7     27.949     32.631
REMARK  Name = 45783817
REMARK  8 active torsions:
REMARK  status: ('A' for Active; 'I' for Inactive)
REMARK    1  A    between atoms: N_2  and  C_11
REMARK    2  A    between atoms: N_6  and  C_25
REMARK    3  A    between atoms: N_6  and  C_26
REMARK    4  A    between atoms: N_6  and  C_27
REMARK    5  A    between atoms: C_7  and  C_12
REMARK    6  A    between atoms: C_11  and  C_13
REMARK    7  A    between atoms: C_16  and  C_20
REMARK    8  A    between atoms: C_19  and  C_21
REMARK                            x       y       z     vdW  Elec       q    Type
REMARK                         _______ _______ _______ _____ _____    ______ ____
ROOT
ATOM      1  O   UNL     1      13.055  10.500  19.435  0.00  0.00    -0.336 OA
ATOM      3  N   UNL     1      13.523   9.370  17.559  0.00  0.00    -0.190 NA
ATOM      4  N   UNL     1      13.755  11.390  18.609  0.00  0.00    -0.056 NA
ATOM     12  C   UNL     1      12.962   9.336  18.741  0.00  0.00    +0.245 A 
ATOM     16  C   UNL     1      13.995  10.650  17.523  0.00  0.00    +0.204 A 
ENDROOT
BRANCH  16  20
ATOM      5  N   UNL     1      15.156  11.044  14.012  0.00  0.00    -0.240 NA
ATOM     20  C   UNL     1      14.705  11.159  16.384  0.00  0.00    +0.041 A 
ATOM     22  C   UNL     1      15.600  12.214  16.511  0.00  0.00    +0.016 A 
ATOM     23  C   UNL     1      14.520  10.613  15.124  0.00  0.00    +0.124 A 
ATOM     24  C   UNL     1      16.275  12.686  15.390  0.00  0.00    +0.044 A 
ATOM     25  C   UNL     1      16.020  12.071  14.174  0.00  0.00    +0.121 A 
BRANCH  25   6
ATOM      6  N   UNL     1      16.712  12.564  13.041  0.00  0.00    -0.321 N 
ATOM     26  C   UNL     1      17.863  13.424  13.209  0.00  0.00    +0.130 C 
ATOM     27  C   UNL     1      16.279  12.204  11.709  0.00  0.00    +0.130 C 
ENDBRANCH  25   6
ENDBRANCH  16  20
BRANCH  12   7
ATOM      2  N   UNL     1      13.025   7.607  20.530  0.00  0.00    -0.287 NA
ATOM      7  C   UNL     1      12.238   8.197  19.428  0.00  0.00    +0.146 C 
ATOM      8  C   UNL     1      10.918   8.641  20.084  0.00  0.00    +0.030 C 
ATOM      9  C   UNL     1      11.030   8.204  21.538  0.00  0.00    +0.017 C 
ATOM     10  C   UNL     1      12.057   7.091  21.498  0.00  0.00    +0.085 C 
BRANCH   2  11
ATOM     11  C   UNL     1      13.955   6.578  20.083  0.00  0.00    +0.120 C 
BRANCH  11  13
ATOM     13  C   UNL     1      15.385   6.948  20.381  0.00  0.00    -0.033 A 
ATOM     14  C   UNL     1      15.665   8.026  21.219  0.00  0.00    +0.005 A 
ATOM     15  C   UNL     1      16.427   6.214  19.815  0.00  0.00    +0.005 A 
ATOM     17  C   UNL     1      16.989   8.370  21.492  0.00  0.00    +0.003 A 
ATOM     18  C   UNL     1      17.750   6.558  20.088  0.00  0.00    +0.003 A 
ATOM     19  C   UNL     1      18.032   7.636  20.927  0.00  0.00    -0.050 A 
ATOM     21  C   UNL     1      19.448   8.005  21.219  0.00  0.00    +0.044 C 
ENDBRANCH  11  13
ENDBRANCH   2  11
ENDBRANCH  12   7
TORSDOF 5
ENDMDL
MODEL 3
REMARK VINA RESULT:      -6.6     30.412     34.218
REMARK  Name = 45783817
REMARK  8 active torsions:
REMARK  status: ('A' for Active; 'I' for Inactive)
REMARK    1  A    between atoms: N_2  and  C_11
REMARK    2  A    between atoms: N_6  and  C_25
REMARK    3  A    between atoms: N_6  and  C_26
REMARK    4  A    between atoms: N_6  and  C_27
REMARK    5  A    between atoms: C_7  and  C_12
REMARK    6  A    between atoms: C_11  and  C_13
REMARK    7  A    between atoms: C_16  and  C_20
REMARK    8  A    between atoms: C_19  and  C_21
REMARK                            x       y       z     vdW  Elec       q    Type
REMARK                         _______ _______ _______ _____ _____    ______ ____
ROOT
ATOM      1  O   UNL     1       9.986   4.541   5.573  0.00  0.00    -0.336 OA
ATOM      3  N   UNL     1      11.111   5.874   4.169  0.00  0.00    -0.190 NA
ATOM      4  N   UNL     1      10.168   3.802   4.397  0.00  0.00    -0.056 NA
ATOM     12  C   UNL     1      10.571   5.747   5.355  0.00  0.00    +0.245 A 
ATOM     16  C   UNL     1      10.838   4.656   3.618  0.00  0.00    +0.204 A 
ENDROOT
BRANCH  16  20
ATOM      5  N   UNL     1      10.668   4.028  -0.043  0.00  0.00    -0.240 NA
ATOM     20  C   UNL     1      11.250   4.324   2.284  0.00  0.00    +0.041 A 
ATOM     22  C   UNL     1      12.569   3.985   2.005  0.00  0.00    +0.016 A 
ATOM     23  C   UNL     1      10.346   4.330   1.234  0.00  0.00    +0.124 A 
ATOM     24  C   UNL     1      12.939   3.667   0.703  0.00  0.00    +0.044 A 
ATOM     25  C   UNL     1      11.959   3.702  -0.277  0.00  0.00    +0.121 A 
BRANCH  25   6
ATOM      6  N   UNL     1      12.352   3.378  -1.598  0.00  0.00    -0.321 N 
ATOM     26  C   UNL     1      11.550   2.478  -2.396  0.00  0.00    +0.130 C 
ATOM     27  C   UNL     1      13.554   3.953  -2.161  0.00  0.00    +0.130 C 
ENDBRANCH  25   6
ENDBRANCH  16  20
BRANCH  12   7
ATOM      2  N   UNL     1       9.395   7.701   6.352  0.00  0.00    -0.287 NA
ATOM      7  C   UNL     1      10.510   6.743   6.494  0.00  0.00    +0.146 C 
ATOM      8  C   UNL     1      10.277   6.071   7.860  0.00  0.00    +0.030 C 
ATOM      9  C   UNL     1       9.047   6.759   8.435  0.00  0.00    +0.017 C 
ATOM     10  C   UNL     1       9.006   8.087   7.708  0.00  0.00    +0.085 C 
BRANCH   2  11
ATOM     11  C   UNL     1       9.731   8.855   5.528  0.00  0.00    +0.120 C 
BRANCH  11  13
ATOM     13  C   UNL     1       8.714   9.086   4.442  0.00  0.00    -0.033 A 
ATOM     14  C   UNL     1       7.529   9.762   4.730  0.00  0.00    +0.005 A 
ATOM     15  C   UNL     1       8.954   8.618   3.150  0.00  0.00    +0.005 A 
ATOM     17  C   UNL     1       6.584   9.972   3.725  0.00  0.00    +0.003 A 
ATOM     18  C   UNL     1       8.010   8.829   2.146  0.00  0.00    +0.003 A 
ATOM     19  C   UNL     1       6.825   9.507   2.433  0.00  0.00    -0.050 A 
ATOM     21  C   UNL     1       5.815   9.732   1.358  0.00  0.00    +0.044 C 
ENDBRANCH  11  13
ENDBRANCH   2  11
ENDBRANCH  12   7
TORSDOF 5
ENDMDL
MODEL 4
REMARK VINA RESULT:      -6.6     18.698     20.375
REMARK  Name = 45783817
REMARK  8 active torsions:
REMARK  status: ('A' for Active; 'I' for Inactive)
REMARK    1  A    between atoms: N_2  and  C_11
REMARK    2  A    between atoms: N_6  and  C_25
REMARK    3  A    between atoms: N_6  and  C_26
REMARK    4  A    between atoms: N_6  and  C_27
REMARK    5  A    between atoms: C_7  and  C_12
REMARK    6  A    between atoms: C_11  and  C_13
REMARK    7  A    between atoms: C_16  and  C_20
REMARK    8  A    between atoms: C_19  and  C_21
REMARK                            x       y       z     vdW  Elec       q    Type
REMARK                         _______ _______ _______ _____ _____    ______ ____
ROOT
ATOM      1  O   UNL     1      -5.004 -11.956  16.723  0.00  0.00    -0.336 OA
ATOM      3  N   UNL     1      -5.383 -10.120  15.500  0.00  0.00    -0.190 NA
ATOM      4  N   UNL     1      -6.313 -11.556  17.019  0.00  0.00    -0.056 NA
ATOM     12  C   UNL     1      -4.529 -11.058  15.822  0.00  0.00    +0.245 A 
ATOM     16  C   UNL     1      -6.463 -10.467  16.259  0.00  0.00    +0.204 A 
ENDROOT
BRANCH  16  20
ATOM      5  N   UNL     1      -9.557  -8.853  14.977  0.00  0.00    -0.240 NA
ATOM     20  C   UNL     1      -7.677  -9.703  16.236  0.00  0.00    +0.041 A 
ATOM     22  C   UNL     1      -8.157  -9.085  17.384  0.00  0.00    +0.016 A 
ATOM     23  C   UNL     1      -8.408  -9.558  15.068  0.00  0.00    +0.124 A 
ATOM     24  C   UNL     1      -9.337  -8.351  17.332  0.00  0.00    +0.044 A 
ATOM     25  C   UNL     1      -9.993  -8.265  16.114  0.00  0.00    +0.121 A 
BRANCH  25   6
ATOM      6  N   UNL     1     -11.194  -7.516  16.077  0.00  0.00    -0.321 N 
ATOM     26  C   UNL     1     -12.467  -8.169  16.287  0.00  0.00    +0.130 C 
ATOM     27  C   UNL     1     -11.155  -6.090  15.838  0.00  0.00    +0.130 C 
ENDBRANCH  25   6
ENDBRANCH  16  20
BRANCH  12   7
ATOM      2  N   UNL     1      -2.818 -10.529  14.094  0.00  0.00    -0.287 NA
ATOM      7  C   UNL     1      -3.112 -11.274  15.335  0.00  0.00    +0.146 C 
ATOM      8  C   UNL     1      -2.056 -10.786  16.344  0.00  0.00    +0.030 C 
ATOM      9  C   UNL     1      -1.178  -9.818  15.563  0.00  0.00    +0.017 C 
ATOM     10  C   UNL     1      -1.385 -10.231  14.121  0.00  0.00    +0.085 C 
BRANCH   2  11
ATOM     11  C   UNL     1      -3.206 -11.248  12.888  0.00  0.00    +0.120 C 
BRANCH  11  13
ATOM     13  C   UNL     1      -3.934 -10.358  11.915  0.00  0.00    -0.033 A 
ATOM     14  C   UNL     1      -5.269 -10.025  12.139  0.00  0.00    +0.005 A 
ATOM     15  C   UNL     1      -3.274  -9.871  10.787  0.00  0.00    +0.005 A 
ATOM     17  C   UNL     1      -5.944  -9.204  11.236  0.00  0.00    +0.003 A 
ATOM     18  C   UNL     1      -3.948  -9.050   9.884  0.00  0.00    +0.003 A 
ATOM     19  C   UNL     1      -5.284  -8.716  10.109  0.00  0.00    -0.050 A 
ATOM     21  C   UNL     1      -6.006  -7.837   9.143  0.00  0.00    +0.044 C 
ENDBRANCH  11  13
ENDBRANCH   2  11
ENDBRANCH  12   7
TORSDOF 5
ENDMDL
MODEL 5
REMARK VINA RESULT:      -6.5     20.213     21.608
REMARK  Name = 45783817
REMARK  8 active torsions:
REMARK  status: ('A' for Active; 'I' for Inactive)
REMARK    1  A    between atoms: N_2  and  C_11
REMARK    2  A    between atoms: N_6  and  C_25
REMARK    3  A    between atoms: N_6  and  C_26
REMARK    4  A    between atoms: N_6  and  C_27
REMARK    5  A    between atoms: C_7  and  C_12
REMARK    6  A    between atoms: C_11  and  C_13
REMARK    7  A    between atoms: C_16  and  C_20
REMARK    8  A    between atoms: C_19  and  C_21
REMARK                            x       y       z     vdW  Elec       q    Type
REMARK                         _______ _______ _______ _____ _____    ______ ____
ROOT
ATOM      1  O   UNL     1      -8.000  -9.408  11.335  0.00  0.00    -0.336 OA
ATOM      3  N   UNL     1      -5.920  -9.323  12.158  0.00  0.00    -0.190 NA
ATOM      4  N   UNL     1      -8.099  -9.784  12.681  0.00  0.00    -0.056 NA
ATOM     12  C   UNL     1      -6.685  -9.154  11.110  0.00  0.00    +0.245 A 
ATOM     16  C   UNL     1      -6.831  -9.710  13.097  0.00  0.00    +0.204 A 
ENDROOT
BRANCH  16  20
ATOM      5  N   UNL     1      -7.051 -10.206  16.776  0.00  0.00    -0.240 NA
ATOM     20  C   UNL     1      -6.442 -10.016  14.444  0.00  0.00    +0.041 A 
ATOM     22  C   UNL     1      -5.143 -10.406  14.744  0.00  0.00    +0.016 A 
ATOM     23  C   UNL     1      -7.351  -9.933  15.487  0.00  0.00    +0.124 A 
ATOM     24  C   UNL     1      -4.794 -10.697  16.058  0.00  0.00    +0.044 A 
ATOM     25  C   UNL     1      -5.776 -10.582  17.029  0.00  0.00    +0.121 A 
BRANCH  25   6
ATOM      6  N   UNL     1      -5.407 -10.882  18.363  0.00  0.00    -0.321 N 
ATOM     26  C   UNL     1      -4.239 -11.692  18.630  0.00  0.00    +0.130 C 
ATOM     27  C   UNL     1      -6.191 -10.373  19.467  0.00  0.00    +0.130 C 
ENDBRANCH  25   6
ENDBRANCH  16  20
BRANCH  12   7
ATOM      2  N   UNL     1      -5.338  -9.633   9.073  0.00  0.00    -0.287 NA
ATOM      7  C   UNL     1      -6.310  -8.721   9.708  0.00  0.00    +0.146 C 
ATOM      8  C   UNL     1      -7.515  -8.704   8.749  0.00  0.00    +0.030 C 
ATOM      9  C   UNL     1      -7.103  -9.585   7.578  0.00  0.00    +0.017 C 
ATOM     10  C   UNL     1      -5.589  -9.568   7.633  0.00  0.00    +0.085 C 
BRANCH   2  11
ATOM     11  C   UNL     1      -3.954  -9.317   9.404  0.00  0.00    +0.120 C 
BRANCH  11  13
ATOM     13  C   UNL     1      -3.390 -10.270  10.425  0.00  0.00    -0.033 A 
ATOM     14  C   UNL     1      -2.439  -9.825  11.342  0.00  0.00    +0.005 A 
ATOM     15  C   UNL     1      -3.815 -11.598  10.450  0.00  0.00    +0.005 A 
ATOM     17  C   UNL     1      -1.914 -10.708  12.285  0.00  0.00    +0.003 A 
ATOM     18  C   UNL     1      -3.291 -12.480  11.393  0.00  0.00    +0.003 A 
ATOM     19  C   UNL     1      -2.340 -12.035  12.312  0.00  0.00    -0.050 A 
ATOM     21  C   UNL     1      -1.778 -12.979  13.321  0.00  0.00    +0.044 C 
ENDBRANCH  11  13
ENDBRANCH   2  11
ENDBRANCH  12   7
TORSDOF 5
ENDMDL
MODEL 6
REMARK VINA RESULT:      -6.5     28.854     32.663
REMARK  Name = 45783817
REMARK  8 active torsions:
REMARK  status: ('A' for Active; 'I' for Inactive)
REMARK    1  A    between atoms: N_2  and  C_11
REMARK    2  A    between atoms: N_6  and  C_25
REMARK    3  A    between atoms: N_6  and  C_26
REMARK    4  A    between atoms: N_6  and  C_27
REMARK    5  A    between atoms: C_7  and  C_12
REMARK    6  A    between atoms: C_11  and  C_13
REMARK    7  A    between atoms: C_16  and  C_20
REMARK    8  A    between atoms: C_19  and  C_21
REMARK                            x       y       z     vdW  Elec       q    Type
REMARK                         _______ _______ _______ _____ _____    ______ ____
ROOT
ATOM      1  O   UNL     1      15.549   9.759  21.360  0.00  0.00    -0.336 OA
ATOM      3  N   UNL     1      15.570   7.535  21.101  0.00  0.00    -0.190 NA
ATOM      4  N   UNL     1      16.898   9.387  21.303  0.00  0.00    -0.056 NA
ATOM     12  C   UNL     1      14.835   8.609  21.234  0.00  0.00    +0.245 A 
ATOM     16  C   UNL     1      16.828   8.061  21.150  0.00  0.00    +0.204 A 
ENDROOT
BRANCH  16  20
ATOM      5  N   UNL     1      20.211   6.677  21.834  0.00  0.00    -0.240 NA
ATOM     20  C   UNL     1      17.996   7.234  21.042  0.00  0.00    +0.041 A 
ATOM     22  C   UNL     1      18.073   6.223  20.092  0.00  0.00    +0.016 A 
ATOM     23  C   UNL     1      19.083   7.419  21.882  0.00  0.00    +0.124 A 
ATOM     24  C   UNL     1      19.217   5.437  20.011  0.00  0.00    +0.044 A 
ATOM     25  C   UNL     1      20.250   5.703  20.897  0.00  0.00    +0.121 A 
BRANCH  25   6
ATOM      6  N   UNL     1      21.408   4.893  20.803  0.00  0.00    -0.321 N 
ATOM     26  C   UNL     1      21.325   3.472  21.057  0.00  0.00    +0.130 C 
ATOM     27  C   UNL     1      22.680   5.482  20.444  0.00  0.00    +0.130 C 
ENDBRANCH  25   6
ENDBRANCH  16  20
BRANCH  12   7
ATOM      2  N   UNL     1      12.744   8.903  19.918  0.00  0.00    -0.287 NA
ATOM      7  C   UNL     1      13.327   8.744  21.265  0.00  0.00    +0.146 C 
ATOM      8  C   UNL     1      12.631   7.500  21.848  0.00  0.00    +0.030 C 
ATOM      9  C   UNL     1      11.632   7.069  20.784  0.00  0.00    +0.017 C 
ATOM     10  C   UNL     1      11.399   8.331  19.979  0.00  0.00    +0.085 C 
BRANCH   2  11
ATOM     11  C   UNL     1      12.731  10.286  19.458  0.00  0.00    +0.120 C 
BRANCH  11  13
ATOM     13  C   UNL     1      13.524  10.464  18.191  0.00  0.00    -0.033 A 
ATOM     14  C   UNL     1      14.464  11.488  18.095  0.00  0.00    +0.005 A 
ATOM     15  C   UNL     1      13.316   9.605  17.111  0.00  0.00    +0.005 A 
ATOM     17  C   UNL     1      15.197  11.655  16.920  0.00  0.00    +0.003 A 
ATOM     18  C   UNL     1      14.049   9.771  15.937  0.00  0.00    +0.003 A 
ATOM     19  C   UNL     1      14.990  10.796  15.841  0.00  0.00    -0.050 A 
ATOM     21  C   UNL     1      15.774  10.975  14.584  0.00  0.00    +0.044 C 
ENDBRANCH  11  13
ENDBRANCH   2  11
ENDBRANCH  12   7
TORSDOF 5
ENDMDL
MODEL 7
REMARK VINA RESULT:      -6.4     31.205     35.654
REMARK  Name = 45783817
REMARK  8 active torsions:
REMARK  status: ('A' for Active; 'I' for Inactive)
REMARK    1  A    between atoms: N_2  and  C_11
REMARK    2  A    between atoms: N_6  and  C_25
REMARK    3  A    between atoms: N_6  and  C_26
REMARK    4  A    between atoms: N_6  and  C_27
REMARK    5  A    between atoms: C_7  and  C_12
REMARK    6  A    between atoms: C_11  and  C_13
REMARK    7  A    between atoms: C_16  and  C_20
REMARK    8  A    between atoms: C_19  and  C_21
REMARK                            x       y       z     vdW  Elec       q    Type
REMARK                         _______ _______ _______ _____ _____    ______ ____
ROOT
ATOM      1  O   UNL     1      11.837   6.713   4.140  0.00  0.00    -0.336 OA
ATOM      3  N   UNL     1      10.788   4.820   3.568  0.00  0.00    -0.190 NA
ATOM      4  N   UNL     1      12.186   6.463   2.806  0.00  0.00    -0.056 NA
ATOM     12  C   UNL     1      11.013   5.699   4.511  0.00  0.00    +0.245 A 
ATOM     16  C   UNL     1      11.528   5.330   2.542  0.00  0.00    +0.204 A 
ENDROOT
BRANCH  16  20
ATOM      5  N   UNL     1      10.517   4.156  -0.839  0.00  0.00    -0.240 NA
ATOM     20  C   UNL     1      11.590   4.682   1.263  0.00  0.00    +0.041 A 
ATOM     22  C   UNL     1      12.720   3.974   0.872  0.00  0.00    +0.016 A 
ATOM     23  C   UNL     1      10.524   4.743   0.379  0.00  0.00    +0.124 A 
ATOM     24  C   UNL     1      12.751   3.356  -0.374  0.00  0.00    +0.044 A 
ATOM     25  C   UNL     1      11.633   3.475  -1.184  0.00  0.00    +0.121 A 
BRANCH  25   6
ATOM      6  N   UNL     1      11.681   2.842  -2.450  0.00  0.00    -0.321 N 
ATOM     26  C   UNL     1      12.743   3.154  -3.381  0.00  0.00    +0.130 C 
ATOM     27  C   UNL     1      10.672   1.873  -2.817  0.00  0.00    +0.130 C 
ENDBRANCH  25   6
ENDBRANCH  16  20
BRANCH  12   7
ATOM      2  N   UNL     1      11.031   6.877   6.703  0.00  0.00    -0.287 NA
ATOM      7  C   UNL     1      10.490   5.740   5.931  0.00  0.00    +0.146 C 
ATOM      8  C   UNL     1       8.961   5.914   5.998  0.00  0.00    +0.030 C 
ATOM      9  C   UNL     1       8.739   7.136   6.877  0.00  0.00    +0.017 C 
ATOM     10  C   UNL     1      10.012   7.227   7.693  0.00  0.00    +0.085 C 
BRANCH   2  11
ATOM     11  C   UNL     1      12.319   6.590   7.320  0.00  0.00    +0.120 C 
BRANCH  11  13
ATOM     13  C   UNL     1      13.367   7.598   6.927  0.00  0.00    -0.033 A 
ATOM     14  C   UNL     1      14.635   7.170   6.540  0.00  0.00    +0.005 A 
ATOM     15  C   UNL     1      13.068   8.960   6.955  0.00  0.00    +0.005 A 
ATOM     17  C   UNL     1      15.607   8.104   6.179  0.00  0.00    +0.003 A 
ATOM     18  C   UNL     1      14.039   9.894   6.593  0.00  0.00    +0.003 A 
ATOM     19  C   UNL     1      15.309   9.466   6.205  0.00  0.00    -0.050 A 
ATOM     21  C   UNL     1      16.347  10.465   5.819  0.00  0.00    +0.044 C 
ENDBRANCH  11  13
ENDBRANCH   2  11
ENDBRANCH  12   7
TORSDOF 5
ENDMDL
MODEL 8
REMARK VINA RESULT:      -6.3     18.800     20.160
REMARK  Name = 45783817
REMARK  8 active torsions:
REMARK  status: ('A' for Active; 'I' for Inactive)
REMARK    1  A    between atoms: N_2  and  C_11
REMARK    2  A    between atoms: N_6  and  C_25
REMARK    3  A    between atoms: N_6  and  C_26
REMARK    4  A    between atoms: N_6  and  C_27
REMARK    5  A    between atoms: C_7  and  C_12
REMARK    6  A    between atoms: C_11  and  C_13
REMARK    7  A    between atoms: C_16  and  C_20
REMARK    8  A    between atoms: C_19  and  C_21
REMARK                            x       y       z     vdW  Elec       q    Type
REMARK                         _______ _______ _______ _____ _____    ______ ____
ROOT
ATOM      1  O   UNL     1      -5.173  -9.628  15.810  0.00  0.00    -0.336 OA
ATOM      3  N   UNL     1      -5.515 -11.531  16.939  0.00  0.00    -0.190 NA
ATOM      4  N   UNL     1      -6.409  -9.482  16.453  0.00  0.00    -0.056 NA
ATOM     12  C   UNL     1      -4.715 -10.861  16.149  0.00  0.00    +0.245 A 
ATOM     16  C   UNL     1      -6.541 -10.646  17.098  0.00  0.00    +0.204 A 
ENDROOT
BRANCH  16  20
ATOM      5  N   UNL     1      -8.684 -12.324  19.630  0.00  0.00    -0.240 NA
ATOM     20  C   UNL     1      -7.684 -10.954  17.908  0.00  0.00    +0.041 A 
ATOM     22  C   UNL     1      -8.865 -10.233  17.785  0.00  0.00    +0.016 A 
ATOM     23  C   UNL     1      -7.645 -11.982  18.837  0.00  0.00    +0.124 A 
ATOM     24  C   UNL     1      -9.957 -10.554  18.584  0.00  0.00    +0.044 A 
ATOM     25  C   UNL     1      -9.817 -11.600  19.482  0.00  0.00    +0.121 A 
BRANCH  25   6
ATOM      6  N   UNL     1     -10.937 -11.915  20.289  0.00  0.00    -0.321 N 
ATOM     26  C   UNL     1     -10.989 -13.171  21.006  0.00  0.00    +0.130 C 
ATOM     27  C   UNL     1     -12.034 -10.979  20.410  0.00  0.00    +0.130 C 
ENDBRANCH  25   6
ENDBRANCH  16  20
BRANCH  12   7
ATOM      2  N   UNL     1      -3.096 -10.618  14.275  0.00  0.00    -0.287 NA
ATOM      7  C   UNL     1      -3.374 -11.265  15.573  0.00  0.00    +0.146 C 
ATOM      8  C   UNL     1      -2.193 -10.860  16.474  0.00  0.00    +0.030 C 
ATOM      9  C   UNL     1      -1.275 -10.039  15.579  0.00  0.00    +0.017 C 
ATOM     10  C   UNL     1      -1.641 -10.490  14.180  0.00  0.00    +0.085 C 
BRANCH   2  11
ATOM     11  C   UNL     1      -3.658 -11.340  13.142  0.00  0.00    +0.120 C 
BRANCH  11  13
ATOM     13  C   UNL     1      -4.249 -10.406  12.119  0.00  0.00    -0.033 A 
ATOM     14  C   UNL     1      -5.531  -9.890  12.305  0.00  0.00    +0.005 A 
ATOM     15  C   UNL     1      -3.517 -10.061  10.984  0.00  0.00    +0.005 A 
ATOM     17  C   UNL     1      -6.080  -9.028  11.356  0.00  0.00    +0.003 A 
ATOM     18  C   UNL     1      -4.065  -9.198  10.035  0.00  0.00    +0.003 A 
ATOM     19  C   UNL     1      -5.348  -8.681  10.222  0.00  0.00    -0.050 A 
ATOM     21  C   UNL     1      -5.935  -7.759   9.207  0.00  0.00    +0.044 C 
ENDBRANCH  11  13
ENDBRANCH   2  11
ENDBRANCH  12   7
TORSDOF 5
ENDMDL
MODEL 9
REMARK VINA RESULT:      -6.3     28.231     31.999
REMARK  Name = 45783817
REMARK  8 active torsions:
REMARK  status: ('A' for Active; 'I' for Inactive)
REMARK    1  A    between atoms: N_2  and  C_11
REMARK    2  A    between atoms: N_6  and  C_25
REMARK    3  A    between atoms: N_6  and  C_26
REMARK    4  A    between atoms: N_6  and  C_27
REMARK    5  A    between atoms: C_7  and  C_12
REMARK    6  A    between atoms: C_11  and  C_13
REMARK    7  A    between atoms: C_16  and  C_20
REMARK    8  A    between atoms: C_19  and  C_21
REMARK                            x       y       z     vdW  Elec       q    Type
REMARK                         _______ _______ _______ _____ _____    ______ ____
ROOT
ATOM      1  O   UNL     1      15.311   6.215  18.649  0.00  0.00    -0.336 OA
ATOM      3  N   UNL     1      15.455   7.448  20.512  0.00  0.00    -0.190 NA
ATOM      4  N   UNL     1      16.664   6.212  19.015  0.00  0.00    -0.056 NA
ATOM     12  C   UNL     1      14.670   6.964  19.583  0.00  0.00    +0.245 A 
ATOM     16  C   UNL     1      16.668   6.960  20.122  0.00  0.00    +0.204 A 
ENDROOT
BRANCH  16  20
ATOM      5  N   UNL     1      20.050   6.516  21.601  0.00  0.00    -0.240 NA
ATOM     20  C   UNL     1      17.865   7.239  20.861  0.00  0.00    +0.041 A 
ATOM     22  C   UNL     1      18.027   8.443  21.535  0.00  0.00    +0.016 A 
ATOM     23  C   UNL     1      18.898   6.317  20.924  0.00  0.00    +0.124 A 
ATOM     24  C   UNL     1      19.199   8.687  22.243  0.00  0.00    +0.044 A 
ATOM     25  C   UNL     1      20.171   7.699  22.245  0.00  0.00    +0.121 A 
BRANCH  25   6
ATOM      6  N   UNL     1      21.360   7.962  22.969  0.00  0.00    -0.321 N 
ATOM     26  C   UNL     1      21.824   9.321  23.138  0.00  0.00    +0.130 C 
ATOM     27  C   UNL     1      22.113   6.873  23.552  0.00  0.00    +0.130 C 
ENDBRANCH  25   6
ENDBRANCH  16  20
BRANCH  12   7
ATOM      2  N   UNL     1      12.648   8.321  20.096  0.00  0.00    -0.287 NA
ATOM      7  C   UNL     1      13.174   7.124  19.410  0.00  0.00    +0.146 C 
ATOM      8  C   UNL     1      12.761   7.302  17.938  0.00  0.00    +0.030 C 
ATOM      9  C   UNL     1      11.956   8.594  17.905  0.00  0.00    +0.017 C 
ATOM     10  C   UNL     1      11.476   8.752  19.333  0.00  0.00    +0.085 C 
BRANCH   2  11
ATOM     11  C   UNL     1      12.333   8.087  21.499  0.00  0.00    +0.120 C 
BRANCH  11  13
ATOM     13  C   UNL     1      12.206   9.376  22.268  0.00  0.00    -0.033 A 
ATOM     14  C   UNL     1      13.281  10.261  22.327  0.00  0.00    +0.005 A 
ATOM     15  C   UNL     1      11.014   9.681  22.924  0.00  0.00    +0.005 A 
ATOM     17  C   UNL     1      13.164  11.453  23.042  0.00  0.00    +0.003 A 
ATOM     18  C   UNL     1      10.897  10.873  23.639  0.00  0.00    +0.003 A 
ATOM     19  C   UNL     1      11.972  11.760  23.697  0.00  0.00    -0.050 A 
ATOM     21  C   UNL     1      11.848  13.034  24.462  0.00  0.00    +0.044 C 
ENDBRANCH  11  13
ENDBRANCH   2  11
ENDBRANCH  12   7
TORSDOF 5
ENDMDL
MODEL 10
REMARK VINA RESULT:      -6.3     32.962     36.816
REMARK  Name = 45783817
REMARK  8 active torsions:
REMARK  status: ('A' for Active; 'I' for Inactive)
REMARK    1  A    between atoms: N_2  and  C_11
REMARK    2  A    between atoms: N_6  and  C_25
REMARK    3  A    between atoms: N_6  and  C_26
REMARK    4  A    between atoms: N_6  and  C_27
REMARK    5  A    between atoms: C_7  and  C_12
REMARK    6  A    between atoms: C_11  and  C_13
REMARK    7  A    between atoms: C_16  and  C_20
REMARK    8  A    between atoms: C_19  and  C_21
REMARK                            x       y       z     vdW  Elec       q    Type
REMARK                         _______ _______ _______ _____ _____    ______ ____
ROOT
ATOM      1  O   UNL     1      20.501   7.316  22.614  0.00  0.00    -0.336 OA
ATOM      3  N   UNL     1      19.867   6.132  20.822  0.00  0.00    -0.190 NA
ATOM      4  N   UNL     1      19.211   7.758  22.293  0.00  0.00    -0.056 NA
ATOM     12  C   UNL     1      20.811   6.360  21.700  0.00  0.00    +0.245 A 
ATOM     16  C   UNL     1      18.906   7.013  21.226  0.00  0.00    +0.204 A 
ENDROOT
BRANCH  16  20
ATOM      5  N   UNL     1      16.063   6.189  18.976  0.00  0.00    -0.240 NA
ATOM     20  C   UNL     1      17.650   7.124  20.541  0.00  0.00    +0.041 A 
ATOM     22  C   UNL     1      16.816   8.216  20.746  0.00  0.00    +0.016 A 
ATOM     23  C   UNL     1      17.231   6.146  19.653  0.00  0.00    +0.124 A 
ATOM     24  C   UNL     1      15.604   8.297  20.068  0.00  0.00    +0.044 A 
ATOM     25  C   UNL     1      15.277   7.267  19.201  0.00  0.00    +0.121 A 
BRANCH  25   6
ATOM      6  N   UNL     1      14.040   7.362  18.518  0.00  0.00    -0.321 N 
ATOM     26  C   UNL     1      14.005   7.740  17.123  0.00  0.00    +0.130 C 
ATOM     27  C   UNL     1      12.803   7.074  19.211  0.00  0.00    +0.130 C 
ENDBRANCH  25   6
ENDBRANCH  16  20
BRANCH  12   7
ATOM      2  N   UNL     1      22.447   4.738  20.760  0.00  0.00    -0.287 NA
ATOM      7  C   UNL     1      22.175   5.716  21.832  0.00  0.00    +0.146 C 
ATOM      8  C   UNL     1      23.326   6.734  21.735  0.00  0.00    +0.030 C 
ATOM      9  C   UNL     1      24.224   6.211  20.623  0.00  0.00    +0.017 C 
ATOM     10  C   UNL     1      23.896   4.734  20.562  0.00  0.00    +0.085 C 
BRANCH   2  11
ATOM     11  C   UNL     1      21.930   3.407  21.052  0.00  0.00    +0.120 C 
BRANCH  11  13
ATOM     13  C   UNL     1      22.973   2.527  21.689  0.00  0.00    -0.033 A 
ATOM     14  C   UNL     1      23.769   1.703  20.895  0.00  0.00    +0.005 A 
ATOM     15  C   UNL     1      23.141   2.534  23.074  0.00  0.00    +0.005 A 
ATOM     17  C   UNL     1      24.733   0.885  21.485  0.00  0.00    +0.003 A 
ATOM     18  C   UNL     1      24.105   1.717  23.664  0.00  0.00    +0.003 A 
ATOM     19  C   UNL     1      24.902   0.893  22.869  0.00  0.00    -0.050 A 
ATOM     21  C   UNL     1      25.933   0.019  23.500  0.00  0.00    +0.044 C 
ENDBRANCH  11  13
ENDBRANCH   2  11
ENDBRANCH  12   7
TORSDOF 5
ENDMDL
