MODEL 1
REMARK VINA RESULT:      -7.9      0.000      0.000
REMARK  Name = 11913200
REMARK  7 active torsions:
REMARK  status: ('A' for Active; 'I' for Inactive)
REMARK    1  A    between atoms: O_7  and  C_35
REMARK    2  A    between atoms: O_7  and  C_36
REMARK    3  A    between atoms: N_8  and  C_14
REMARK    4  A    between atoms: N_9  and  C_15
REMARK    5  A    between atoms: C_18  and  C_20
REMARK    6  A    between atoms: C_21  and  C_28
REMARK    7  A    between atoms: C_29  and  C_32
REMARK                            x       y       z     vdW  Elec       q    Type
REMARK                         _______ _______ _______ _____ _____    ______ ____
ROOT
ATOM      4  O   UNL     1      -6.239 -11.642  10.348  0.00  0.00    -0.370 OA
ATOM      5  O   UNL     1      -5.169  -8.724  10.636  0.00  0.00    -0.370 OA
ATOM     12  C   UNL     1      -4.815  -9.823   9.780  0.00  0.00    +0.171 C 
ATOM     13  C   UNL     1      -4.935 -11.093  10.601  0.00  0.00    +0.171 C 
ATOM     14  C   UNL     1      -5.846  -9.993   8.688  0.00  0.00    +0.130 C 
ATOM     15  C   UNL     1      -4.835 -10.617  12.031  0.00  0.00    +0.130 C 
ATOM     16  C   UNL     1      -6.911 -10.831   9.373  0.00  0.00    +0.185 C 
ATOM     17  C   UNL     1      -5.420  -9.219  11.960  0.00  0.00    +0.185 C 
ENDROOT
BRANCH  15   9
ATOM      9  N   UNL     1      -3.448 -10.560  12.438  0.00  0.00    -0.306 N 
ATOM     10  N   UNL     1      -3.999 -10.633  14.718  0.00  0.00    -0.214 NA
ATOM     11  N   UNL     1      -1.700 -10.512  14.004  0.00  0.00    -0.223 NA
ATOM     19  C   UNL     1      -3.036 -10.569  13.759  0.00  0.00    +0.216 A 
ATOM     21  C   UNL     1      -3.563 -10.639  15.995  0.00  0.00    +0.076 A 
ATOM     24  C   UNL     1      -1.334 -10.523  15.303  0.00  0.00    +0.116 A 
ATOM     25  C   UNL     1      -2.231 -10.586  16.350  0.00  0.00    +0.048 A 
ATOM     38  H   UNL     1      -2.720 -10.566  11.732  0.00  0.00    +0.149 HD
BRANCH  21  28
ATOM     28  C   UNL     1      -4.600 -10.708  16.996  0.00  0.00    +0.001 A 
ATOM     30  C   UNL     1      -5.836 -10.102  16.766  0.00  0.00    +0.013 A 
ATOM     31  C   UNL     1      -4.370 -11.382  18.198  0.00  0.00    +0.013 A 
ATOM     33  C   UNL     1      -6.839 -10.169  17.735  0.00  0.00    +0.046 A 
ATOM     34  C   UNL     1      -5.373 -11.448  19.166  0.00  0.00    +0.046 A 
ATOM     35  C   UNL     1      -6.607 -10.841  18.934  0.00  0.00    +0.120 A 
BRANCH  35   7
ATOM      7  O   UNL     1      -7.584 -10.905  19.879  0.00  0.00    -0.495 OA
ATOM     36  C   UNL     1      -8.853 -11.412  19.467  0.00  0.00    +0.277 C 
ENDBRANCH  35   7
ENDBRANCH  21  28
ENDBRANCH  15   9
BRANCH  14   8
ATOM      6  O   UNL     1      -6.893 -10.005   6.014  0.00  0.00    -0.270 OA
ATOM      8  N   UNL     1      -5.291 -10.682   7.548  0.00  0.00    -0.304 N 
ATOM     18  C   UNL     1      -5.870 -10.629   6.289  0.00  0.00    +0.244 C 
ATOM     37  H   UNL     1      -4.513 -11.311   7.726  0.00  0.00    +0.149 HD
BRANCH  18  20
ATOM     20  C   UNL     1      -5.192 -11.415   5.226  0.00  0.00    +0.037 A 
ATOM     22  C   UNL     1      -3.895 -11.838   5.434  0.00  0.00    +0.013 A 
ATOM     23  C   UNL     1      -5.882 -11.698   4.065  0.00  0.00    +0.013 A 
ATOM     26  C   UNL     1      -3.261 -12.578   4.437  0.00  0.00    +0.013 A 
ATOM     27  C   UNL     1      -5.248 -12.437   3.068  0.00  0.00    +0.013 A 
ATOM     29  C   UNL     1      -3.936 -12.877   3.254  0.00  0.00    +0.055 A 
BRANCH  29  32
ATOM      1  F   UNL     1      -3.202 -13.026   0.982  0.00  0.00    -0.166 F 
ATOM      2  F   UNL     1      -3.857 -14.865   1.925  0.00  0.00    -0.166 F 
ATOM      3  F   UNL     1      -1.962 -13.967   2.499  0.00  0.00    -0.166 F 
ATOM     32  C   UNL     1      -3.256 -13.667   2.186  0.00  0.00    +0.417 C 
ENDBRANCH  29  32
ENDBRANCH  18  20
ENDBRANCH  14   8
TORSDOF 6
ENDMDL
MODEL 2
REMARK VINA RESULT:      -7.8     25.077     26.755
REMARK  Name = 11913200
REMARK  7 active torsions:
REMARK  status: ('A' for Active; 'I' for Inactive)
REMARK    1  A    between atoms: O_7  and  C_35
REMARK    2  A    between atoms: O_7  and  C_36
REMARK    3  A    between atoms: N_8  and  C_14
REMARK    4  A    between atoms: N_9  and  C_15
REMARK    5  A    between atoms: C_18  and  C_20
REMARK    6  A    between atoms: C_21  and  C_28
REMARK    7  A    between atoms: C_29  and  C_32
REMARK                            x       y       z     vdW  Elec       q    Type
REMARK                         _______ _______ _______ _____ _____    ______ ____
ROOT
ATOM      4  O   UNL     1       9.664  11.746  12.155  0.00  0.00    -0.370 OA
ATOM      5  O   UNL     1      10.856  14.027  10.390  0.00  0.00    -0.370 OA
ATOM     12  C   UNL     1      10.836  12.595  10.268  0.00  0.00    +0.171 C 
ATOM     13  C   UNL     1      10.986  12.020  11.663  0.00  0.00    +0.171 C 
ATOM     14  C   UNL     1       9.471  12.124   9.820  0.00  0.00    +0.130 C 
ATOM     15  C   UNL     1      11.619  13.138  12.456  0.00  0.00    +0.130 C 
ATOM     16  C   UNL     1       8.707  12.052  11.131  0.00  0.00    +0.185 C 
ATOM     17  C   UNL     1      11.093  14.380  11.761  0.00  0.00    +0.185 C 
ENDROOT
BRANCH  15   9
ATOM      9  N   UNL     1      13.060  13.073  12.342  0.00  0.00    -0.306 N 
ATOM     10  N   UNL     1      13.246  11.576  14.140  0.00  0.00    -0.214 NA
ATOM     11  N   UNL     1      15.202  12.330  12.952  0.00  0.00    -0.223 NA
ATOM     19  C   UNL     1      13.860  12.303  13.169  0.00  0.00    +0.216 A 
ATOM     21  C   UNL     1      14.055  10.838  14.928  0.00  0.00    +0.076 A 
ATOM     24  C   UNL     1      15.951  11.569  13.776  0.00  0.00    +0.116 A 
ATOM     25  C   UNL     1      15.427  10.795  14.791  0.00  0.00    +0.048 A 
ATOM     38  H   UNL     1      13.523  13.569  11.589  0.00  0.00    +0.149 HD
BRANCH  21  28
ATOM     28  C   UNL     1      13.383  10.073  15.951  0.00  0.00    +0.001 A 
ATOM     30  C   UNL     1      13.990   9.878  17.193  0.00  0.00    +0.013 A 
ATOM     31  C   UNL     1      12.122   9.524  15.701  0.00  0.00    +0.013 A 
ATOM     33  C   UNL     1      13.340   9.137  18.181  0.00  0.00    +0.046 A 
ATOM     34  C   UNL     1      11.473   8.784  16.690  0.00  0.00    +0.046 A 
ATOM     35  C   UNL     1      12.082   8.590  17.929  0.00  0.00    +0.120 A 
BRANCH  35   7
ATOM      7  O   UNL     1      11.449   7.867  18.893  0.00  0.00    -0.495 OA
ATOM     36  C   UNL     1      10.998   8.577  20.045  0.00  0.00    +0.277 C 
ENDBRANCH  35   7
ENDBRANCH  21  28
ENDBRANCH  15   9
BRANCH  14   8
ATOM      6  O   UNL     1       9.426  11.589   7.000  0.00  0.00    -0.270 OA
ATOM      8  N   UNL     1       9.547  10.829   9.188  0.00  0.00    -0.304 N 
ATOM     18  C   UNL     1       9.518  10.670   7.810  0.00  0.00    +0.244 C 
ATOM     37  H   UNL     1       9.507  10.018   9.797  0.00  0.00    +0.149 HD
BRANCH  18  20
ATOM     20  C   UNL     1       9.578   9.270   7.315  0.00  0.00    +0.037 A 
ATOM     22  C   UNL     1      10.171   9.019   6.095  0.00  0.00    +0.013 A 
ATOM     23  C   UNL     1       9.040   8.266   8.093  0.00  0.00    +0.013 A 
ATOM     26  C   UNL     1      10.229   7.705   5.632  0.00  0.00    +0.013 A 
ATOM     27  C   UNL     1       9.098   6.952   7.630  0.00  0.00    +0.013 A 
ATOM     29  C   UNL     1       9.692   6.671   6.400  0.00  0.00    +0.055 A 
BRANCH  29  32
ATOM      1  F   UNL     1      10.843   5.008   5.122  0.00  0.00    -0.166 F 
ATOM      2  F   UNL     1       8.678   4.907   5.142  0.00  0.00    -0.166 F 
ATOM      3  F   UNL     1       9.805   4.353   6.916  0.00  0.00    -0.166 F 
ATOM     32  C   UNL     1       9.753   5.266   5.904  0.00  0.00    +0.417 C 
ENDBRANCH  29  32
ENDBRANCH  18  20
ENDBRANCH  14   8
TORSDOF 6
ENDMDL
MODEL 3
REMARK VINA RESULT:      -7.8      5.890     12.225
REMARK  Name = 11913200
REMARK  7 active torsions:
REMARK  status: ('A' for Active; 'I' for Inactive)
REMARK    1  A    between atoms: O_7  and  C_35
REMARK    2  A    between atoms: O_7  and  C_36
REMARK    3  A    between atoms: N_8  and  C_14
REMARK    4  A    between atoms: N_9  and  C_15
REMARK    5  A    between atoms: C_18  and  C_20
REMARK    6  A    between atoms: C_21  and  C_28
REMARK    7  A    between atoms: C_29  and  C_32
REMARK                            x       y       z     vdW  Elec       q    Type
REMARK                         _______ _______ _______ _____ _____    ______ ____
ROOT
ATOM      4  O   UNL     1      -5.341 -11.538  10.711  0.00  0.00    -0.370 OA
ATOM      5  O   UNL     1      -3.752  -8.909  10.160  0.00  0.00    -0.370 OA
ATOM     12  C   UNL     1      -4.548  -9.365  11.266  0.00  0.00    +0.171 C 
ATOM     13  C   UNL     1      -5.712 -10.150  10.693  0.00  0.00    +0.171 C 
ATOM     14  C   UNL     1      -3.782 -10.385  12.079  0.00  0.00    +0.130 C 
ATOM     15  C   UNL     1      -5.825  -9.655   9.271  0.00  0.00    +0.130 C 
ATOM     16  C   UNL     1      -4.048 -11.672  11.318  0.00  0.00    +0.185 C 
ATOM     17  C   UNL     1      -4.393  -9.285   8.931  0.00  0.00    +0.185 C 
ENDROOT
BRANCH  15   9
ATOM      9  N   UNL     1      -6.670  -8.482   9.219  0.00  0.00    -0.306 N 
ATOM     10  N   UNL     1      -7.284  -8.886   6.991  0.00  0.00    -0.214 NA
ATOM     11  N   UNL     1      -8.148  -6.980   8.186  0.00  0.00    -0.223 NA
ATOM     19  C   UNL     1      -7.390  -8.105   8.099  0.00  0.00    +0.216 A 
ATOM     21  C   UNL     1      -7.998  -8.489   5.916  0.00  0.00    +0.076 A 
ATOM     24  C   UNL     1      -8.835  -6.641   7.075  0.00  0.00    +0.116 A 
ATOM     25  C   UNL     1      -8.797  -7.365   5.901  0.00  0.00    +0.048 A 
ATOM     38  H   UNL     1      -6.798  -7.923  10.055  0.00  0.00    +0.149 HD
BRANCH  21  28
ATOM     28  C   UNL     1      -7.873  -9.333   4.752  0.00  0.00    +0.001 A 
ATOM     30  C   UNL     1      -7.005 -10.427   4.770  0.00  0.00    +0.013 A 
ATOM     31  C   UNL     1      -8.619  -9.057   3.604  0.00  0.00    +0.013 A 
ATOM     33  C   UNL     1      -6.884 -11.242   3.644  0.00  0.00    +0.046 A 
ATOM     34  C   UNL     1      -8.497  -9.873   2.478  0.00  0.00    +0.046 A 
ATOM     35  C   UNL     1      -7.630 -10.964   2.498  0.00  0.00    +0.120 A 
BRANCH  35   7
ATOM      7  O   UNL     1      -7.511 -11.759   1.400  0.00  0.00    -0.495 OA
ATOM     36  C   UNL     1      -8.342 -11.450   0.282  0.00  0.00    +0.277 C 
ENDBRANCH  35   7
ENDBRANCH  21  28
ENDBRANCH  15   9
BRANCH  14   8
ATOM      6  O   UNL     1      -2.226 -10.660  14.476  0.00  0.00    -0.270 OA
ATOM      8  N   UNL     1      -4.286 -10.461  13.429  0.00  0.00    -0.304 N 
ATOM     18  C   UNL     1      -3.452 -10.594  14.530  0.00  0.00    +0.244 C 
ATOM     37  H   UNL     1      -5.293 -10.531  13.539  0.00  0.00    +0.149 HD
BRANCH  18  20
ATOM     20  C   UNL     1      -4.127 -10.686  15.850  0.00  0.00    +0.037 A 
ATOM     22  C   UNL     1      -5.390 -10.149  15.993  0.00  0.00    +0.013 A 
ATOM     23  C   UNL     1      -3.468 -11.307  16.892  0.00  0.00    +0.013 A 
ATOM     26  C   UNL     1      -6.023 -10.237  17.232  0.00  0.00    +0.013 A 
ATOM     27  C   UNL     1      -4.101 -11.395  18.131  0.00  0.00    +0.013 A 
ATOM     29  C   UNL     1      -5.379 -10.860  18.301  0.00  0.00    +0.055 A 
BRANCH  29  32
ATOM      1  F   UNL     1      -6.335  -9.738  20.185  0.00  0.00    -0.166 F 
ATOM      2  F   UNL     1      -5.324 -11.617  20.570  0.00  0.00    -0.166 F 
ATOM      3  F   UNL     1      -7.250 -11.609  19.562  0.00  0.00    -0.166 F 
ATOM     32  C   UNL     1      -6.056 -10.953  19.627  0.00  0.00    +0.417 C 
ENDBRANCH  29  32
ENDBRANCH  18  20
ENDBRANCH  14   8
TORSDOF 6
ENDMDL
MODEL 4
REMARK VINA RESULT:      -7.8     22.809     24.728
REMARK  Name = 11913200
REMARK  7 active torsions:
REMARK  status: ('A' for Active; 'I' for Inactive)
REMARK    1  A    between atoms: O_7  and  C_35
REMARK    2  A    between atoms: O_7  and  C_36
REMARK    3  A    between atoms: N_8  and  C_14
REMARK    4  A    between atoms: N_9  and  C_15
REMARK    5  A    between atoms: C_18  and  C_20
REMARK    6  A    between atoms: C_21  and  C_28
REMARK    7  A    between atoms: C_29  and  C_32
REMARK                            x       y       z     vdW  Elec       q    Type
REMARK                         _______ _______ _______ _____ _____    ______ ____
ROOT
ATOM      4  O   UNL     1       4.579  10.292   3.491  0.00  0.00    -0.370 OA
ATOM      5  O   UNL     1       6.259  12.921   3.577  0.00  0.00    -0.370 OA
ATOM     12  C   UNL     1       6.183  11.772   4.437  0.00  0.00    +0.171 C 
ATOM     13  C   UNL     1       4.733  11.329   4.474  0.00  0.00    +0.171 C 
ATOM     14  C   UNL     1       6.910  10.601   3.815  0.00  0.00    +0.130 C 
ATOM     15  C   UNL     1       3.961  12.560   4.063  0.00  0.00    +0.130 C 
ATOM     16  C   UNL     1       5.854  10.017   2.893  0.00  0.00    +0.185 C 
ATOM     17  C   UNL     1       4.936  13.274   3.144  0.00  0.00    +0.185 C 
ENDROOT
BRANCH  15   9
ATOM      9  N   UNL     1       3.677  13.377   5.223  0.00  0.00    -0.306 N 
ATOM     10  N   UNL     1       1.657  12.262   5.650  0.00  0.00    -0.214 NA
ATOM     11  N   UNL     1       2.400  14.063   7.069  0.00  0.00    -0.223 NA
ATOM     19  C   UNL     1       2.544  13.229   6.004  0.00  0.00    +0.216 A 
ATOM     21  C   UNL     1       0.564  12.146   6.433  0.00  0.00    +0.076 A 
ATOM     24  C   UNL     1       1.284  13.891   7.808  0.00  0.00    +0.116 A 
ATOM     25  C   UNL     1       0.323  12.940   7.535  0.00  0.00    +0.048 A 
ATOM     38  H   UNL     1       4.357  14.065   5.527  0.00  0.00    +0.149 HD
BRANCH  21  28
ATOM     28  C   UNL     1      -0.364  11.112   6.040  0.00  0.00    +0.001 A 
ATOM     30  C   UNL     1      -0.996  10.333   7.012  0.00  0.00    +0.013 A 
ATOM     31  C   UNL     1      -0.633  10.888   4.688  0.00  0.00    +0.013 A 
ATOM     33  C   UNL     1      -1.892   9.333   6.631  0.00  0.00    +0.046 A 
ATOM     34  C   UNL     1      -1.529   9.888   4.309  0.00  0.00    +0.046 A 
ATOM     35  C   UNL     1      -2.158   9.111   5.280  0.00  0.00    +0.120 A 
BRANCH  35   7
ATOM      7  O   UNL     1      -3.032   8.135   4.910  0.00  0.00    -0.495 OA
ATOM     36  C   UNL     1      -4.328   8.552   4.484  0.00  0.00    +0.277 C 
ENDBRANCH  35   7
ENDBRANCH  21  28
ENDBRANCH  15   9
BRANCH  14   8
ATOM      6  O   UNL     1       9.025   8.673   3.590  0.00  0.00    -0.270 OA
ATOM      8  N   UNL     1       7.315   9.645   4.818  0.00  0.00    -0.304 N 
ATOM     18  C   UNL     1       8.354   8.749   4.617  0.00  0.00    +0.244 C 
ATOM     37  H   UNL     1       6.730   9.573   5.645  0.00  0.00    +0.149 HD
BRANCH  18  20
ATOM     20  C   UNL     1       8.631   7.812   5.736  0.00  0.00    +0.037 A 
ATOM     22  C   UNL     1       8.876   6.484   5.449  0.00  0.00    +0.013 A 
ATOM     23  C   UNL     1       8.635   8.299   7.026  0.00  0.00    +0.013 A 
ATOM     26  C   UNL     1       9.138   5.606   6.500  0.00  0.00    +0.013 A 
ATOM     27  C   UNL     1       8.896   7.421   8.077  0.00  0.00    +0.013 A 
ATOM     29  C   UNL     1       9.148   6.074   7.814  0.00  0.00    +0.055 A 
BRANCH  29  32
ATOM      1  F   UNL     1       9.626   3.843   8.535  0.00  0.00    -0.166 F 
ATOM      2  F   UNL     1       8.419   5.066   9.857  0.00  0.00    -0.166 F 
ATOM      3  F   UNL     1      10.543   5.474   9.643  0.00  0.00    -0.166 F 
ATOM     32  C   UNL     1       9.426   5.133   8.937  0.00  0.00    +0.417 C 
ENDBRANCH  29  32
ENDBRANCH  18  20
ENDBRANCH  14   8
TORSDOF 6
ENDMDL
MODEL 5
REMARK VINA RESULT:      -7.6     22.221     24.770
REMARK  Name = 11913200
REMARK  7 active torsions:
REMARK  status: ('A' for Active; 'I' for Inactive)
REMARK    1  A    between atoms: O_7  and  C_35
REMARK    2  A    between atoms: O_7  and  C_36
REMARK    3  A    between atoms: N_8  and  C_14
REMARK    4  A    between atoms: N_9  and  C_15
REMARK    5  A    between atoms: C_18  and  C_20
REMARK    6  A    between atoms: C_21  and  C_28
REMARK    7  A    between atoms: C_29  and  C_32
REMARK                            x       y       z     vdW  Elec       q    Type
REMARK                         _______ _______ _______ _____ _____    ______ ____
ROOT
ATOM      4  O   UNL     1       7.052   6.723  -2.912  0.00  0.00    -0.370 OA
ATOM      5  O   UNL     1       8.033   7.501  -5.770  0.00  0.00    -0.370 OA
ATOM     12  C   UNL     1       7.255   6.406  -5.260  0.00  0.00    +0.171 C 
ATOM     13  C   UNL     1       7.828   6.035  -3.907  0.00  0.00    +0.171 C 
ATOM     14  C   UNL     1       5.847   6.861  -4.951  0.00  0.00    +0.130 C 
ATOM     15  C   UNL     1       9.237   6.579  -3.941  0.00  0.00    +0.130 C 
ATOM     16  C   UNL     1       5.993   7.445  -3.557  0.00  0.00    +0.185 C 
ATOM     17  C   UNL     1       9.108   7.780  -4.860  0.00  0.00    +0.185 C 
ENDROOT
BRANCH  15   9
ATOM      9  N   UNL     1      10.132   5.601  -4.520  0.00  0.00    -0.306 N 
ATOM     10  N   UNL     1      10.794   4.800  -2.415  0.00  0.00    -0.214 NA
ATOM     11  N   UNL     1      11.696   3.853  -4.440  0.00  0.00    -0.223 NA
ATOM     19  C   UNL     1      10.896   4.725  -3.769  0.00  0.00    +0.216 A 
ATOM     21  C   UNL     1      11.554   3.932  -1.715  0.00  0.00    +0.076 A 
ATOM     24  C   UNL     1      12.428   3.014  -3.677  0.00  0.00    +0.116 A 
ATOM     25  C   UNL     1      12.396   3.009  -2.298  0.00  0.00    +0.048 A 
ATOM     38  H   UNL     1      10.176   5.500  -5.528  0.00  0.00    +0.149 HD
BRANCH  21  28
ATOM     28  C   UNL     1      11.428   4.028  -0.281  0.00  0.00    +0.001 A 
ATOM     30  C   UNL     1      10.333   4.684   0.284  0.00  0.00    +0.013 A 
ATOM     31  C   UNL     1      12.403   3.465   0.547  0.00  0.00    +0.013 A 
ATOM     33  C   UNL     1      10.212   4.777   1.672  0.00  0.00    +0.046 A 
ATOM     34  C   UNL     1      12.281   3.559   1.934  0.00  0.00    +0.046 A 
ATOM     35  C   UNL     1      11.187   4.215   2.496  0.00  0.00    +0.120 A 
BRANCH  35   7
ATOM      7  O   UNL     1      11.070   4.307   3.849  0.00  0.00    -0.495 OA
ATOM     36  C   UNL     1      10.884   5.610   4.397  0.00  0.00    +0.277 C 
ENDBRANCH  35   7
ENDBRANCH  21  28
ENDBRANCH  15   9
BRANCH  14   8
ATOM      6  O   UNL     1       3.002   6.995  -5.313  0.00  0.00    -0.270 OA
ATOM      8  N   UNL     1       4.925   5.750  -4.959  0.00  0.00    -0.304 N 
ATOM     18  C   UNL     1       3.560   5.915  -5.142  0.00  0.00    +0.244 C 
ATOM     37  H   UNL     1       5.301   4.841  -4.708  0.00  0.00    +0.149 HD
BRANCH  18  20
ATOM     20  C   UNL     1       2.743   4.674  -5.098  0.00  0.00    +0.037 A 
ATOM     22  C   UNL     1       3.178   3.564  -5.792  0.00  0.00    +0.013 A 
ATOM     23  C   UNL     1       1.576   4.673  -4.363  0.00  0.00    +0.013 A 
ATOM     26  C   UNL     1       2.411   2.400  -5.749  0.00  0.00    +0.013 A 
ATOM     27  C   UNL     1       0.809   3.509  -4.319  0.00  0.00    +0.013 A 
ATOM     29  C   UNL     1       1.227   2.373  -5.012  0.00  0.00    +0.055 A 
BRANCH  29  32
ATOM      1  F   UNL     1      -0.529   1.053  -5.959  0.00  0.00    -0.166 F 
ATOM      2  F   UNL     1      -0.294   0.976  -3.805  0.00  0.00    -0.166 F 
ATOM      3  F   UNL     1       1.160  -0.003  -5.090  0.00  0.00    -0.166 F 
ATOM     32  C   UNL     1       0.407   1.128  -4.967  0.00  0.00    +0.417 C 
ENDBRANCH  29  32
ENDBRANCH  18  20
ENDBRANCH  14   8
TORSDOF 6
ENDMDL
MODEL 6
REMARK VINA RESULT:      -7.6     22.606     24.511
REMARK  Name = 11913200
REMARK  7 active torsions:
REMARK  status: ('A' for Active; 'I' for Inactive)
REMARK    1  A    between atoms: O_7  and  C_35
REMARK    2  A    between atoms: O_7  and  C_36
REMARK    3  A    between atoms: N_8  and  C_14
REMARK    4  A    between atoms: N_9  and  C_15
REMARK    5  A    between atoms: C_18  and  C_20
REMARK    6  A    between atoms: C_21  and  C_28
REMARK    7  A    between atoms: C_29  and  C_32
REMARK                            x       y       z     vdW  Elec       q    Type
REMARK                         _______ _______ _______ _____ _____    ______ ____
ROOT
ATOM      4  O   UNL     1     -16.354   4.043  23.752  0.00  0.00    -0.370 OA
ATOM      5  O   UNL     1     -18.906   5.832  23.600  0.00  0.00    -0.370 OA
ATOM     12  C   UNL     1     -17.503   6.104  23.452  0.00  0.00    +0.171 C 
ATOM     13  C   UNL     1     -16.765   5.231  24.448  0.00  0.00    +0.171 C 
ATOM     14  C   UNL     1     -17.013   5.620  22.106  0.00  0.00    +0.130 C 
ATOM     15  C   UNL     1     -17.810   4.895  25.487  0.00  0.00    +0.130 C 
ATOM     16  C   UNL     1     -16.731   4.151  22.372  0.00  0.00    +0.185 C 
ATOM     17  C   UNL     1     -19.097   4.910  24.683  0.00  0.00    +0.185 C 
ENDROOT
BRANCH  15   9
ATOM      9  N   UNL     1     -17.844   5.921  26.506  0.00  0.00    -0.306 N 
ATOM     10  N   UNL     1     -16.667   4.592  28.041  0.00  0.00    -0.214 NA
ATOM     11  N   UNL     1     -17.382   6.818  28.625  0.00  0.00    -0.223 NA
ATOM     19  C   UNL     1     -17.280   5.773  27.761  0.00  0.00    +0.216 A 
ATOM     21  C   UNL     1     -16.130   4.481  29.274  0.00  0.00    +0.076 A 
ATOM     24  C   UNL     1     -16.823   6.640  29.840  0.00  0.00    +0.116 A 
ATOM     25  C   UNL     1     -16.178   5.481  30.223  0.00  0.00    +0.048 A 
ATOM     38  H   UNL     1     -18.251   6.824  26.290  0.00  0.00    +0.149 HD
BRANCH  21  28
ATOM     28  C   UNL     1     -15.484   3.221  29.549  0.00  0.00    +0.001 A 
ATOM     30  C   UNL     1     -14.333   3.182  30.340  0.00  0.00    +0.013 A 
ATOM     31  C   UNL     1     -16.006   2.036  29.026  0.00  0.00    +0.013 A 
ATOM     33  C   UNL     1     -13.708   1.963  30.606  0.00  0.00    +0.046 A 
ATOM     34  C   UNL     1     -15.380   0.818  29.292  0.00  0.00    +0.046 A 
ATOM     35  C   UNL     1     -14.231   0.782  30.081  0.00  0.00    +0.120 A 
BRANCH  35   7
ATOM      7  O   UNL     1     -13.620  -0.407  30.339  0.00  0.00    -0.495 OA
ATOM     36  C   UNL     1     -13.246  -1.202  29.215  0.00  0.00    +0.277 C 
ENDBRANCH  35   7
ENDBRANCH  21  28
ENDBRANCH  15   9
BRANCH  14   8
ATOM      6  O   UNL     1     -16.230   6.278  19.423  0.00  0.00    -0.270 OA
ATOM      8  N   UNL     1     -15.816   6.318  21.704  0.00  0.00    -0.304 N 
ATOM     18  C   UNL     1     -15.522   6.591  20.377  0.00  0.00    +0.244 C 
ATOM     37  H   UNL     1     -15.129   6.504  22.428  0.00  0.00    +0.149 HD
BRANCH  18  20
ATOM     20  C   UNL     1     -14.237   7.294  20.125  0.00  0.00    +0.037 A 
ATOM     22  C   UNL     1     -14.193   8.279  19.160  0.00  0.00    +0.013 A 
ATOM     23  C   UNL     1     -13.129   6.940  20.867  0.00  0.00    +0.013 A 
ATOM     26  C   UNL     1     -12.987   8.939  18.926  0.00  0.00    +0.013 A 
ATOM     27  C   UNL     1     -11.923   7.600  20.633  0.00  0.00    +0.013 A 
ATOM     29  C   UNL     1     -11.852   8.600  19.662  0.00  0.00    +0.055 A 
BRANCH  29  32
ATOM      1  F   UNL     1     -10.003   9.007  18.201  0.00  0.00    -0.166 F 
ATOM      2  F   UNL     1      -9.594   9.020  20.331  0.00  0.00    -0.166 F 
ATOM      3  F   UNL     1     -10.694  10.663  19.428  0.00  0.00    -0.166 F 
ATOM     32  C   UNL     1     -10.562   9.305  19.411  0.00  0.00    +0.417 C 
ENDBRANCH  29  32
ENDBRANCH  18  20
ENDBRANCH  14   8
TORSDOF 6
ENDMDL
MODEL 7
REMARK VINA RESULT:      -7.3     25.217     30.691
REMARK  Name = 11913200
REMARK  7 active torsions:
REMARK  status: ('A' for Active; 'I' for Inactive)
REMARK    1  A    between atoms: O_7  and  C_35
REMARK    2  A    between atoms: O_7  and  C_36
REMARK    3  A    between atoms: N_8  and  C_14
REMARK    4  A    between atoms: N_9  and  C_15
REMARK    5  A    between atoms: C_18  and  C_20
REMARK    6  A    between atoms: C_21  and  C_28
REMARK    7  A    between atoms: C_29  and  C_32
REMARK                            x       y       z     vdW  Elec       q    Type
REMARK                         _______ _______ _______ _____ _____    ______ ____
ROOT
ATOM      4  O   UNL     1     -14.070   7.001  31.974  0.00  0.00    -0.370 OA
ATOM      5  O   UNL     1     -15.899   5.999  34.296  0.00  0.00    -0.370 OA
ATOM     12  C   UNL     1     -14.483   6.214  34.181  0.00  0.00    +0.171 C 
ATOM     13  C   UNL     1     -14.076   5.809  32.777  0.00  0.00    +0.171 C 
ATOM     14  C   UNL     1     -14.168   7.691  34.243  0.00  0.00    +0.130 C 
ATOM     15  C   UNL     1     -15.180   4.881  32.328  0.00  0.00    +0.130 C 
ATOM     16  C   UNL     1     -14.381   8.130  32.804  0.00  0.00    +0.185 C 
ATOM     17  C   UNL     1     -16.387   5.407  33.083  0.00  0.00    +0.185 C 
ENDROOT
BRANCH  15   9
ATOM      9  N   UNL     1     -14.885   3.525  32.737  0.00  0.00    -0.306 N 
ATOM     10  N   UNL     1     -15.480   2.646  30.644  0.00  0.00    -0.214 NA
ATOM     11  N   UNL     1     -14.716   1.206  32.419  0.00  0.00    -0.223 NA
ATOM     19  C   UNL     1     -15.030   2.426  31.909  0.00  0.00    +0.216 A 
ATOM     21  C   UNL     1     -15.611   1.552  29.864  0.00  0.00    +0.076 A 
ATOM     24  C   UNL     1     -14.870   0.157  31.585  0.00  0.00    +0.116 A 
ATOM     25  C   UNL     1     -15.318   0.272  30.285  0.00  0.00    +0.048 A 
ATOM     38  H   UNL     1     -14.499   3.356  33.659  0.00  0.00    +0.149 HD
BRANCH  21  28
ATOM     28  C   UNL     1     -16.087   1.808  28.526  0.00  0.00    +0.001 A 
ATOM     30  C   UNL     1     -16.850   0.848  27.859  0.00  0.00    +0.013 A 
ATOM     31  C   UNL     1     -15.786   3.017  27.894  0.00  0.00    +0.013 A 
ATOM     33  C   UNL     1     -17.310   1.095  26.564  0.00  0.00    +0.046 A 
ATOM     34  C   UNL     1     -16.246   3.263  26.600  0.00  0.00    +0.046 A 
ATOM     35  C   UNL     1     -17.007   2.302  25.935  0.00  0.00    +0.120 A 
BRANCH  35   7
ATOM      7  O   UNL     1     -17.455   2.543  24.673  0.00  0.00    -0.495 OA
ATOM     36  C   UNL     1     -16.538   3.150  23.764  0.00  0.00    +0.277 C 
ENDBRANCH  35   7
ENDBRANCH  21  28
ENDBRANCH  15   9
BRANCH  14   8
ATOM      6  O   UNL     1     -13.219   9.831  35.906  0.00  0.00    -0.270 OA
ATOM      8  N   UNL     1     -12.806   7.918  34.662  0.00  0.00    -0.304 N 
ATOM     18  C   UNL     1     -12.442   8.985  35.470  0.00  0.00    +0.244 C 
ATOM     37  H   UNL     1     -12.093   7.326  34.245  0.00  0.00    +0.149 HD
BRANCH  18  20
ATOM     20  C   UNL     1     -10.995   9.094  35.791  0.00  0.00    +0.037 A 
ATOM     22  C   UNL     1     -10.479   8.325  36.814  0.00  0.00    +0.013 A 
ATOM     23  C   UNL     1     -10.214   9.962  35.056  0.00  0.00    +0.013 A 
ATOM     26  C   UNL     1      -9.121   8.428  37.114  0.00  0.00    +0.013 A 
ATOM     27  C   UNL     1      -8.856  10.064  35.355  0.00  0.00    +0.013 A 
ATOM     29  C   UNL     1      -8.310   9.297  36.385  0.00  0.00    +0.055 A 
BRANCH  29  32
ATOM      1  F   UNL     1      -6.547  10.495  37.472  0.00  0.00    -0.166 F 
ATOM      2  F   UNL     1      -6.059   9.510  35.604  0.00  0.00    -0.166 F 
ATOM      3  F   UNL     1      -6.389   8.328  37.398  0.00  0.00    -0.166 F 
ATOM     32  C   UNL     1      -6.857   9.407  36.707  0.00  0.00    +0.417 C 
ENDBRANCH  29  32
ENDBRANCH  18  20
ENDBRANCH  14   8
TORSDOF 6
ENDMDL
MODEL 8
REMARK VINA RESULT:      -7.2     22.464     26.091
REMARK  Name = 11913200
REMARK  7 active torsions:
REMARK  status: ('A' for Active; 'I' for Inactive)
REMARK    1  A    between atoms: O_7  and  C_35
REMARK    2  A    between atoms: O_7  and  C_36
REMARK    3  A    between atoms: N_8  and  C_14
REMARK    4  A    between atoms: N_9  and  C_15
REMARK    5  A    between atoms: C_18  and  C_20
REMARK    6  A    between atoms: C_21  and  C_28
REMARK    7  A    between atoms: C_29  and  C_32
REMARK                            x       y       z     vdW  Elec       q    Type
REMARK                         _______ _______ _______ _____ _____    ______ ____
ROOT
ATOM      4  O   UNL     1       8.420   3.658  -3.809  0.00  0.00    -0.370 OA
ATOM      5  O   UNL     1      10.264   5.929  -4.898  0.00  0.00    -0.370 OA
ATOM     12  C   UNL     1       9.708   5.648  -3.603  0.00  0.00    +0.171 C 
ATOM     13  C   UNL     1       8.314   5.092  -3.820  0.00  0.00    +0.171 C 
ATOM     14  C   UNL     1      10.458   4.512  -2.944  0.00  0.00    +0.130 C 
ATOM     15  C   UNL     1       7.934   5.579  -5.198  0.00  0.00    +0.130 C 
ATOM     16  C   UNL     1       9.779   3.289  -3.533  0.00  0.00    +0.185 C 
ATOM     17  C   UNL     1       9.275   5.664  -5.904  0.00  0.00    +0.185 C 
ENDROOT
BRANCH  15   9
ATOM      9  N   UNL     1       7.330   6.890  -5.111  0.00  0.00    -0.306 N 
ATOM     10  N   UNL     1       5.155   6.008  -5.074  0.00  0.00    -0.214 NA
ATOM     11  N   UNL     1       5.528   8.387  -4.967  0.00  0.00    -0.223 NA
ATOM     19  C   UNL     1       5.964   7.102  -5.048  0.00  0.00    +0.216 A 
ATOM     21  C   UNL     1       3.829   6.251  -5.012  0.00  0.00    +0.076 A 
ATOM     24  C   UNL     1       4.191   8.557  -4.908  0.00  0.00    +0.116 A 
ATOM     25  C   UNL     1       3.285   7.515  -4.927  0.00  0.00    +0.048 A 
ATOM     38  H   UNL     1       7.924   7.709  -5.038  0.00  0.00    +0.149 HD
BRANCH  21  28
ATOM     28  C   UNL     1       2.990   5.077  -5.039  0.00  0.00    +0.001 A 
ATOM     30  C   UNL     1       3.397   3.942  -5.744  0.00  0.00    +0.013 A 
ATOM     31  C   UNL     1       1.769   5.073  -4.361  0.00  0.00    +0.013 A 
ATOM     33  C   UNL     1       2.584   2.807  -5.770  0.00  0.00    +0.046 A 
ATOM     34  C   UNL     1       0.958   3.938  -4.388  0.00  0.00    +0.046 A 
ATOM     35  C   UNL     1       1.365   2.806  -5.093  0.00  0.00    +0.120 A 
BRANCH  35   7
ATOM      7  O   UNL     1       0.573   1.699  -5.120  0.00  0.00    -0.495 OA
ATOM     36  C   UNL     1       1.226   0.432  -5.068  0.00  0.00    +0.277 C 
ENDBRANCH  35   7
ENDBRANCH  21  28
ENDBRANCH  15   9
BRANCH  14   8
ATOM      6  O   UNL     1      12.207   5.812  -1.074  0.00  0.00    -0.270 OA
ATOM      8  N   UNL     1      10.310   4.552  -1.509  0.00  0.00    -0.304 N 
ATOM     18  C   UNL     1      11.211   5.209  -0.684  0.00  0.00    +0.244 C 
ATOM     37  H   UNL     1       9.575   3.978  -1.108  0.00  0.00    +0.149 HD
BRANCH  18  20
ATOM     20  C   UNL     1      10.933   5.135   0.774  0.00  0.00    +0.037 A 
ATOM     22  C   UNL     1      11.339   4.018   1.475  0.00  0.00    +0.013 A 
ATOM     23  C   UNL     1      10.277   6.187   1.380  0.00  0.00    +0.013 A 
ATOM     26  C   UNL     1      11.079   3.951   2.843  0.00  0.00    +0.013 A 
ATOM     27  C   UNL     1      10.017   6.119   2.748  0.00  0.00    +0.013 A 
ATOM     29  C   UNL     1      10.418   5.001   3.480  0.00  0.00    +0.055 A 
BRANCH  29  32
ATOM      1  F   UNL     1      11.028   5.629   5.706  0.00  0.00    -0.166 F 
ATOM      2  F   UNL     1      10.166   3.657   5.442  0.00  0.00    -0.166 F 
ATOM      3  F   UNL     1       8.909   5.421   5.269  0.00  0.00    -0.166 F 
ATOM     32  C   UNL     1      10.138   4.927   4.943  0.00  0.00    +0.417 C 
ENDBRANCH  29  32
ENDBRANCH  18  20
ENDBRANCH  14   8
TORSDOF 6
ENDMDL
MODEL 9
REMARK VINA RESULT:      -7.2     25.055     29.105
REMARK  Name = 11913200
REMARK  7 active torsions:
REMARK  status: ('A' for Active; 'I' for Inactive)
REMARK    1  A    between atoms: O_7  and  C_35
REMARK    2  A    between atoms: O_7  and  C_36
REMARK    3  A    between atoms: N_8  and  C_14
REMARK    4  A    between atoms: N_9  and  C_15
REMARK    5  A    between atoms: C_18  and  C_20
REMARK    6  A    between atoms: C_21  and  C_28
REMARK    7  A    between atoms: C_29  and  C_32
REMARK                            x       y       z     vdW  Elec       q    Type
REMARK                         _______ _______ _______ _____ _____    ______ ____
ROOT
ATOM      4  O   UNL     1      21.446  -9.915  23.759  0.00  0.00    -0.370 OA
ATOM      5  O   UNL     1      24.171  -8.449  23.356  0.00  0.00    -0.370 OA
ATOM     12  C   UNL     1      22.806  -8.080  23.097  0.00  0.00    +0.171 C 
ATOM     13  C   UNL     1      22.085  -9.324  22.616  0.00  0.00    +0.171 C 
ATOM     14  C   UNL     1      22.104  -7.723  24.387  0.00  0.00    +0.130 C 
ATOM     15  C   UNL     1      23.192 -10.220  22.113  0.00  0.00    +0.130 C 
ATOM     16  C   UNL     1      21.669  -9.082  24.907  0.00  0.00    +0.185 C 
ATOM     17  C   UNL     1      24.367  -9.822  22.987  0.00  0.00    +0.185 C 
ENDROOT
BRANCH  15   9
ATOM      9  N   UNL     1      23.477  -9.924  20.726  0.00  0.00    -0.306 N 
ATOM     10  N   UNL     1      21.916 -11.498  19.954  0.00  0.00    -0.214 NA
ATOM     11  N   UNL     1      23.209 -10.177  18.407  0.00  0.00    -0.223 NA
ATOM     19  C   UNL     1      22.848 -10.551  19.664  0.00  0.00    +0.216 A 
ATOM     21  C   UNL     1      21.323 -12.089  18.896  0.00  0.00    +0.076 A 
ATOM     24  C   UNL     1      22.577 -10.809  17.397  0.00  0.00    +0.116 A 
ATOM     25  C   UNL     1      21.616 -11.782  17.584  0.00  0.00    +0.048 A 
ATOM     38  H   UNL     1      24.131  -9.184  20.498  0.00  0.00    +0.149 HD
BRANCH  21  28
ATOM     28  C   UNL     1      20.336 -13.089  19.227  0.00  0.00    +0.001 A 
ATOM     30  C   UNL     1      20.117 -13.443  20.560  0.00  0.00    +0.013 A 
ATOM     31  C   UNL     1      19.597 -13.706  18.214  0.00  0.00    +0.013 A 
ATOM     33  C   UNL     1      19.163 -14.410  20.879  0.00  0.00    +0.046 A 
ATOM     34  C   UNL     1      18.644 -14.673  18.535  0.00  0.00    +0.046 A 
ATOM     35  C   UNL     1      18.428 -15.025  19.866  0.00  0.00    +0.120 A 
BRANCH  35   7
ATOM      7  O   UNL     1      17.498 -15.969  20.178  0.00  0.00    -0.495 OA
ATOM     36  C   UNL     1      16.161 -15.732  19.740  0.00  0.00    +0.277 C 
ENDBRANCH  35   7
ENDBRANCH  21  28
ENDBRANCH  15   9
BRANCH  14   8
ATOM      6  O   UNL     1      22.087  -4.852  24.385  0.00  0.00    -0.270 OA
ATOM      8  N   UNL     1      20.967  -6.868  24.144  0.00  0.00    -0.304 N 
ATOM     18  C   UNL     1      21.057  -5.484  24.164  0.00  0.00    +0.244 C 
ATOM     37  H   UNL     1      20.061  -7.320  24.069  0.00  0.00    +0.149 HD
BRANCH  18  20
ATOM     20  C   UNL     1      19.791  -4.746  23.920  0.00  0.00    +0.037 A 
ATOM     22  C   UNL     1      18.736  -5.408  23.327  0.00  0.00    +0.013 A 
ATOM     23  C   UNL     1      19.711  -3.421  24.295  0.00  0.00    +0.013 A 
ATOM     26  C   UNL     1      17.548  -4.715  23.101  0.00  0.00    +0.013 A 
ATOM     27  C   UNL     1      18.523  -2.727  24.068  0.00  0.00    +0.013 A 
ATOM     29  C   UNL     1      17.441  -3.374  23.471  0.00  0.00    +0.055 A 
BRANCH  29  32
ATOM      1  F   UNL     1      15.418  -2.451  24.352  0.00  0.00    -0.166 F 
ATOM      2  F   UNL     1      15.337  -3.251  22.339  0.00  0.00    -0.166 F 
ATOM      3  F   UNL     1      16.380  -1.383  22.721  0.00  0.00    -0.166 F 
ATOM     32  C   UNL     1      16.170  -2.633  23.227  0.00  0.00    +0.417 C 
ENDBRANCH  29  32
ENDBRANCH  18  20
ENDBRANCH  14   8
TORSDOF 6
ENDMDL
MODEL 10
REMARK VINA RESULT:      -7.1     23.268     26.261
REMARK  Name = 11913200
REMARK  7 active torsions:
REMARK  status: ('A' for Active; 'I' for Inactive)
REMARK    1  A    between atoms: O_7  and  C_35
REMARK    2  A    between atoms: O_7  and  C_36
REMARK    3  A    between atoms: N_8  and  C_14
REMARK    4  A    between atoms: N_9  and  C_15
REMARK    5  A    between atoms: C_18  and  C_20
REMARK    6  A    between atoms: C_21  and  C_28
REMARK    7  A    between atoms: C_29  and  C_32
REMARK                            x       y       z     vdW  Elec       q    Type
REMARK                         _______ _______ _______ _____ _____    ______ ____
ROOT
ATOM      4  O   UNL     1       5.417   9.679   1.184  0.00  0.00    -0.370 OA
ATOM      5  O   UNL     1       4.461  12.095   2.913  0.00  0.00    -0.370 OA
ATOM     12  C   UNL     1       4.921  10.773   3.237  0.00  0.00    +0.171 C 
ATOM     13  C   UNL     1       4.386   9.834   2.174  0.00  0.00    +0.171 C 
ATOM     14  C   UNL     1       6.423  10.686   3.083  0.00  0.00    +0.130 C 
ATOM     15  C   UNL     1       3.205  10.573   1.590  0.00  0.00    +0.130 C 
ATOM     16  C   UNL     1       6.581  10.409   1.598  0.00  0.00    +0.185 C 
ATOM     17  C   UNL     1       3.603  12.028   1.764  0.00  0.00    +0.185 C 
ENDROOT
BRANCH  15   9
ATOM      9  N   UNL     1       2.012  10.286   2.356  0.00  0.00    -0.306 N 
ATOM     10  N   UNL     1       0.631  10.422   0.464  0.00  0.00    -0.214 NA
ATOM     11  N   UNL     1      -0.291   9.929   2.636  0.00  0.00    -0.223 NA
ATOM     19  C   UNL     1       0.747  10.209   1.802  0.00  0.00    +0.216 A 
ATOM     21  C   UNL     1      -0.617  10.341  -0.043  0.00  0.00    +0.076 A 
ATOM     24  C   UNL     1      -1.510   9.863   2.062  0.00  0.00    +0.116 A 
ATOM     25  C   UNL     1      -1.735  10.062   0.715  0.00  0.00    +0.048 A 
ATOM     38  H   UNL     1       2.093  10.074   3.344  0.00  0.00    +0.149 HD
BRANCH  21  28
ATOM     28  C   UNL     1      -0.717  10.568  -1.465  0.00  0.00    +0.001 A 
ATOM     30  C   UNL     1      -1.958  10.491  -2.101  0.00  0.00    +0.013 A 
ATOM     31  C   UNL     1       0.427  10.864  -2.209  0.00  0.00    +0.013 A 
ATOM     33  C   UNL     1      -2.054  10.710  -3.476  0.00  0.00    +0.046 A 
ATOM     34  C   UNL     1       0.330  11.083  -3.584  0.00  0.00    +0.046 A 
ATOM     35  C   UNL     1      -0.909  11.005  -4.217  0.00  0.00    +0.120 A 
BRANCH  35   7
ATOM      7  O   UNL     1      -1.003  11.217  -5.558  0.00  0.00    -0.495 OA
ATOM     36  C   UNL     1      -0.424  12.418  -6.067  0.00  0.00    +0.277 C 
ENDBRANCH  35   7
ENDBRANCH  21  28
ENDBRANCH  15   9
BRANCH  14   8
ATOM      6  O   UNL     1       8.136  10.944   5.372  0.00  0.00    -0.270 OA
ATOM      8  N   UNL     1       6.968   9.611   3.877  0.00  0.00    -0.304 N 
ATOM     18  C   UNL     1       7.791   9.835   4.970  0.00  0.00    +0.244 C 
ATOM     37  H   UNL     1       6.819   8.667   3.534  0.00  0.00    +0.149 HD
BRANCH  18  20
ATOM     20  C   UNL     1       8.292   8.622   5.667  0.00  0.00    +0.037 A 
ATOM     22  C   UNL     1       8.832   8.754   6.930  0.00  0.00    +0.013 A 
ATOM     23  C   UNL     1       8.201   7.403   5.029  0.00  0.00    +0.013 A 
ATOM     26  C   UNL     1       9.300   7.615   7.584  0.00  0.00    +0.013 A 
ATOM     27  C   UNL     1       8.669   6.264   5.683  0.00  0.00    +0.013 A 
ATOM     29  C   UNL     1       9.219   6.370   6.961  0.00  0.00    +0.055 A 
BRANCH  29  32
ATOM      1  F   UNL     1      10.997   5.280   8.133  0.00  0.00    -0.166 F 
ATOM      2  F   UNL     1       9.746   4.038   6.870  0.00  0.00    -0.166 F 
ATOM      3  F   UNL     1       8.962   4.817   8.742  0.00  0.00    -0.166 F 
ATOM     32  C   UNL     1       9.722   5.152   7.660  0.00  0.00    +0.417 C 
ENDBRANCH  29  32
ENDBRANCH  18  20
ENDBRANCH  14   8
TORSDOF 6
ENDMDL
