REMARK  Name = 11943270
REMARK  6 active torsions:
REMARK  status: ('A' for Active; 'I' for Inactive)
REMARK    1  A    between atoms: O_6  and  C_29
REMARK    2  A    between atoms: N_7  and  C_16
REMARK    3  A    between atoms: C_16  and  C_21
REMARK    4  A    between atoms: C_19  and  C_22
REMARK    5  A    between atoms: C_24  and  C_29
REMARK    6  A    between atoms: C_28  and  C_32
REMARK                            x       y       z     vdW  Elec       q    Type
REMARK                         _______ _______ _______ _____ _____    ______ ____
ROOT
ATOM      4  O   UNL     1      -0.983  -2.360   1.466  0.00  0.00    -0.267 OA
ATOM      7  N   UNL     1       3.561  -0.346   0.801  0.00  0.00    -0.294 NA
ATOM      8  N   UNL     1       0.965  -2.101   0.209  0.00  0.00    -0.311 N 
ATOM      9  C   UNL     1       3.270  -2.822   1.064  0.00  0.00    +0.024 C 
ATOM     10  C   UNL     1       3.059  -1.814  -1.157  0.00  0.00    +0.050 C 
ATOM     11  C   UNL     1       3.587  -3.036  -0.410  0.00  0.00    +0.017 C 
ATOM     12  C   UNL     1       3.953  -1.534   1.570  0.00  0.00    +0.090 C 
ATOM     13  C   UNL     1       3.774  -0.545  -0.640  0.00  0.00    +0.094 C 
ATOM     14  C   UNL     1       1.747  -2.792   1.244  0.00  0.00    +0.130 C 
ATOM     15  C   UNL     1       1.557  -1.684  -0.985  0.00  0.00    +0.026 A 
ATOM     17  C   UNL     1       0.804  -1.157  -1.963  0.00  0.00    +0.022 A 
ATOM     18  C   UNL     1      -0.419  -1.974   0.440  0.00  0.00    +0.259 A 
ATOM     19  C   UNL     1      -1.233  -1.347  -0.661  0.00  0.00    +0.047 A 
ATOM     20  C   UNL     1      -0.611  -0.982  -1.792  0.00  0.00    +0.015 A 
ENDROOT
BRANCH  19  22
ATOM     22  C   UNL     1      -2.682  -1.127  -0.508  0.00  0.00    -0.012 A 
ATOM     26  C   UNL     1      -3.153   0.069   0.035  0.00  0.00    +0.021 A 
ATOM     27  C   UNL     1      -3.584  -2.113  -0.908  0.00  0.00    +0.009 A 
ATOM     28  C   UNL     1      -4.525   0.278   0.178  0.00  0.00    +0.055 A 
ATOM     30  C   UNL     1      -4.956  -1.904  -0.764  0.00  0.00    +0.001 A 
ATOM     31  C   UNL     1      -5.426  -0.709  -0.221  0.00  0.00    +0.012 A 
BRANCH  28  32
ATOM      1  F   UNL     1      -6.390   1.623   0.837  0.00  0.00    -0.166 F 
ATOM      2  F   UNL     1      -4.586   1.793   2.029  0.00  0.00    -0.166 F 
ATOM      3  F   UNL     1      -4.651   2.648   0.030  0.00  0.00    -0.166 F 
ATOM     32  C   UNL     1      -5.028   1.557   0.758  0.00  0.00    +0.417 C 
ENDBRANCH  28  32
ENDBRANCH  19  22
BRANCH   7  16
ATOM     16  C   UNL     1       4.268   0.842   1.275  0.00  0.00    +0.158 C 
BRANCH  16  21
ATOM      5  O   UNL     1       2.454   2.180   0.444  0.00  0.00    -0.461 OA
ATOM     21  C   UNL     1       3.788   2.077   0.563  0.00  0.00    +0.119 A 
ATOM     23  C   UNL     1       4.449   3.119   0.011  0.00  0.00    +0.046 A 
ATOM     24  C   UNL     1       2.242   3.348  -0.218  0.00  0.00    +0.131 A 
ATOM     25  C   UNL     1       3.438   3.963  -0.506  0.00  0.00    +0.047 A 
BRANCH  24  29
ATOM     29  C   UNL     1       0.840   3.702  -0.480  0.00  0.00    +0.230 C 
BRANCH  29   6
ATOM      6  O   UNL     1       0.471   3.147  -1.744  0.00  0.00    -0.387 OA
ATOM     33  H   UNL     1      -0.459   3.384  -1.897  0.00  0.00    +0.210 HD
ENDBRANCH  29   6
ENDBRANCH  24  29
ENDBRANCH  16  21
ENDBRANCH   7  16
TORSDOF 6
