MODEL 1
REMARK VINA RESULT:      -6.2      0.000      0.000
REMARK  Name = 11912504
REMARK  10 active torsions:
REMARK  status: ('A' for Active; 'I' for Inactive)
REMARK    1  A    between atoms: O_4  and  C_28
REMARK    2  A    between atoms: O_4  and  C_31
REMARK    3  A    between atoms: N_6  and  C_19
REMARK    4  A    between atoms: N_7  and  C_23
REMARK    5  A    between atoms: N_8  and  C_20
REMARK    6  A    between atoms: C_9  and  C_15
REMARK    7  A    between atoms: C_10  and  C_14
REMARK    8  A    between atoms: C_14  and  C_16
REMARK    9  A    between atoms: C_15  and  C_17
REMARK   10  A    between atoms: C_19  and  C_20
REMARK                            x       y       z     vdW  Elec       q    Type
REMARK                         _______ _______ _______ _____ _____    ______ ____
ROOT
ATOM      2  O   UNL     1      -8.233 -14.081  16.961  0.00  0.00    -0.252 OA
ATOM      5  N   UNL     1      -6.102 -13.425  17.571  0.00  0.00    -0.285 N 
ATOM      7  N   UNL     1      -7.835 -13.494  19.170  0.00  0.00    -0.269 N 
ATOM      9  C   UNL     1      -3.927 -11.729  16.696  0.00  0.00    +0.004 C 
ATOM     10  C   UNL     1      -4.476 -11.644  18.144  0.00  0.00    +0.010 C 
ATOM     11  C   UNL     1      -4.984 -12.267  15.714  0.00  0.00    +0.023 C 
ATOM     12  C   UNL     1      -5.085 -12.998  18.544  0.00  0.00    +0.113 C 
ATOM     13  C   UNL     1      -5.593 -13.578  16.208  0.00  0.00    +0.109 C 
ATOM     18  C   UNL     1      -7.458 -13.706  17.844  0.00  0.00    +0.306 C 
ATOM     33  H   UNL     1      -7.136 -13.608  19.895  0.00  0.00    +0.156 HD
ENDROOT
BRANCH   7  23
ATOM     23  C   UNL     1      -9.112 -13.112  19.651  0.00  0.00    +0.038 A 
ATOM     26  C   UNL     1      -9.521 -11.781  19.559  0.00  0.00    +0.069 A 
ATOM     27  C   UNL     1      -9.958 -14.064  20.216  0.00  0.00    +0.023 A 
ATOM     28  C   UNL     1     -10.778 -11.404  20.032  0.00  0.00    +0.122 A 
ATOM     29  C   UNL     1     -11.215 -13.688  20.690  0.00  0.00    +0.005 A 
ATOM     30  C   UNL     1     -11.625 -12.358  20.597  0.00  0.00    +0.046 A 
BRANCH  28   4
ATOM      4  O   UNL     1     -11.178 -10.107  19.943  0.00  0.00    -0.495 OA
ATOM     31  C   UNL     1     -12.368  -9.743  20.640  0.00  0.00    +0.277 C 
ENDBRANCH  28   4
ENDBRANCH   7  23
BRANCH  10  14
ATOM     14  C   UNL     1      -5.489 -10.515  18.363  0.00  0.00    +0.002 C 
ATOM     16  C   UNL     1      -6.028 -10.530  19.778  0.00  0.00    +0.004 C 
ENDBRANCH  10  14
BRANCH   9  15
ATOM     15  C   UNL     1      -3.348 -10.406  16.194  0.00  0.00    +0.099 C 
BRANCH  15  17
ATOM      1  O   UNL     1      -1.169 -11.040  15.356  0.00  0.00    -0.276 OA
ATOM      6  N   UNL     1      -2.774 -10.243  13.876  0.00  0.00    -0.314 N 
ATOM     17  C   UNL     1      -2.297 -10.609  15.125  0.00  0.00    +0.213 C 
ATOM     32  H   UNL     1      -3.728  -9.905  13.788  0.00  0.00    +0.149 HD
BRANCH   6  19
ATOM     19  C   UNL     1      -1.981 -10.331  12.670  0.00  0.00    +0.119 C 
BRANCH  19  20
ATOM     20  C   UNL     1      -2.552 -11.361  11.708  0.00  0.00    +0.103 C 
BRANCH  20   8
ATOM      3  O   UNL     1      -4.519  -9.760   8.364  0.00  0.00    -0.377 OA
ATOM      8  N   UNL     1      -3.573 -10.752  10.858  0.00  0.00    -0.297 NA
ATOM     21  C   UNL     1      -3.103  -9.472  10.312  0.00  0.00    +0.112 C 
ATOM     22  C   UNL     1      -3.950 -11.659   9.764  0.00  0.00    +0.112 C 
ATOM     24  C   UNL     1      -4.181  -8.862   9.421  0.00  0.00    +0.175 C 
ATOM     25  C   UNL     1      -5.008 -10.997   8.885  0.00  0.00    +0.175 C 
ENDBRANCH  20   8
ENDBRANCH  19  20
ENDBRANCH   6  19
ENDBRANCH  15  17
ENDBRANCH   9  15
TORSDOF 8
ENDMDL
MODEL 2
REMARK VINA RESULT:      -6.1      2.952      8.628
REMARK  Name = 11912504
REMARK  10 active torsions:
REMARK  status: ('A' for Active; 'I' for Inactive)
REMARK    1  A    between atoms: O_4  and  C_28
REMARK    2  A    between atoms: O_4  and  C_31
REMARK    3  A    between atoms: N_6  and  C_19
REMARK    4  A    between atoms: N_7  and  C_23
REMARK    5  A    between atoms: N_8  and  C_20
REMARK    6  A    between atoms: C_9  and  C_15
REMARK    7  A    between atoms: C_10  and  C_14
REMARK    8  A    between atoms: C_14  and  C_16
REMARK    9  A    between atoms: C_15  and  C_17
REMARK   10  A    between atoms: C_19  and  C_20
REMARK                            x       y       z     vdW  Elec       q    Type
REMARK                         _______ _______ _______ _____ _____    ______ ____
ROOT
ATOM      2  O   UNL     1      -2.400 -10.804  14.024  0.00  0.00    -0.252 OA
ATOM      5  N   UNL     1      -4.163 -11.630  15.271  0.00  0.00    -0.285 N 
ATOM      7  N   UNL     1      -4.414 -11.243  12.958  0.00  0.00    -0.269 N 
ATOM      9  C   UNL     1      -5.547 -11.206  17.777  0.00  0.00    +0.004 C 
ATOM     10  C   UNL     1      -6.324 -11.291  16.437  0.00  0.00    +0.010 C 
ATOM     11  C   UNL     1      -4.091 -10.752  17.566  0.00  0.00    +0.023 C 
ATOM     12  C   UNL     1      -5.530 -12.146  15.435  0.00  0.00    +0.113 C 
ATOM     13  C   UNL     1      -3.386 -11.603  16.510  0.00  0.00    +0.109 C 
ATOM     18  C   UNL     1      -3.567 -11.202  14.065  0.00  0.00    +0.306 C 
ATOM     33  H   UNL     1      -5.155 -11.933  12.941  0.00  0.00    +0.156 HD
ENDROOT
BRANCH   7  23
ATOM     23  C   UNL     1      -4.379 -10.403  11.817  0.00  0.00    +0.038 A 
ATOM     26  C   UNL     1      -5.569  -9.943  11.254  0.00  0.00    +0.069 A 
ATOM     27  C   UNL     1      -3.156 -10.036  11.257  0.00  0.00    +0.023 A 
ATOM     28  C   UNL     1      -5.536  -9.116  10.130  0.00  0.00    +0.122 A 
ATOM     29  C   UNL     1      -3.121  -9.210  10.134  0.00  0.00    +0.005 A 
ATOM     30  C   UNL     1      -4.312  -8.750   9.571  0.00  0.00    +0.046 A 
BRANCH  28   4
ATOM      4  O   UNL     1      -6.697  -8.668   9.581  0.00  0.00    -0.495 OA
ATOM     31  C   UNL     1      -7.909  -9.010  10.252  0.00  0.00    +0.277 C 
ENDBRANCH  28   4
ENDBRANCH   7  23
BRANCH  10  14
ATOM     14  C   UNL     1      -6.667  -9.927  15.825  0.00  0.00    +0.002 C 
ATOM     16  C   UNL     1      -7.427 -10.086  14.525  0.00  0.00    +0.004 C 
ENDBRANCH  10  14
BRANCH   9  15
ATOM     15  C   UNL     1      -6.239 -10.327  18.818  0.00  0.00    +0.099 C 
BRANCH  15  17
ATOM      1  O   UNL     1      -7.519 -11.990  20.023  0.00  0.00    -0.276 OA
ATOM      6  N   UNL     1      -8.625 -10.230  18.983  0.00  0.00    -0.314 N 
ATOM     17  C   UNL     1      -7.506 -10.960  19.353  0.00  0.00    +0.213 C 
ATOM     32  H   UNL     1      -8.507  -9.384  18.433  0.00  0.00    +0.149 HD
BRANCH   6  19
ATOM     19  C   UNL     1      -9.971 -10.605  19.356  0.00  0.00    +0.119 C 
BRANCH  19  20
ATOM     20  C   UNL     1     -10.997  -9.682  18.719  0.00  0.00    +0.103 C 
BRANCH  20   8
ATOM      3  O   UNL     1     -10.955  -7.971  14.886  0.00  0.00    -0.377 OA
ATOM      8  N   UNL     1     -10.572  -9.300  17.373  0.00  0.00    -0.297 NA
ATOM     21  C   UNL     1     -11.509  -9.812  16.364  0.00  0.00    +0.112 C 
ATOM     22  C   UNL     1     -10.456  -7.840  17.257  0.00  0.00    +0.112 C 
ATOM     24  C   UNL     1     -11.050  -9.392  14.971  0.00  0.00    +0.175 C 
ATOM     25  C   UNL     1     -10.022  -7.466  15.842  0.00  0.00    +0.175 C 
ENDBRANCH  20   8
ENDBRANCH  19  20
ENDBRANCH   6  19
ENDBRANCH  15  17
ENDBRANCH   9  15
TORSDOF 8
ENDMDL
MODEL 3
REMARK VINA RESULT:      -6.0      2.009      2.979
REMARK  Name = 11912504
REMARK  10 active torsions:
REMARK  status: ('A' for Active; 'I' for Inactive)
REMARK    1  A    between atoms: O_4  and  C_28
REMARK    2  A    between atoms: O_4  and  C_31
REMARK    3  A    between atoms: N_6  and  C_19
REMARK    4  A    between atoms: N_7  and  C_23
REMARK    5  A    between atoms: N_8  and  C_20
REMARK    6  A    between atoms: C_9  and  C_15
REMARK    7  A    between atoms: C_10  and  C_14
REMARK    8  A    between atoms: C_14  and  C_16
REMARK    9  A    between atoms: C_15  and  C_17
REMARK   10  A    between atoms: C_19  and  C_20
REMARK                            x       y       z     vdW  Elec       q    Type
REMARK                         _______ _______ _______ _____ _____    ______ ____
ROOT
ATOM      2  O   UNL     1      -9.677 -12.342  20.086  0.00  0.00    -0.252 OA
ATOM      5  N   UNL     1      -7.796 -11.260  19.289  0.00  0.00    -0.285 N 
ATOM      7  N   UNL     1      -9.833 -10.095  19.532  0.00  0.00    -0.269 N 
ATOM      9  C   UNL     1      -5.621 -11.603  17.413  0.00  0.00    +0.004 C 
ATOM     10  C   UNL     1      -6.486 -10.316  17.409  0.00  0.00    +0.010 C 
ATOM     11  C   UNL     1      -6.384 -12.804  18.001  0.00  0.00    +0.023 C 
ATOM     12  C   UNL     1      -7.061 -10.078  18.816  0.00  0.00    +0.113 C 
ATOM     13  C   UNL     1      -6.983 -12.474  19.367  0.00  0.00    +0.109 C 
ATOM     18  C   UNL     1      -9.152 -11.303  19.678  0.00  0.00    +0.306 C 
ATOM     33  H   UNL     1      -9.308  -9.232  19.613  0.00  0.00    +0.156 HD
ENDROOT
BRANCH   7  23
ATOM     23  C   UNL     1     -11.212  -9.912  19.259  0.00  0.00    +0.038 A 
ATOM     26  C   UNL     1     -12.143  -9.991  20.295  0.00  0.00    +0.069 A 
ATOM     27  C   UNL     1     -11.637  -9.653  17.958  0.00  0.00    +0.023 A 
ATOM     28  C   UNL     1     -13.500  -9.811  20.028  0.00  0.00    +0.122 A 
ATOM     29  C   UNL     1     -12.994  -9.473  17.690  0.00  0.00    +0.005 A 
ATOM     30  C   UNL     1     -13.925  -9.552  18.725  0.00  0.00    +0.046 A 
BRANCH  28   4
ATOM      4  O   UNL     1     -14.409  -9.888  21.038  0.00  0.00    -0.495 OA
ATOM     31  C   UNL     1     -14.758 -11.192  21.501  0.00  0.00    +0.277 C 
ENDBRANCH  28   4
ENDBRANCH   7  23
BRANCH  10  14
ATOM     14  C   UNL     1      -7.609 -10.321  16.365  0.00  0.00    +0.002 C 
ATOM     16  C   UNL     1      -8.404  -9.032  16.410  0.00  0.00    +0.004 C 
ENDBRANCH  10  14
BRANCH   9  15
ATOM     15  C   UNL     1      -5.050 -11.948  16.037  0.00  0.00    +0.099 C 
BRANCH  15  17
ATOM      1  O   UNL     1      -2.967 -10.888  16.657  0.00  0.00    -0.276 OA
ATOM      6  N   UNL     1      -3.525 -11.080  14.410  0.00  0.00    -0.314 N 
ATOM     17  C   UNL     1      -3.735 -11.251  15.770  0.00  0.00    +0.213 C 
ATOM     32  H   UNL     1      -4.220 -11.425  13.753  0.00  0.00    +0.149 HD
BRANCH   6  19
ATOM     19  C   UNL     1      -2.348 -10.440  13.866  0.00  0.00    +0.119 C 
BRANCH  19  20
ATOM     20  C   UNL     1      -2.019 -10.976  12.482  0.00  0.00    +0.103 C 
BRANCH  20   8
ATOM      3  O   UNL     1      -4.136 -10.356   8.910  0.00  0.00    -0.377 OA
ATOM      8  N   UNL     1      -3.088 -10.643  11.541  0.00  0.00    -0.297 NA
ATOM     21  C   UNL     1      -2.689  -9.527  10.672  0.00  0.00    +0.112 C 
ATOM     22  C   UNL     1      -3.448 -11.812  10.726  0.00  0.00    +0.112 C 
ATOM     24  C   UNL     1      -3.814  -9.207   9.693  0.00  0.00    +0.175 C 
ATOM     25  C   UNL     1      -4.556 -11.437   9.745  0.00  0.00    +0.175 C 
ENDBRANCH  20   8
ENDBRANCH  19  20
ENDBRANCH   6  19
ENDBRANCH  15  17
ENDBRANCH   9  15
TORSDOF 8
ENDMDL
MODEL 4
REMARK VINA RESULT:      -6.0      2.855     10.688
REMARK  Name = 11912504
REMARK  10 active torsions:
REMARK  status: ('A' for Active; 'I' for Inactive)
REMARK    1  A    between atoms: O_4  and  C_28
REMARK    2  A    between atoms: O_4  and  C_31
REMARK    3  A    between atoms: N_6  and  C_19
REMARK    4  A    between atoms: N_7  and  C_23
REMARK    5  A    between atoms: N_8  and  C_20
REMARK    6  A    between atoms: C_9  and  C_15
REMARK    7  A    between atoms: C_10  and  C_14
REMARK    8  A    between atoms: C_14  and  C_16
REMARK    9  A    between atoms: C_15  and  C_17
REMARK   10  A    between atoms: C_19  and  C_20
REMARK                            x       y       z     vdW  Elec       q    Type
REMARK                         _______ _______ _______ _____ _____    ______ ____
ROOT
ATOM      2  O   UNL     1      -4.471 -14.227   8.781  0.00  0.00    -0.252 OA
ATOM      5  N   UNL     1      -4.735 -12.621  10.423  0.00  0.00    -0.285 N 
ATOM      7  N   UNL     1      -5.584 -12.262   8.251  0.00  0.00    -0.269 N 
ATOM      9  C   UNL     1      -3.259 -11.259  12.505  0.00  0.00    +0.004 C 
ATOM     10  C   UNL     1      -4.080 -10.465  11.455  0.00  0.00    +0.010 C 
ATOM     11  C   UNL     1      -2.827 -12.637  11.971  0.00  0.00    +0.023 C 
ATOM     12  C   UNL     1      -5.236 -11.339  10.939  0.00  0.00    +0.113 C 
ATOM     13  C   UNL     1      -4.015 -13.421  11.414  0.00  0.00    +0.109 C 
ATOM     18  C   UNL     1      -4.910 -13.124   9.116  0.00  0.00    +0.306 C 
ATOM     33  H   UNL     1      -6.261 -11.617   8.643  0.00  0.00    +0.156 HD
ENDROOT
BRANCH   7  23
ATOM     23  C   UNL     1      -5.428 -12.156   6.847  0.00  0.00    +0.038 A 
ATOM     26  C   UNL     1      -4.159 -12.265   6.277  0.00  0.00    +0.069 A 
ATOM     27  C   UNL     1      -6.541 -11.943   6.035  0.00  0.00    +0.023 A 
ATOM     28  C   UNL     1      -4.005 -12.161   4.894  0.00  0.00    +0.122 A 
ATOM     29  C   UNL     1      -6.387 -11.839   4.653  0.00  0.00    +0.005 A 
ATOM     30  C   UNL     1      -5.119 -11.948   4.083  0.00  0.00    +0.046 A 
BRANCH  28   4
ATOM      4  O   UNL     1      -2.768 -12.267   4.338  0.00  0.00    -0.495 OA
ATOM     31  C   UNL     1      -2.705 -12.563   2.944  0.00  0.00    +0.277 C 
ENDBRANCH  28   4
ENDBRANCH   7  23
BRANCH  10  14
ATOM     14  C   UNL     1      -3.247  -9.931  10.285  0.00  0.00    +0.002 C 
ATOM     16  C   UNL     1      -4.097  -9.109   9.338  0.00  0.00    +0.004 C 
ENDBRANCH  10  14
BRANCH   9  15
ATOM     15  C   UNL     1      -2.052 -10.485  13.036  0.00  0.00    +0.099 C 
BRANCH  15  17
ATOM      1  O   UNL     1      -1.133  -9.926  15.202  0.00  0.00    -0.276 OA
ATOM      6  N   UNL     1      -3.317 -10.708  15.056  0.00  0.00    -0.314 N 
ATOM     17  C   UNL     1      -2.085 -10.331  14.540  0.00  0.00    +0.213 C 
ATOM     32  H   UNL     1      -4.045 -11.023  14.421  0.00  0.00    +0.149 HD
BRANCH   6  19
ATOM     19  C   UNL     1      -3.629 -10.664  16.467  0.00  0.00    +0.119 C 
BRANCH  19  20
ATOM     20  C   UNL     1      -4.899  -9.869  16.726  0.00  0.00    +0.103 C 
BRANCH  20   8
ATOM      3  O   UNL     1      -7.545 -10.899  19.817  0.00  0.00    -0.377 OA
ATOM      8  N   UNL     1      -5.812 -10.632  17.576  0.00  0.00    -0.297 NA
ATOM     21  C   UNL     1      -5.287 -10.735  18.945  0.00  0.00    +0.112 C 
ATOM     22  C   UNL     1      -7.146 -10.016  17.592  0.00  0.00    +0.112 C 
ATOM     24  C   UNL     1      -6.262 -11.524  19.813  0.00  0.00    +0.175 C 
ATOM     25  C   UNL     1      -8.077 -10.823  18.494  0.00  0.00    +0.175 C 
ENDBRANCH  20   8
ENDBRANCH  19  20
ENDBRANCH   6  19
ENDBRANCH  15  17
ENDBRANCH   9  15
TORSDOF 8
ENDMDL
MODEL 5
REMARK VINA RESULT:      -5.9     25.770     28.238
REMARK  Name = 11912504
REMARK  10 active torsions:
REMARK  status: ('A' for Active; 'I' for Inactive)
REMARK    1  A    between atoms: O_4  and  C_28
REMARK    2  A    between atoms: O_4  and  C_31
REMARK    3  A    between atoms: N_6  and  C_19
REMARK    4  A    between atoms: N_7  and  C_23
REMARK    5  A    between atoms: N_8  and  C_20
REMARK    6  A    between atoms: C_9  and  C_15
REMARK    7  A    between atoms: C_10  and  C_14
REMARK    8  A    between atoms: C_14  and  C_16
REMARK    9  A    between atoms: C_15  and  C_17
REMARK   10  A    between atoms: C_19  and  C_20
REMARK                            x       y       z     vdW  Elec       q    Type
REMARK                         _______ _______ _______ _____ _____    ______ ____
ROOT
ATOM      2  O   UNL     1       8.363   7.591   8.012  0.00  0.00    -0.252 OA
ATOM      5  N   UNL     1      10.195   6.751   6.879  0.00  0.00    -0.285 N 
ATOM      7  N   UNL     1      10.265   8.908   7.833  0.00  0.00    -0.269 N 
ATOM      9  C   UNL     1      10.894   5.355   4.443  0.00  0.00    +0.004 C 
ATOM     10  C   UNL     1      11.621   6.662   4.854  0.00  0.00    +0.010 C 
ATOM     11  C   UNL     1       9.483   5.270   5.052  0.00  0.00    +0.023 C 
ATOM     12  C   UNL     1      11.578   6.816   6.383  0.00  0.00    +0.113 C 
ATOM     13  C   UNL     1       9.508   5.499   6.562  0.00  0.00    +0.109 C 
ATOM     18  C   UNL     1       9.522   7.747   7.619  0.00  0.00    +0.306 C 
ATOM     33  H   UNL     1      11.274   8.833   7.881  0.00  0.00    +0.156 HD
ENDROOT
BRANCH   7  23
ATOM     23  C   UNL     1       9.773  10.228   7.982  0.00  0.00    +0.038 A 
ATOM     26  C   UNL     1       9.719  10.813   9.247  0.00  0.00    +0.069 A 
ATOM     27  C   UNL     1       9.345  10.943   6.865  0.00  0.00    +0.023 A 
ATOM     28  C   UNL     1       9.235  12.113   9.395  0.00  0.00    +0.122 A 
ATOM     29  C   UNL     1       8.860  12.243   7.011  0.00  0.00    +0.005 A 
ATOM     30  C   UNL     1       8.806  12.827   8.277  0.00  0.00    +0.046 A 
BRANCH  28   4
ATOM      4  O   UNL     1       9.181  12.683  10.629  0.00  0.00    -0.495 OA
ATOM     31  C   UNL     1       9.848  12.000  11.690  0.00  0.00    +0.277 C 
ENDBRANCH  28   4
ENDBRANCH   7  23
BRANCH  10  14
ATOM     14  C   UNL     1      11.076   7.922   4.172  0.00  0.00    +0.002 C 
ATOM     16  C   UNL     1      11.841   9.155   4.606  0.00  0.00    +0.004 C 
ENDBRANCH  10  14
BRANCH   9  15
ATOM     15  C   UNL     1      10.842   5.147   2.930  0.00  0.00    +0.099 C 
BRANCH  15  17
ATOM      1  O   UNL     1      11.398   2.835   2.484  0.00  0.00    -0.276 OA
ATOM      6  N   UNL     1      12.972   4.490   2.058  0.00  0.00    -0.314 N 
ATOM     17  C   UNL     1      11.737   4.015   2.475  0.00  0.00    +0.213 C 
ATOM     32  H   UNL     1      13.153   5.489   2.081  0.00  0.00    +0.149 HD
BRANCH   6  19
ATOM     19  C   UNL     1      14.027   3.628   1.573  0.00  0.00    +0.119 C 
BRANCH  19  20
ATOM     20  C   UNL     1      14.308   3.878   0.099  0.00  0.00    +0.103 C 
BRANCH  20   8
ATOM      3  O   UNL     1      11.492   4.316  -2.983  0.00  0.00    -0.377 OA
ATOM      8  N   UNL     1      13.065   4.161  -0.615  0.00  0.00    -0.297 NA
ATOM     21  C   UNL     1      13.260   5.234  -1.599  0.00  0.00    +0.112 C 
ATOM     22  C   UNL     1      12.560   2.953  -1.282  0.00  0.00    +0.112 C 
ATOM     24  C   UNL     1      11.953   5.503  -2.339  0.00  0.00    +0.175 C 
ATOM     25  C   UNL     1      11.268   3.275  -2.030  0.00  0.00    +0.175 C 
ENDBRANCH  20   8
ENDBRANCH  19  20
ENDBRANCH   6  19
ENDBRANCH  15  17
ENDBRANCH   9  15
TORSDOF 8
ENDMDL
MODEL 6
REMARK VINA RESULT:      -5.9      3.302      8.438
REMARK  Name = 11912504
REMARK  10 active torsions:
REMARK  status: ('A' for Active; 'I' for Inactive)
REMARK    1  A    between atoms: O_4  and  C_28
REMARK    2  A    between atoms: O_4  and  C_31
REMARK    3  A    between atoms: N_6  and  C_19
REMARK    4  A    between atoms: N_7  and  C_23
REMARK    5  A    between atoms: N_8  and  C_20
REMARK    6  A    between atoms: C_9  and  C_15
REMARK    7  A    between atoms: C_10  and  C_14
REMARK    8  A    between atoms: C_14  and  C_16
REMARK    9  A    between atoms: C_15  and  C_17
REMARK   10  A    between atoms: C_19  and  C_20
REMARK                            x       y       z     vdW  Elec       q    Type
REMARK                         _______ _______ _______ _____ _____    ______ ____
ROOT
ATOM      2  O   UNL     1      -3.359 -10.263  16.699  0.00  0.00    -0.252 OA
ATOM      5  N   UNL     1      -4.635 -12.098  17.292  0.00  0.00    -0.285 N 
ATOM      7  N   UNL     1      -3.596 -11.998  15.176  0.00  0.00    -0.269 N 
ATOM      9  C   UNL     1      -7.165 -12.786  18.515  0.00  0.00    +0.004 C 
ATOM     10  C   UNL     1      -6.743 -13.394  17.152  0.00  0.00    +0.010 C 
ATOM     11  C   UNL     1      -6.477 -11.433  18.776  0.00  0.00    +0.023 C 
ATOM     12  C   UNL     1      -5.208 -13.432  17.059  0.00  0.00    +0.113 C 
ATOM     13  C   UNL     1      -4.963 -11.531  18.600  0.00  0.00    +0.109 C 
ATOM     18  C   UNL     1      -3.814 -11.371  16.403  0.00  0.00    +0.306 C 
ATOM     33  H   UNL     1      -3.611 -13.010  15.142  0.00  0.00    +0.156 HD
ENDROOT
BRANCH   7  23
ATOM     23  C   UNL     1      -3.362 -11.378  13.924  0.00  0.00    +0.038 A 
ATOM     26  C   UNL     1      -4.416 -10.775  13.237  0.00  0.00    +0.069 A 
ATOM     27  C   UNL     1      -2.079 -11.371  13.378  0.00  0.00    +0.023 A 
ATOM     28  C   UNL     1      -4.186 -10.165  12.004  0.00  0.00    +0.122 A 
ATOM     29  C   UNL     1      -1.849 -10.762  12.144  0.00  0.00    +0.005 A 
ATOM     30  C   UNL     1      -2.903 -10.158  11.458  0.00  0.00    +0.046 A 
BRANCH  28   4
ATOM      4  O   UNL     1      -5.214  -9.577  11.334  0.00  0.00    -0.495 OA
ATOM     31  C   UNL     1      -6.238  -8.967  12.119  0.00  0.00    +0.277 C 
ENDBRANCH  28   4
ENDBRANCH   7  23
BRANCH  10  14
ATOM     14  C   UNL     1      -7.337 -12.674  15.936  0.00  0.00    +0.002 C 
ATOM     16  C   UNL     1      -6.922 -13.347  14.644  0.00  0.00    +0.004 C 
ENDBRANCH  10  14
BRANCH   9  15
ATOM     15  C   UNL     1      -8.680 -12.660  18.674  0.00  0.00    +0.099 C 
BRANCH  15  17
ATOM      1  O   UNL     1      -9.140 -10.779  20.124  0.00  0.00    -0.276 OA
ATOM      6  N   UNL     1      -9.455 -10.557  17.833  0.00  0.00    -0.314 N 
ATOM     17  C   UNL     1      -9.108 -11.243  18.987  0.00  0.00    +0.213 C 
ATOM     32  H   UNL     1      -9.386 -11.028  16.935  0.00  0.00    +0.149 HD
BRANCH   6  19
ATOM     19  C   UNL     1      -9.904  -9.183  17.835  0.00  0.00    +0.119 C 
BRANCH  19  20
ATOM     20  C   UNL     1      -9.469  -8.458  16.571  0.00  0.00    +0.103 C 
BRANCH  20   8
ATOM      3  O   UNL     1     -12.859  -6.123  15.749  0.00  0.00    -0.377 OA
ATOM      8  N   UNL     1     -10.629  -7.885  15.889  0.00  0.00    -0.297 NA
ATOM     21  C   UNL     1     -11.860  -8.142  16.648  0.00  0.00    +0.112 C 
ATOM     22  C   UNL     1     -10.454  -6.440  15.687  0.00  0.00    +0.112 C 
ATOM     24  C   UNL     1     -13.053  -7.526  15.922  0.00  0.00    +0.175 C 
ATOM     25  C   UNL     1     -11.680  -5.863  14.985  0.00  0.00    +0.175 C 
ENDBRANCH  20   8
ENDBRANCH  19  20
ENDBRANCH   6  19
ENDBRANCH  15  17
ENDBRANCH   9  15
TORSDOF 8
ENDMDL
MODEL 7
REMARK VINA RESULT:      -5.9      1.948     10.298
REMARK  Name = 11912504
REMARK  10 active torsions:
REMARK  status: ('A' for Active; 'I' for Inactive)
REMARK    1  A    between atoms: O_4  and  C_28
REMARK    2  A    between atoms: O_4  and  C_31
REMARK    3  A    between atoms: N_6  and  C_19
REMARK    4  A    between atoms: N_7  and  C_23
REMARK    5  A    between atoms: N_8  and  C_20
REMARK    6  A    between atoms: C_9  and  C_15
REMARK    7  A    between atoms: C_10  and  C_14
REMARK    8  A    between atoms: C_14  and  C_16
REMARK    9  A    between atoms: C_15  and  C_17
REMARK   10  A    between atoms: C_19  and  C_20
REMARK                            x       y       z     vdW  Elec       q    Type
REMARK                         _______ _______ _______ _____ _____    ______ ____
ROOT
ATOM      2  O   UNL     1      -2.323 -10.705  15.759  0.00  0.00    -0.252 OA
ATOM      5  N   UNL     1      -4.323 -11.739  16.285  0.00  0.00    -0.285 N 
ATOM      7  N   UNL     1      -3.627 -11.553  14.039  0.00  0.00    -0.269 N 
ATOM      9  C   UNL     1      -6.672 -11.397  17.939  0.00  0.00    +0.004 C 
ATOM     10  C   UNL     1      -6.797 -11.702  16.423  0.00  0.00    +0.010 C 
ATOM     11  C   UNL     1      -5.334 -10.714  18.277  0.00  0.00    +0.023 C 
ATOM     12  C   UNL     1      -5.553 -12.471  15.949  0.00  0.00    +0.113 C 
ATOM     13  C   UNL     1      -4.147 -11.498  17.718  0.00  0.00    +0.109 C 
ATOM     18  C   UNL     1      -3.337 -11.295  15.378  0.00  0.00    +0.306 C 
ATOM     33  H   UNL     1      -4.197 -12.361  13.815  0.00  0.00    +0.156 HD
ENDROOT
BRANCH   7  23
ATOM     23  C   UNL     1      -3.226 -10.796  12.910  0.00  0.00    +0.038 A 
ATOM     26  C   UNL     1      -4.188 -10.256  12.056  0.00  0.00    +0.069 A 
ATOM     27  C   UNL     1      -1.872 -10.591  12.652  0.00  0.00    +0.023 A 
ATOM     28  C   UNL     1      -3.794  -9.512  10.944  0.00  0.00    +0.122 A 
ATOM     29  C   UNL     1      -1.477  -9.847  11.541  0.00  0.00    +0.005 A 
ATOM     30  C   UNL     1      -2.439  -9.307  10.687  0.00  0.00    +0.046 A 
BRANCH  28   4
ATOM      4  O   UNL     1      -4.732  -8.985  10.111  0.00  0.00    -0.495 OA
ATOM     31  C   UNL     1      -4.690  -9.392   8.744  0.00  0.00    +0.277 C 
ENDBRANCH  28   4
ENDBRANCH   7  23
BRANCH  10  14
ATOM     14  C   UNL     1      -7.025 -10.461  15.553  0.00  0.00    +0.002 C 
ATOM     16  C   UNL     1      -7.257 -10.843  14.106  0.00  0.00    +0.004 C 
ENDBRANCH  10  14
BRANCH   9  15
ATOM     15  C   UNL     1      -7.845 -10.585  18.488  0.00  0.00    +0.099 C 
BRANCH  15  17
ATOM      1  O   UNL     1      -9.457 -10.817  20.276  0.00  0.00    -0.276 OA
ATOM      6  N   UNL     1      -8.270 -12.682  19.560  0.00  0.00    -0.314 N 
ATOM     17  C   UNL     1      -8.624 -11.341  19.541  0.00  0.00    +0.213 C 
ATOM     32  H   UNL     1      -7.574 -13.021  18.902  0.00  0.00    +0.149 HD
BRANCH   6  19
ATOM     19  C   UNL     1      -8.856 -13.641  20.470  0.00  0.00    +0.119 C 
BRANCH  19  20
ATOM     20  C   UNL     1     -10.114 -14.261  19.882  0.00  0.00    +0.103 C 
BRANCH  20   8
ATOM      3  O   UNL     1     -12.490 -13.366  23.224  0.00  0.00    -0.377 OA
ATOM      8  N   UNL     1     -11.170 -14.322  20.891  0.00  0.00    -0.297 NA
ATOM     21  C   UNL     1     -10.601 -14.519  22.231  0.00  0.00    +0.112 C 
ATOM     22  C   UNL     1     -11.987 -13.101  20.865  0.00  0.00    +0.112 C 
ATOM     24  C   UNL     1     -11.720 -14.568  23.266  0.00  0.00    +0.175 C 
ATOM     25  C   UNL     1     -13.074 -13.182  21.933  0.00  0.00    +0.175 C 
ENDBRANCH  20   8
ENDBRANCH  19  20
ENDBRANCH   6  19
ENDBRANCH  15  17
ENDBRANCH   9  15
TORSDOF 8
ENDMDL
MODEL 8
REMARK VINA RESULT:      -5.9      2.205      3.167
REMARK  Name = 11912504
REMARK  10 active torsions:
REMARK  status: ('A' for Active; 'I' for Inactive)
REMARK    1  A    between atoms: O_4  and  C_28
REMARK    2  A    between atoms: O_4  and  C_31
REMARK    3  A    between atoms: N_6  and  C_19
REMARK    4  A    between atoms: N_7  and  C_23
REMARK    5  A    between atoms: N_8  and  C_20
REMARK    6  A    between atoms: C_9  and  C_15
REMARK    7  A    between atoms: C_10  and  C_14
REMARK    8  A    between atoms: C_14  and  C_16
REMARK    9  A    between atoms: C_15  and  C_17
REMARK   10  A    between atoms: C_19  and  C_20
REMARK                            x       y       z     vdW  Elec       q    Type
REMARK                         _______ _______ _______ _____ _____    ______ ____
ROOT
ATOM      2  O   UNL     1      -9.948 -12.567  19.932  0.00  0.00    -0.252 OA
ATOM      5  N   UNL     1      -8.077 -11.343  19.345  0.00  0.00    -0.285 N 
ATOM      7  N   UNL     1     -10.093 -10.252  19.901  0.00  0.00    -0.269 N 
ATOM      9  C   UNL     1      -5.956 -11.266  17.378  0.00  0.00    +0.004 C 
ATOM     10  C   UNL     1      -6.807 -10.007  17.688  0.00  0.00    +0.010 C 
ATOM     11  C   UNL     1      -6.718 -12.565  17.703  0.00  0.00    +0.023 C 
ATOM     12  C   UNL     1      -7.341 -10.088  19.128  0.00  0.00    +0.113 C 
ATOM     13  C   UNL     1      -7.276 -12.547  19.125  0.00  0.00    +0.109 C 
ATOM     18  C   UNL     1      -9.422 -11.466  19.753  0.00  0.00    +0.306 C 
ATOM     33  H   UNL     1      -9.557  -9.432  20.159  0.00  0.00    +0.156 HD
ENDROOT
BRANCH   7  23
ATOM     23  C   UNL     1     -11.476 -10.005  19.717  0.00  0.00    +0.038 A 
ATOM     26  C   UNL     1     -11.982  -9.802  18.433  0.00  0.00    +0.069 A 
ATOM     27  C   UNL     1     -12.331  -9.966  20.817  0.00  0.00    +0.023 A 
ATOM     28  C   UNL     1     -13.344  -9.558  18.250  0.00  0.00    +0.122 A 
ATOM     29  C   UNL     1     -13.692  -9.722  20.635  0.00  0.00    +0.005 A 
ATOM     30  C   UNL     1     -14.198  -9.519  19.351  0.00  0.00    +0.046 A 
BRANCH  28   4
ATOM      4  O   UNL     1     -13.838  -9.360  16.998  0.00  0.00    -0.495 OA
ATOM     31  C   UNL     1     -13.378  -8.208  16.293  0.00  0.00    +0.277 C 
ENDBRANCH  28   4
ENDBRANCH   7  23
BRANCH  10  14
ATOM     14  C   UNL     1      -7.957  -9.771  16.702  0.00  0.00    +0.002 C 
ATOM     16  C   UNL     1      -8.758  -8.542  17.079  0.00  0.00    +0.004 C 
ENDBRANCH  10  14
BRANCH   9  15
ATOM     15  C   UNL     1      -5.427 -11.297  15.944  0.00  0.00    +0.099 C 
BRANCH  15  17
ATOM      1  O   UNL     1      -3.218 -10.775  16.780  0.00  0.00    -0.276 OA
ATOM      6  N   UNL     1      -3.441 -11.813  14.713  0.00  0.00    -0.314 N 
ATOM     17  C   UNL     1      -3.916 -11.253  15.889  0.00  0.00    +0.213 C 
ATOM     32  H   UNL     1      -4.102 -12.190  14.040  0.00  0.00    +0.149 HD
BRANCH   6  19
ATOM     19  C   UNL     1      -2.034 -11.904  14.394  0.00  0.00    +0.119 C 
BRANCH  19  20
ATOM     20  C   UNL     1      -1.822 -12.212  12.920  0.00  0.00    +0.103 C 
BRANCH  20   8
ATOM      3  O   UNL     1      -3.708 -10.404   9.634  0.00  0.00    -0.377 OA
ATOM      8  N   UNL     1      -2.791 -11.482  12.103  0.00  0.00    -0.297 NA
ATOM     21  C   UNL     1      -2.179 -10.283  11.514  0.00  0.00    +0.112 C 
ATOM     22  C   UNL     1      -3.334 -12.343  11.044  0.00  0.00    +0.112 C 
ATOM     24  C   UNL     1      -3.205  -9.546  10.659  0.00  0.00    +0.175 C 
ATOM     25  C   UNL     1      -4.333 -11.557  10.199  0.00  0.00    +0.175 C 
ENDBRANCH  20   8
ENDBRANCH  19  20
ENDBRANCH   6  19
ENDBRANCH  15  17
ENDBRANCH   9  15
TORSDOF 8
ENDMDL
MODEL 9
REMARK VINA RESULT:      -5.8     19.649     23.237
REMARK  Name = 11912504
REMARK  10 active torsions:
REMARK  status: ('A' for Active; 'I' for Inactive)
REMARK    1  A    between atoms: O_4  and  C_28
REMARK    2  A    between atoms: O_4  and  C_31
REMARK    3  A    between atoms: N_6  and  C_19
REMARK    4  A    between atoms: N_7  and  C_23
REMARK    5  A    between atoms: N_8  and  C_20
REMARK    6  A    between atoms: C_9  and  C_15
REMARK    7  A    between atoms: C_10  and  C_14
REMARK    8  A    between atoms: C_14  and  C_16
REMARK    9  A    between atoms: C_15  and  C_17
REMARK   10  A    between atoms: C_19  and  C_20
REMARK                            x       y       z     vdW  Elec       q    Type
REMARK                         _______ _______ _______ _____ _____    ______ ____
ROOT
ATOM      2  O   UNL     1     -11.958   6.296  21.329  0.00  0.00    -0.252 OA
ATOM      5  N   UNL     1     -14.195   5.765  21.574  0.00  0.00    -0.285 N 
ATOM      7  N   UNL     1     -13.543   7.638  20.296  0.00  0.00    -0.269 N 
ATOM      9  C   UNL     1     -16.121   4.988  23.588  0.00  0.00    +0.004 C 
ATOM     10  C   UNL     1     -16.404   6.169  22.624  0.00  0.00    +0.010 C 
ATOM     11  C   UNL     1     -14.612   4.747  23.772  0.00  0.00    +0.023 C 
ATOM     12  C   UNL     1     -15.629   5.959  21.312  0.00  0.00    +0.113 C 
ATOM     13  C   UNL     1     -13.897   4.615  22.427  0.00  0.00    +0.109 C 
ATOM     18  C   UNL     1     -13.137   6.552  21.070  0.00  0.00    +0.306 C 
ATOM     33  H   UNL     1     -14.413   7.565  19.780  0.00  0.00    +0.156 HD
ENDROOT
BRANCH   7  23
ATOM     23  C   UNL     1     -12.881   8.881  20.143  0.00  0.00    +0.038 A 
ATOM     26  C   UNL     1     -12.143   9.140  18.987  0.00  0.00    +0.069 A 
ATOM     27  C   UNL     1     -12.967   9.846  21.145  0.00  0.00    +0.023 A 
ATOM     28  C   UNL     1     -11.491  10.364  18.836  0.00  0.00    +0.122 A 
ATOM     29  C   UNL     1     -12.315  11.069  20.995  0.00  0.00    +0.005 A 
ATOM     30  C   UNL     1     -11.577  11.328  19.840  0.00  0.00    +0.046 A 
BRANCH  28   4
ATOM      4  O   UNL     1     -10.771  10.616  17.710  0.00  0.00    -0.495 OA
ATOM     31  C   UNL     1     -10.083   9.516  17.117  0.00  0.00    +0.277 C 
ENDBRANCH  28   4
ENDBRANCH   7  23
BRANCH  10  14
ATOM     14  C   UNL     1     -16.091   7.548  23.216  0.00  0.00    +0.002 C 
ATOM     16  C   UNL     1     -17.220   8.524  22.956  0.00  0.00    +0.004 C 
ENDBRANCH  10  14
BRANCH   9  15
ATOM     15  C   UNL     1     -16.811   5.140  24.944  0.00  0.00    +0.099 C 
BRANCH  15  17
ATOM      1  O   UNL     1     -17.426   2.836  25.349  0.00  0.00    -0.276 OA
ATOM      6  N   UNL     1     -16.110   3.956  26.902  0.00  0.00    -0.314 N 
ATOM     17  C   UNL     1     -16.834   3.844  25.725  0.00  0.00    +0.213 C 
ATOM     32  H   UNL     1     -15.648   4.834  27.120  0.00  0.00    +0.149 HD
BRANCH   6  19
ATOM     19  C   UNL     1     -15.964   2.870  27.845  0.00  0.00    +0.119 C 
BRANCH  19  20
ATOM     20  C   UNL     1     -15.494   3.376  29.200  0.00  0.00    +0.103 C 
BRANCH  20   8
ATOM      3  O   UNL     1     -15.006  -0.057  31.566  0.00  0.00    -0.377 OA
ATOM      8  N   UNL     1     -14.878   2.291  29.962  0.00  0.00    -0.297 NA
ATOM     21  C   UNL     1     -15.288   2.345  31.372  0.00  0.00    +0.112 C 
ATOM     22  C   UNL     1     -15.227   0.985  29.385  0.00  0.00    +0.112 C 
ATOM     24  C   UNL     1     -14.642   1.197  32.143  0.00  0.00    +0.175 C 
ATOM     25  C   UNL     1     -14.583  -0.131  30.204  0.00  0.00    +0.175 C 
ENDBRANCH  20   8
ENDBRANCH  19  20
ENDBRANCH   6  19
ENDBRANCH  15  17
ENDBRANCH   9  15
TORSDOF 8
ENDMDL
MODEL 10
REMARK VINA RESULT:      -5.8      2.386      9.753
REMARK  Name = 11912504
REMARK  10 active torsions:
REMARK  status: ('A' for Active; 'I' for Inactive)
REMARK    1  A    between atoms: O_4  and  C_28
REMARK    2  A    between atoms: O_4  and  C_31
REMARK    3  A    between atoms: N_6  and  C_19
REMARK    4  A    between atoms: N_7  and  C_23
REMARK    5  A    between atoms: N_8  and  C_20
REMARK    6  A    between atoms: C_9  and  C_15
REMARK    7  A    between atoms: C_10  and  C_14
REMARK    8  A    between atoms: C_14  and  C_16
REMARK    9  A    between atoms: C_15  and  C_17
REMARK   10  A    between atoms: C_19  and  C_20
REMARK                            x       y       z     vdW  Elec       q    Type
REMARK                         _______ _______ _______ _____ _____    ______ ____
ROOT
ATOM      2  O   UNL     1      -2.400 -10.306  14.074  0.00  0.00    -0.252 OA
ATOM      5  N   UNL     1      -4.037 -11.337  15.339  0.00  0.00    -0.285 N 
ATOM      7  N   UNL     1      -4.328 -11.045  13.016  0.00  0.00    -0.269 N 
ATOM      9  C   UNL     1      -5.479 -11.049  17.831  0.00  0.00    +0.004 C 
ATOM     10  C   UNL     1      -6.230 -11.274  16.492  0.00  0.00    +0.010 C 
ATOM     11  C   UNL     1      -4.099 -10.403  17.611  0.00  0.00    +0.023 C 
ATOM     12  C   UNL     1      -5.320 -12.035  15.513  0.00  0.00    +0.113 C 
ATOM     13  C   UNL     1      -3.277 -11.173  16.578  0.00  0.00    +0.109 C 
ATOM     18  C   UNL     1      -3.501 -10.861  14.124  0.00  0.00    +0.306 C 
ATOM     33  H   UNL     1      -4.966 -11.833  13.016  0.00  0.00    +0.156 HD
ENDROOT
BRANCH   7  23
ATOM     23  C   UNL     1      -4.404 -10.237  11.855  0.00  0.00    +0.038 A 
ATOM     26  C   UNL     1      -5.622  -9.667  11.482  0.00  0.00    +0.069 A 
ATOM     27  C   UNL     1      -3.264 -10.011  11.085  0.00  0.00    +0.023 A 
ATOM     28  C   UNL     1      -5.698  -8.871  10.339  0.00  0.00    +0.122 A 
ATOM     29  C   UNL     1      -3.340  -9.216   9.942  0.00  0.00    +0.005 A 
ATOM     30  C   UNL     1      -4.557  -8.646   9.569  0.00  0.00    +0.046 A 
BRANCH  28   4
ATOM      4  O   UNL     1      -6.885  -8.315   9.975  0.00  0.00    -0.495 OA
ATOM     31  C   UNL     1      -8.052  -9.125  10.110  0.00  0.00    +0.277 C 
ENDBRANCH  28   4
ENDBRANCH   7  23
BRANCH  10  14
ATOM     14  C   UNL     1      -6.755  -9.987  15.847  0.00  0.00    +0.002 C 
ATOM     16  C   UNL     1      -8.225 -10.108  15.501  0.00  0.00    +0.004 C 
ENDBRANCH  10  14
BRANCH   9  15
ATOM     15  C   UNL     1      -6.291 -10.251  18.850  0.00  0.00    +0.099 C 
BRANCH  15  17
ATOM      1  O   UNL     1      -7.226 -12.084  20.121  0.00  0.00    -0.276 OA
ATOM      6  N   UNL     1      -8.649 -10.516  19.162  0.00  0.00    -0.314 N 
ATOM     17  C   UNL     1      -7.411 -11.066  19.458  0.00  0.00    +0.213 C 
ATOM     32  H   UNL     1      -8.696  -9.664  18.611  0.00  0.00    +0.149 HD
BRANCH   6  19
ATOM     19  C   UNL     1      -9.897 -11.091  19.615  0.00  0.00    +0.119 C 
BRANCH  19  20
ATOM     20  C   UNL     1     -11.003 -10.048  19.649  0.00  0.00    +0.103 C 
BRANCH  20   8
ATOM      3  O   UNL     1     -14.157 -12.711  20.414  0.00  0.00    -0.377 OA
ATOM      8  N   UNL     1     -12.313 -10.696  19.613  0.00  0.00    -0.297 NA
ATOM     21  C   UNL     1     -12.199 -12.079  19.129  0.00  0.00    +0.112 C 
ATOM     22  C   UNL     1     -12.942 -10.677  20.941  0.00  0.00    +0.112 C 
ATOM     24  C   UNL     1     -13.575 -12.736  19.111  0.00  0.00    +0.175 C 
ATOM     25  C   UNL     1     -14.302 -11.369  20.880  0.00  0.00    +0.175 C 
ENDBRANCH  20   8
ENDBRANCH  19  20
ENDBRANCH   6  19
ENDBRANCH  15  17
ENDBRANCH   9  15
TORSDOF 8
ENDMDL
