REMARK  Name = 45783309
REMARK  5 active torsions:
REMARK  status: ('A' for Active; 'I' for Inactive)
REMARK    1  A    between atoms: N_3  and  C_16
REMARK    2  A    between atoms: C_9  and  C_19
REMARK    3  A    between atoms: C_13  and  C_22
REMARK    4  A    between atoms: C_16  and  C_20
REMARK    5  A    between atoms: C_23  and  C_25
REMARK                            x       y       z     vdW  Elec       q    Type
REMARK                         _______ _______ _______ _____ _____    ______ ____
ROOT
ATOM      1  O   UNL     1      -3.208  -3.186   0.462  0.00  0.00    -0.336 OA
ATOM      5  N   UNL     1      -1.791  -1.486   0.111  0.00  0.00    -0.190 NA
ATOM      6  N   UNL     1      -1.921  -3.738   0.496  0.00  0.00    -0.056 NA
ATOM     19  C   UNL     1      -3.041  -1.857   0.230  0.00  0.00    +0.245 A 
ATOM     23  C   UNL     1      -1.141  -2.674   0.282  0.00  0.00    +0.202 A 
ENDROOT
BRANCH  23  25
ATOM      4  N   UNL     1       3.187  -0.606  -0.265  0.00  0.00    -0.315 N 
ATOM      7  N   UNL     1       3.079  -2.938   0.134  0.00  0.00    -0.240 NA
ATOM     13  C   UNL     1       4.799   1.754  -0.774  0.00  0.00    +0.078 C 
ATOM     14  C   UNL     1       4.851   0.527  -1.683  0.00  0.00    +0.031 C 
ATOM     15  C   UNL     1       3.474   1.829  -0.019  0.00  0.00    +0.031 C 
ATOM     17  C   UNL     1       4.471  -0.764  -0.958  0.00  0.00    +0.107 C 
ATOM     18  C   UNL     1       3.089   0.518   0.670  0.00  0.00    +0.107 C 
ATOM     21  C   UNL     1       2.432  -1.762  -0.035  0.00  0.00    +0.122 A 
ATOM     24  C   UNL     1       1.054  -1.623   0.004  0.00  0.00    +0.055 A 
ATOM     25  C   UNL     1       0.291  -2.764   0.230  0.00  0.00    +0.027 A 
ATOM     28  C   UNL     1       0.920  -3.990   0.409  0.00  0.00    +0.031 A 
ATOM     29  C   UNL     1       2.304  -4.024   0.352  0.00  0.00    +0.113 A 
BRANCH  13  22
ATOM      2  O   UNL     1       5.825   1.796   1.386  0.00  0.00    -0.276 OA
ATOM      8  N   UNL     1       7.189   1.754  -0.467  0.00  0.00    -0.329 N 
ATOM     22  C   UNL     1       5.968   1.764   0.166  0.00  0.00    +0.214 C 
ATOM     33  H   UNL     1       8.050   1.757   0.070  0.00  0.00    +0.145 HD
ATOM     34  H   UNL     1       7.289   1.791  -1.476  0.00  0.00    +0.145 HD
ENDBRANCH  13  22
ENDBRANCH  23  25
BRANCH  19   9
ATOM      3  N   UNL     1      -4.027   0.393  -0.167  0.00  0.00    -0.287 NA
ATOM      9  C   UNL     1      -4.302  -1.023   0.148  0.00  0.00    +0.146 C 
ATOM     10  C   UNL     1      -5.255  -1.494  -0.967  0.00  0.00    +0.030 C 
ATOM     11  C   UNL     1      -5.505  -0.261  -1.823  0.00  0.00    +0.017 C 
ATOM     12  C   UNL     1      -5.199   0.891  -0.888  0.00  0.00    +0.085 C 
BRANCH   3  16
ATOM     16  C   UNL     1      -3.726   1.195   1.011  0.00  0.00    +0.120 C 
BRANCH  16  20
ATOM     20  C   UNL     1      -2.987   2.458   0.655  0.00  0.00    -0.033 A 
ATOM     26  C   UNL     1      -1.593   2.463   0.617  0.00  0.00    +0.005 A 
ATOM     27  C   UNL     1      -3.697   3.623   0.365  0.00  0.00    +0.005 A 
ATOM     30  C   UNL     1      -0.909   3.634   0.287  0.00  0.00    +0.000 A 
ATOM     31  C   UNL     1      -3.013   4.793   0.035  0.00  0.00    +0.000 A 
ATOM     32  C   UNL     1      -1.619   4.798  -0.003  0.00  0.00    +0.000 A 
ENDBRANCH  16  20
ENDBRANCH   3  16
ENDBRANCH  19   9
TORSDOF 5
