MODEL 1
REMARK VINA RESULT:      -7.6      0.000      0.000
REMARK  Name = 45783597
REMARK  8 active torsions:
REMARK  status: ('A' for Active; 'I' for Inactive)
REMARK    1  A    between atoms: S_1  and  N_9
REMARK    2  A    between atoms: S_1  and  C_30
REMARK    3  A    between atoms: O_3  and  C_24
REMARK    4  A    between atoms: O_3  and  C_29
REMARK    5  A    between atoms: N_6  and  C_15
REMARK    6  A    between atoms: C_11  and  C_16
REMARK    7  A    between atoms: C_15  and  C_17
REMARK    8  A    between atoms: C_20  and  C_23
REMARK                            x       y       z     vdW  Elec       q    Type
REMARK                         _______ _______ _______ _____ _____    ______ ____
ROOT
ATOM      2  O   UNL     1      14.134   6.527  19.944  0.00  0.00    -0.336 OA
ATOM      7  N   UNL     1      15.620   8.067  19.279  0.00  0.00    -0.190 NA
ATOM      8  N   UNL     1      15.162   6.512  20.895  0.00  0.00    -0.056 NA
ATOM     16  C   UNL     1      14.482   7.469  19.028  0.00  0.00    +0.245 A 
ATOM     20  C   UNL     1      16.000   7.446  20.433  0.00  0.00    +0.202 A 
ENDROOT
BRANCH  20  23
ATOM      9  N   UNL     1      20.342   6.197  22.286  0.00  0.00    -0.204 N 
ATOM     10  N   UNL     1      19.610   8.436  22.402  0.00  0.00    -0.239 NA
ATOM     23  C   UNL     1      17.224   7.781  21.100  0.00  0.00    +0.027 A 
ATOM     25  C   UNL     1      18.173   6.798  21.356  0.00  0.00    +0.056 A 
ATOM     26  C   UNL     1      17.467   9.093  21.494  0.00  0.00    +0.031 A 
ATOM     27  C   UNL     1      19.339   7.174  22.003  0.00  0.00    +0.138 A 
ATOM     28  C   UNL     1      18.665   9.366  22.136  0.00  0.00    +0.113 A 
ATOM     31  H   UNL     1      20.896   6.427  23.121  0.00  0.00    +0.175 HD
BRANCH   9   1
ATOM      1  S   UNL     1      21.245   5.554  20.967  0.00  0.00    +0.041 S 
ATOM      4  O   UNL     1      20.453   4.517  20.332  0.00  0.00    -0.155 OA
ATOM      5  O   UNL     1      21.837   6.617  20.179  0.00  0.00    -0.155 OA
ATOM     30  C   UNL     1      22.553   4.736  21.852  0.00  0.00    +0.218 C 
ENDBRANCH   9   1
ENDBRANCH  20  23
BRANCH  16  11
ATOM      6  N   UNL     1      12.536   8.751  18.153  0.00  0.00    -0.287 NA
ATOM     11  C   UNL     1      13.518   7.683  17.880  0.00  0.00    +0.146 C 
ATOM     12  C   UNL     1      14.225   8.124  16.584  0.00  0.00    +0.030 C 
ATOM     13  C   UNL     1      13.533   9.416  16.174  0.00  0.00    +0.017 C 
ATOM     14  C   UNL     1      12.182   9.330  16.857  0.00  0.00    +0.085 C 
BRANCH   6  15
ATOM     15  C   UNL     1      11.365   8.282  18.882  0.00  0.00    +0.120 C 
BRANCH  15  17
ATOM     17  C   UNL     1      11.299   8.858  20.271  0.00  0.00    -0.033 A 
ATOM     18  C   UNL     1      10.738   8.115  21.310  0.00  0.00    +0.008 A 
ATOM     19  C   UNL     1      11.799  10.136  20.519  0.00  0.00    +0.008 A 
ATOM     21  C   UNL     1      10.678   8.650  22.597  0.00  0.00    +0.046 A 
ATOM     22  C   UNL     1      11.739  10.672  21.806  0.00  0.00    +0.046 A 
ATOM     24  C   UNL     1      11.179   9.929  22.844  0.00  0.00    +0.120 A 
BRANCH  24   3
ATOM      3  O   UNL     1      11.121  10.450  24.100  0.00  0.00    -0.495 OA
ATOM     29  C   UNL     1      10.977  11.865  24.209  0.00  0.00    +0.277 C 
ENDBRANCH  24   3
ENDBRANCH  15  17
ENDBRANCH   6  15
ENDBRANCH  16  11
TORSDOF 6
ENDMDL
MODEL 2
REMARK VINA RESULT:      -7.0      2.640      5.012
REMARK  Name = 45783597
REMARK  8 active torsions:
REMARK  status: ('A' for Active; 'I' for Inactive)
REMARK    1  A    between atoms: S_1  and  N_9
REMARK    2  A    between atoms: S_1  and  C_30
REMARK    3  A    between atoms: O_3  and  C_24
REMARK    4  A    between atoms: O_3  and  C_29
REMARK    5  A    between atoms: N_6  and  C_15
REMARK    6  A    between atoms: C_11  and  C_16
REMARK    7  A    between atoms: C_15  and  C_17
REMARK    8  A    between atoms: C_20  and  C_23
REMARK                            x       y       z     vdW  Elec       q    Type
REMARK                         _______ _______ _______ _____ _____    ______ ____
ROOT
ATOM      2  O   UNL     1      14.804   6.719  19.361  0.00  0.00    -0.336 OA
ATOM      7  N   UNL     1      16.087   7.521  21.014  0.00  0.00    -0.190 NA
ATOM      8  N   UNL     1      16.075   6.161  19.174  0.00  0.00    -0.056 NA
ATOM     16  C   UNL     1      14.898   7.507  20.465  0.00  0.00    +0.245 A 
ATOM     20  C   UNL     1      16.775   6.681  20.187  0.00  0.00    +0.202 A 
ENDROOT
BRANCH  20  23
ATOM      9  N   UNL     1      21.132   7.758  22.110  0.00  0.00    -0.204 N 
ATOM     10  N   UNL     1      20.865   5.805  20.813  0.00  0.00    -0.239 NA
ATOM     23  C   UNL     1      18.161   6.384  20.400  0.00  0.00    +0.027 A 
ATOM     25  C   UNL     1      18.950   7.240  21.160  0.00  0.00    +0.056 A 
ATOM     26  C   UNL     1      18.722   5.238  19.846  0.00  0.00    +0.031 A 
ATOM     27  C   UNL     1      20.284   6.908  21.335  0.00  0.00    +0.138 A 
ATOM     28  C   UNL     1      20.067   4.997  20.080  0.00  0.00    +0.113 A 
ATOM     31  H   UNL     1      22.115   7.715  21.811  0.00  0.00    +0.175 HD
BRANCH   9   1
ATOM      1  S   UNL     1      20.890   7.813  23.814  0.00  0.00    +0.041 S 
ATOM      4  O   UNL     1      20.286   9.088  24.149  0.00  0.00    -0.155 OA
ATOM      5  O   UNL     1      20.312   6.574  24.295  0.00  0.00    -0.155 OA
ATOM     30  C   UNL     1      22.578   7.880  24.369  0.00  0.00    +0.218 C 
ENDBRANCH   9   1
ENDBRANCH  20  23
BRANCH  16  11
ATOM      6  N   UNL     1      12.918   8.830  19.743  0.00  0.00    -0.287 NA
ATOM     11  C   UNL     1      13.637   8.232  20.885  0.00  0.00    +0.146 C 
ATOM     12  C   UNL     1      12.609   7.299  21.551  0.00  0.00    +0.030 C 
ATOM     13  C   UNL     1      11.327   7.486  20.751  0.00  0.00    +0.017 C 
ATOM     14  C   UNL     1      11.502   8.848  20.109  0.00  0.00    +0.085 C 
BRANCH   6  15
ATOM     15  C   UNL     1      13.408  10.155  19.385  0.00  0.00    +0.120 C 
BRANCH  15  17
ATOM     17  C   UNL     1      13.893  10.208  17.960  0.00  0.00    -0.033 A 
ATOM     18  C   UNL     1      14.506  11.363  17.474  0.00  0.00    +0.008 A 
ATOM     19  C   UNL     1      13.728   9.102  17.127  0.00  0.00    +0.008 A 
ATOM     21  C   UNL     1      14.955  11.410  16.154  0.00  0.00    +0.046 A 
ATOM     22  C   UNL     1      14.176   9.150  15.807  0.00  0.00    +0.046 A 
ATOM     24  C   UNL     1      14.790  10.304  15.321  0.00  0.00    +0.120 A 
BRANCH  24   3
ATOM      3  O   UNL     1      15.229  10.351  14.034  0.00  0.00    -0.495 OA
ATOM     29  C   UNL     1      15.528  11.639  13.497  0.00  0.00    +0.277 C 
ENDBRANCH  24   3
ENDBRANCH  15  17
ENDBRANCH   6  15
ENDBRANCH  16  11
TORSDOF 6
ENDMDL
MODEL 3
REMARK VINA RESULT:      -6.9     26.832     29.925
REMARK  Name = 45783597
REMARK  8 active torsions:
REMARK  status: ('A' for Active; 'I' for Inactive)
REMARK    1  A    between atoms: S_1  and  N_9
REMARK    2  A    between atoms: S_1  and  C_30
REMARK    3  A    between atoms: O_3  and  C_24
REMARK    4  A    between atoms: O_3  and  C_29
REMARK    5  A    between atoms: N_6  and  C_15
REMARK    6  A    between atoms: C_11  and  C_16
REMARK    7  A    between atoms: C_15  and  C_17
REMARK    8  A    between atoms: C_20  and  C_23
REMARK                            x       y       z     vdW  Elec       q    Type
REMARK                         _______ _______ _______ _____ _____    ______ ____
ROOT
ATOM      2  O   UNL     1      -5.114  -9.882  15.661  0.00  0.00    -0.336 OA
ATOM      7  N   UNL     1      -4.991 -11.614  17.077  0.00  0.00    -0.190 NA
ATOM      8  N   UNL     1      -6.287  -9.845  16.425  0.00  0.00    -0.056 NA
ATOM     16  C   UNL     1      -4.407 -10.954  16.108  0.00  0.00    +0.245 A 
ATOM     20  C   UNL     1      -6.140 -10.897  17.236  0.00  0.00    +0.202 A 
ENDROOT
BRANCH  20  23
ATOM      9  N   UNL     1     -10.276 -10.010  19.676  0.00  0.00    -0.204 N 
ATOM     10  N   UNL     1      -9.039 -11.967  20.125  0.00  0.00    -0.239 NA
ATOM     23  C   UNL     1      -7.124 -11.260  18.215  0.00  0.00    +0.027 A 
ATOM     25  C   UNL     1      -8.216 -10.433  18.448  0.00  0.00    +0.056 A 
ATOM     26  C   UNL     1      -6.987 -12.442  18.936  0.00  0.00    +0.031 A 
ATOM     27  C   UNL     1      -9.138 -10.828  19.405  0.00  0.00    +0.138 A 
ATOM     28  C   UNL     1      -7.964 -12.747  19.871  0.00  0.00    +0.113 A 
ATOM     31  H   UNL     1     -10.613 -10.106  20.643  0.00  0.00    +0.175 HD
BRANCH   9   1
ATOM      1  S   UNL     1     -11.513  -9.914  18.480  0.00  0.00    +0.041 S 
ATOM      4  O   UNL     1     -11.353  -8.667  17.756  0.00  0.00    -0.155 OA
ATOM      5  O   UNL     1     -11.642 -11.170  17.769  0.00  0.00    -0.155 OA
ATOM     30  C   UNL     1     -12.942  -9.726  19.522  0.00  0.00    +0.218 C 
ENDBRANCH   9   1
ENDBRANCH  20  23
BRANCH  16  11
ATOM      6  N   UNL     1      -2.945 -10.507  14.145  0.00  0.00    -0.287 NA
ATOM     11  C   UNL     1      -3.077 -11.215  15.434  0.00  0.00    +0.146 C 
ATOM     12  C   UNL     1      -1.880 -10.729  16.272  0.00  0.00    +0.030 C 
ATOM     13  C   UNL     1      -1.101  -9.800  15.351  0.00  0.00    +0.017 C 
ATOM     14  C   UNL     1      -1.518 -10.242  13.962  0.00  0.00    +0.085 C 
BRANCH   6  15
ATOM     15  C   UNL     1      -3.514 -11.244  13.024  0.00  0.00    +0.120 C 
BRANCH  15  17
ATOM     17  C   UNL     1      -4.150 -10.326  12.013  0.00  0.00    -0.033 A 
ATOM     18  C   UNL     1      -3.411  -9.872  10.920  0.00  0.00    +0.008 A 
ATOM     19  C   UNL     1      -5.478  -9.930  12.172  0.00  0.00    +0.008 A 
ATOM     21  C   UNL     1      -4.002  -9.022   9.985  0.00  0.00    +0.046 A 
ATOM     22  C   UNL     1      -6.069  -9.079  11.236  0.00  0.00    +0.046 A 
ATOM     24  C   UNL     1      -5.331  -8.626  10.143  0.00  0.00    +0.120 A 
BRANCH  24   3
ATOM      3  O   UNL     1      -5.906  -7.798   9.230  0.00  0.00    -0.495 OA
ATOM     29  C   UNL     1      -7.299  -7.980   8.976  0.00  0.00    +0.277 C 
ENDBRANCH  24   3
ENDBRANCH  15  17
ENDBRANCH   6  15
ENDBRANCH  16  11
TORSDOF 6
ENDMDL
MODEL 4
REMARK VINA RESULT:      -6.7      4.603      7.765
REMARK  Name = 45783597
REMARK  8 active torsions:
REMARK  status: ('A' for Active; 'I' for Inactive)
REMARK    1  A    between atoms: S_1  and  N_9
REMARK    2  A    between atoms: S_1  and  C_30
REMARK    3  A    between atoms: O_3  and  C_24
REMARK    4  A    between atoms: O_3  and  C_29
REMARK    5  A    between atoms: N_6  and  C_15
REMARK    6  A    between atoms: C_11  and  C_16
REMARK    7  A    between atoms: C_15  and  C_17
REMARK    8  A    between atoms: C_20  and  C_23
REMARK                            x       y       z     vdW  Elec       q    Type
REMARK                         _______ _______ _______ _____ _____    ______ ____
ROOT
ATOM      2  O   UNL     1      12.990   8.054  16.470  0.00  0.00    -0.336 OA
ATOM      7  N   UNL     1      13.934   9.582  17.809  0.00  0.00    -0.190 NA
ATOM      8  N   UNL     1      13.737   8.895  15.636  0.00  0.00    -0.056 NA
ATOM     16  C   UNL     1      13.160   8.528  17.733  0.00  0.00    +0.245 A 
ATOM     20  C   UNL     1      14.264   9.769  16.499  0.00  0.00    +0.202 A 
ENDROOT
BRANCH  20  23
ATOM      9  N   UNL     1      16.952  12.028  13.105  0.00  0.00    -0.204 N 
ATOM     10  N   UNL     1      16.793  12.932  15.279  0.00  0.00    -0.239 NA
ATOM     23  C   UNL     1      15.121  10.842  16.084  0.00  0.00    +0.027 A 
ATOM     25  C   UNL     1      15.606  10.885  14.782  0.00  0.00    +0.056 A 
ATOM     26  C   UNL     1      15.470  11.843  16.985  0.00  0.00    +0.031 A 
ATOM     27  C   UNL     1      16.431  11.942  14.433  0.00  0.00    +0.138 A 
ATOM     28  C   UNL     1      16.302  12.857  16.536  0.00  0.00    +0.113 A 
ATOM     31  H   UNL     1      17.858  12.512  13.065  0.00  0.00    +0.175 HD
BRANCH   9   1
ATOM      1  S   UNL     1      15.863  12.415  11.828  0.00  0.00    +0.041 S 
ATOM      4  O   UNL     1      16.548  12.209  10.565  0.00  0.00    -0.155 OA
ATOM      5  O   UNL     1      14.559  11.828  12.064  0.00  0.00    -0.155 OA
ATOM     30  C   UNL     1      15.721  14.173  12.058  0.00  0.00    +0.218 C 
ENDBRANCH   9   1
ENDBRANCH  20  23
BRANCH  16  11
ATOM      6  N   UNL     1      13.236   7.709  20.082  0.00  0.00    -0.287 NA
ATOM     11  C   UNL     1      12.444   7.780  18.837  0.00  0.00    +0.146 C 
ATOM     12  C   UNL     1      11.123   8.455  19.252  0.00  0.00    +0.030 C 
ATOM     13  C   UNL     1      11.241   8.669  20.755  0.00  0.00    +0.017 C 
ATOM     14  C   UNL     1      12.274   7.644  21.182  0.00  0.00    +0.085 C 
BRANCH   6  15
ATOM     15  C   UNL     1      14.171   6.591  20.104  0.00  0.00    +0.120 C 
BRANCH  15  17
ATOM     17  C   UNL     1      15.572   7.037  20.426  0.00  0.00    -0.033 A 
ATOM     18  C   UNL     1      15.799   8.321  20.922  0.00  0.00    +0.008 A 
ATOM     19  C   UNL     1      16.643   6.166  20.227  0.00  0.00    +0.008 A 
ATOM     21  C   UNL     1      17.098   8.733  21.221  0.00  0.00    +0.046 A 
ATOM     22  C   UNL     1      17.942   6.578  20.525  0.00  0.00    +0.046 A 
ATOM     24  C   UNL     1      18.169   7.862  21.022  0.00  0.00    +0.120 A 
BRANCH  24   3
ATOM      3  O   UNL     1      19.436   8.264  21.314  0.00  0.00    -0.495 OA
ATOM     29  C   UNL     1      20.503   7.441  20.845  0.00  0.00    +0.277 C 
ENDBRANCH  24   3
ENDBRANCH  15  17
ENDBRANCH   6  15
ENDBRANCH  16  11
TORSDOF 6
ENDMDL
MODEL 5
REMARK VINA RESULT:      -6.6     27.715     29.654
REMARK  Name = 45783597
REMARK  8 active torsions:
REMARK  status: ('A' for Active; 'I' for Inactive)
REMARK    1  A    between atoms: S_1  and  N_9
REMARK    2  A    between atoms: S_1  and  C_30
REMARK    3  A    between atoms: O_3  and  C_24
REMARK    4  A    between atoms: O_3  and  C_29
REMARK    5  A    between atoms: N_6  and  C_15
REMARK    6  A    between atoms: C_11  and  C_16
REMARK    7  A    between atoms: C_15  and  C_17
REMARK    8  A    between atoms: C_20  and  C_23
REMARK                            x       y       z     vdW  Elec       q    Type
REMARK                         _______ _______ _______ _____ _____    ______ ____
ROOT
ATOM      2  O   UNL     1      -7.706 -10.283  11.684  0.00  0.00    -0.336 OA
ATOM      7  N   UNL     1      -5.961  -9.186  12.561  0.00  0.00    -0.190 NA
ATOM      8  N   UNL     1      -7.623 -10.689  13.022  0.00  0.00    -0.056 NA
ATOM     16  C   UNL     1      -6.691  -9.399  11.495  0.00  0.00    +0.245 A 
ATOM     20  C   UNL     1      -6.570  -9.999  13.471  0.00  0.00    +0.202 A 
ENDROOT
BRANCH  20  23
ATOM      9  N   UNL     1      -7.321  -9.750  18.290  0.00  0.00    -0.204 N 
ATOM     10  N   UNL     1      -5.183 -10.297  17.455  0.00  0.00    -0.239 NA
ATOM     23  C   UNL     1      -6.101 -10.101  14.822  0.00  0.00    +0.027 A 
ATOM     25  C   UNL     1      -6.968  -9.869  15.883  0.00  0.00    +0.056 A 
ATOM     26  C   UNL     1      -4.774 -10.432  15.076  0.00  0.00    +0.031 A 
ATOM     27  C   UNL     1      -6.465  -9.979  17.170  0.00  0.00    +0.138 A 
ATOM     28  C   UNL     1      -4.369 -10.516  16.399  0.00  0.00    +0.113 A 
ATOM     31  H   UNL     1      -6.813  -9.396  19.111  0.00  0.00    +0.175 HD
BRANCH   9   1
ATOM      1  S   UNL     1      -8.539 -10.918  18.634  0.00  0.00    +0.041 S 
ATOM      4  O   UNL     1      -8.211 -12.143  17.929  0.00  0.00    -0.155 OA
ATOM      5  O   UNL     1      -8.847 -10.941  20.050  0.00  0.00    -0.155 OA
ATOM     30  C   UNL     1      -9.922 -10.188  17.786  0.00  0.00    +0.218 C 
ENDBRANCH   9   1
ENDBRANCH  20  23
BRANCH  16  11
ATOM      6  N   UNL     1      -5.742  -9.636   9.206  0.00  0.00    -0.287 NA
ATOM     11  C   UNL     1      -6.563  -8.804  10.109  0.00  0.00    +0.146 C 
ATOM     12  C   UNL     1      -7.920  -8.671   9.392  0.00  0.00    +0.030 C 
ATOM     13  C   UNL     1      -7.745  -9.408   8.071  0.00  0.00    +0.017 C 
ATOM     14  C   UNL     1      -6.245  -9.400   7.853  0.00  0.00    +0.085 C 
BRANCH   6  15
ATOM     15  C   UNL     1      -4.315  -9.365   9.316  0.00  0.00    +0.120 C 
BRANCH  15  17
ATOM     17  C   UNL     1      -3.643 -10.283  10.302  0.00  0.00    -0.033 A 
ATOM     18  C   UNL     1      -4.027 -11.622  10.383  0.00  0.00    +0.008 A 
ATOM     19  C   UNL     1      -2.637  -9.794  11.135  0.00  0.00    +0.008 A 
ATOM     21  C   UNL     1      -3.403 -12.472  11.297  0.00  0.00    +0.046 A 
ATOM     22  C   UNL     1      -2.014 -10.644  12.050  0.00  0.00    +0.046 A 
ATOM     24  C   UNL     1      -2.397 -11.983  12.130  0.00  0.00    +0.120 A 
BRANCH  24   3
ATOM      3  O   UNL     1      -1.789 -12.812  13.020  0.00  0.00    -0.495 OA
ATOM     29  C   UNL     1      -1.614 -12.322  14.349  0.00  0.00    +0.277 C 
ENDBRANCH  24   3
ENDBRANCH  15  17
ENDBRANCH   6  15
ENDBRANCH  16  11
TORSDOF 6
ENDMDL
MODEL 6
REMARK VINA RESULT:      -6.6     15.463     19.215
REMARK  Name = 45783597
REMARK  8 active torsions:
REMARK  status: ('A' for Active; 'I' for Inactive)
REMARK    1  A    between atoms: S_1  and  N_9
REMARK    2  A    between atoms: S_1  and  C_30
REMARK    3  A    between atoms: O_3  and  C_24
REMARK    4  A    between atoms: O_3  and  C_29
REMARK    5  A    between atoms: N_6  and  C_15
REMARK    6  A    between atoms: C_11  and  C_16
REMARK    7  A    between atoms: C_15  and  C_17
REMARK    8  A    between atoms: C_20  and  C_23
REMARK                            x       y       z     vdW  Elec       q    Type
REMARK                         _______ _______ _______ _____ _____    ______ ____
ROOT
ATOM      2  O   UNL     1      11.271   6.969   3.914  0.00  0.00    -0.336 OA
ATOM      7  N   UNL     1      11.013   4.772   3.558  0.00  0.00    -0.190 NA
ATOM      8  N   UNL     1      11.848   6.706   2.664  0.00  0.00    -0.056 NA
ATOM     16  C   UNL     1      10.805   5.777   4.371  0.00  0.00    +0.245 A 
ATOM     20  C   UNL     1      11.656   5.390   2.526  0.00  0.00    +0.202 A 
ENDROOT
BRANCH  20  23
ATOM      9  N   UNL     1      10.758   3.195  -1.743  0.00  0.00    -0.204 N 
ATOM     10  N   UNL     1      12.954   3.246  -0.881  0.00  0.00    -0.239 NA
ATOM     23  C   UNL     1      12.095   4.664   1.370  0.00  0.00    +0.027 A 
ATOM     25  C   UNL     1      11.184   4.295   0.388  0.00  0.00    +0.056 A 
ATOM     26  C   UNL     1      13.437   4.325   1.228  0.00  0.00    +0.031 A 
ATOM     27  C   UNL     1      11.659   3.594  -0.709  0.00  0.00    +0.138 A 
ATOM     28  C   UNL     1      13.811   3.621   0.094  0.00  0.00    +0.113 A 
ATOM     31  H   UNL     1      11.061   2.339  -2.225  0.00  0.00    +0.175 HD
BRANCH   9   1
ATOM      1  S   UNL     1      10.106   4.416  -2.768  0.00  0.00    +0.041 S 
ATOM      4  O   UNL     1       8.977   5.026  -2.092  0.00  0.00    -0.155 OA
ATOM      5  O   UNL     1      11.160   5.236  -3.331  0.00  0.00    -0.155 OA
ATOM     30  C   UNL     1       9.442   3.408  -4.074  0.00  0.00    +0.218 C 
ENDBRANCH   9   1
ENDBRANCH  20  23
BRANCH  16  11
ATOM      6  N   UNL     1      10.592   6.901   6.582  0.00  0.00    -0.287 NA
ATOM     11  C   UNL     1      10.125   5.793   5.724  0.00  0.00    +0.146 C 
ATOM     12  C   UNL     1       8.601   5.992   5.622  0.00  0.00    +0.030 C 
ATOM     13  C   UNL     1       8.299   7.197   6.501  0.00  0.00    +0.017 C 
ATOM     14  C   UNL     1       9.473   7.245   7.459  0.00  0.00    +0.085 C 
BRANCH   6  15
ATOM     15  C   UNL     1      11.798   6.577   7.333  0.00  0.00    +0.120 C 
BRANCH  15  17
ATOM     17  C   UNL     1      12.945   7.482   6.971  0.00  0.00    -0.033 A 
ATOM     18  C   UNL     1      12.758   8.864   6.930  0.00  0.00    +0.008 A 
ATOM     19  C   UNL     1      14.195   6.938   6.676  0.00  0.00    +0.008 A 
ATOM     21  C   UNL     1      13.822   9.701   6.594  0.00  0.00    +0.046 A 
ATOM     22  C   UNL     1      15.259   7.775   6.339  0.00  0.00    +0.046 A 
ATOM     24  C   UNL     1      15.072   9.157   6.299  0.00  0.00    +0.120 A 
BRANCH  24   3
ATOM      3  O   UNL     1      16.110   9.975   5.973  0.00  0.00    -0.495 OA
ATOM     29  C   UNL     1      17.360   9.352   5.681  0.00  0.00    +0.277 C 
ENDBRANCH  24   3
ENDBRANCH  15  17
ENDBRANCH   6  15
ENDBRANCH  16  11
TORSDOF 6
ENDMDL
MODEL 7
REMARK VINA RESULT:      -6.5     26.757     29.378
REMARK  Name = 45783597
REMARK  8 active torsions:
REMARK  status: ('A' for Active; 'I' for Inactive)
REMARK    1  A    between atoms: S_1  and  N_9
REMARK    2  A    between atoms: S_1  and  C_30
REMARK    3  A    between atoms: O_3  and  C_24
REMARK    4  A    between atoms: O_3  and  C_29
REMARK    5  A    between atoms: N_6  and  C_15
REMARK    6  A    between atoms: C_11  and  C_16
REMARK    7  A    between atoms: C_15  and  C_17
REMARK    8  A    between atoms: C_20  and  C_23
REMARK                            x       y       z     vdW  Elec       q    Type
REMARK                         _______ _______ _______ _____ _____    ______ ____
ROOT
ATOM      2  O   UNL     1      -2.044 -10.606  14.608  0.00  0.00    -0.336 OA
ATOM      7  N   UNL     1      -4.279 -10.694  14.473  0.00  0.00    -0.190 NA
ATOM      8  N   UNL     1      -2.517 -10.556  15.926  0.00  0.00    -0.056 NA
ATOM     16  C   UNL     1      -3.146 -10.686  13.816  0.00  0.00    +0.245 A 
ATOM     20  C   UNL     1      -3.842 -10.612  15.763  0.00  0.00    +0.202 A 
ENDROOT
BRANCH  20  23
ATOM      9  N   UNL     1      -7.990  -9.094  17.846  0.00  0.00    -0.204 N 
ATOM     10  N   UNL     1      -6.538 -10.536  19.020  0.00  0.00    -0.239 NA
ATOM     23  C   UNL     1      -4.757 -10.587  16.867  0.00  0.00    +0.027 A 
ATOM     25  C   UNL     1      -5.926  -9.839  16.788  0.00  0.00    +0.056 A 
ATOM     26  C   UNL     1      -4.477 -11.310  18.022  0.00  0.00    +0.031 A 
ATOM     27  C   UNL     1      -6.777  -9.847  17.883  0.00  0.00    +0.138 A 
ATOM     28  C   UNL     1      -5.393 -11.252  19.061  0.00  0.00    +0.113 A 
ATOM     31  H   UNL     1      -8.291  -8.781  18.778  0.00  0.00    +0.175 HD
BRANCH   9   1
ATOM      1  S   UNL     1      -9.258  -9.644  16.818  0.00  0.00    +0.041 S 
ATOM      4  O   UNL     1      -9.144  -8.959  15.544  0.00  0.00    -0.155 OA
ATOM      5  O   UNL     1      -9.377 -11.088  16.871  0.00  0.00    -0.155 OA
ATOM     30  C   UNL     1     -10.664  -8.949  17.655  0.00  0.00    +0.218 C 
ENDBRANCH   9   1
ENDBRANCH  20  23
BRANCH  16  11
ATOM      6  N   UNL     1      -3.873  -9.957  11.550  0.00  0.00    -0.287 NA
ATOM     11  C   UNL     1      -2.900 -10.755  12.324  0.00  0.00    +0.146 C 
ATOM     12  C   UNL     1      -1.524 -10.193  11.921  0.00  0.00    +0.030 C 
ATOM     13  C   UNL     1      -1.821  -9.127  10.875  0.00  0.00    +0.017 C 
ATOM     14  C   UNL     1      -3.181  -9.525  10.336  0.00  0.00    +0.085 C 
BRANCH   6  15
ATOM     15  C   UNL     1      -5.102 -10.681  11.253  0.00  0.00    +0.120 C 
BRANCH  15  17
ATOM     17  C   UNL     1      -5.833 -10.087  10.078  0.00  0.00    -0.033 A 
ATOM     18  C   UNL     1      -5.849 -10.757   8.854  0.00  0.00    +0.008 A 
ATOM     19  C   UNL     1      -6.493  -8.865  10.213  0.00  0.00    +0.008 A 
ATOM     21  C   UNL     1      -6.526 -10.206   7.767  0.00  0.00    +0.046 A 
ATOM     22  C   UNL     1      -7.170  -8.314   9.125  0.00  0.00    +0.046 A 
ATOM     24  C   UNL     1      -7.187  -8.984   7.902  0.00  0.00    +0.120 A 
BRANCH  24   3
ATOM      3  O   UNL     1      -7.848  -8.448   6.841  0.00  0.00    -0.495 OA
ATOM     29  C   UNL     1      -8.230  -7.076   6.940  0.00  0.00    +0.277 C 
ENDBRANCH  24   3
ENDBRANCH  15  17
ENDBRANCH   6  15
ENDBRANCH  16  11
TORSDOF 6
ENDMDL
MODEL 8
REMARK VINA RESULT:      -6.5      3.872      7.221
REMARK  Name = 45783597
REMARK  8 active torsions:
REMARK  status: ('A' for Active; 'I' for Inactive)
REMARK    1  A    between atoms: S_1  and  N_9
REMARK    2  A    between atoms: S_1  and  C_30
REMARK    3  A    between atoms: O_3  and  C_24
REMARK    4  A    between atoms: O_3  and  C_29
REMARK    5  A    between atoms: N_6  and  C_15
REMARK    6  A    between atoms: C_11  and  C_16
REMARK    7  A    between atoms: C_15  and  C_17
REMARK    8  A    between atoms: C_20  and  C_23
REMARK                            x       y       z     vdW  Elec       q    Type
REMARK                         _______ _______ _______ _____ _____    ______ ____
ROOT
ATOM      2  O   UNL     1      13.355   7.740  16.754  0.00  0.00    -0.336 OA
ATOM      7  N   UNL     1      13.334   9.809  17.613  0.00  0.00    -0.190 NA
ATOM      8  N   UNL     1      13.924   8.572  15.781  0.00  0.00    -0.056 NA
ATOM     16  C   UNL     1      13.035   8.547  17.799  0.00  0.00    +0.245 A 
ATOM     20  C   UNL     1      13.876   9.775  16.362  0.00  0.00    +0.202 A 
ENDROOT
BRANCH  20  23
ATOM      9  N   UNL     1      16.955  13.557  16.120  0.00  0.00    -0.204 N 
ATOM     10  N   UNL     1      15.297  13.277  14.465  0.00  0.00    -0.239 NA
ATOM     23  C   UNL     1      14.359  10.962  15.718  0.00  0.00    +0.027 A 
ATOM     25  C   UNL     1      15.429  11.664  16.260  0.00  0.00    +0.056 A 
ATOM     26  C   UNL     1      13.756  11.416  14.550  0.00  0.00    +0.031 A 
ATOM     27  C   UNL     1      15.857  12.805  15.600  0.00  0.00    +0.138 A 
ATOM     28  C   UNL     1      14.259  12.569  13.967  0.00  0.00    +0.113 A 
ATOM     31  H   UNL     1      16.900  14.556  15.882  0.00  0.00    +0.175 HD
BRANCH   9   1
ATOM      1  S   UNL     1      18.532  12.870  16.018  0.00  0.00    +0.041 S 
ATOM      4  O   UNL     1      18.987  12.571  17.363  0.00  0.00    -0.155 OA
ATOM      5  O   UNL     1      18.591  11.863  14.978  0.00  0.00    -0.155 OA
ATOM     30  C   UNL     1      19.455  14.285  15.463  0.00  0.00    +0.218 C 
ENDBRANCH   9   1
ENDBRANCH  20  23
BRANCH  16  11
ATOM      6  N   UNL     1      13.303   7.815  20.163  0.00  0.00    -0.287 NA
ATOM     11  C   UNL     1      12.397   7.878  18.998  0.00  0.00    +0.146 C 
ATOM     12  C   UNL     1      11.155   8.632  19.509  0.00  0.00    +0.030 C 
ATOM     13  C   UNL     1      11.429   8.898  20.982  0.00  0.00    +0.017 C 
ATOM     14  C   UNL     1      12.450   7.840  21.352  0.00  0.00    +0.085 C 
BRANCH   6  15
ATOM     15  C   UNL     1      14.183   6.654  20.144  0.00  0.00    +0.120 C 
BRANCH  15  17
ATOM     17  C   UNL     1      15.613   7.029  20.427  0.00  0.00    -0.033 A 
ATOM     18  C   UNL     1      15.900   8.136  21.228  0.00  0.00    +0.008 A 
ATOM     19  C   UNL     1      16.652   6.270  19.888  0.00  0.00    +0.008 A 
ATOM     21  C   UNL     1      17.225   8.482  21.490  0.00  0.00    +0.046 A 
ATOM     22  C   UNL     1      17.978   6.617  20.150  0.00  0.00    +0.046 A 
ATOM     24  C   UNL     1      18.264   7.723  20.951  0.00  0.00    +0.120 A 
BRANCH  24   3
ATOM      3  O   UNL     1      19.557   8.061  21.207  0.00  0.00    -0.495 OA
ATOM     29  C   UNL     1      20.554   7.085  20.908  0.00  0.00    +0.277 C 
ENDBRANCH  24   3
ENDBRANCH  15  17
ENDBRANCH   6  15
ENDBRANCH  16  11
TORSDOF 6
ENDMDL
MODEL 9
REMARK VINA RESULT:      -6.4     26.915     29.972
REMARK  Name = 45783597
REMARK  8 active torsions:
REMARK  status: ('A' for Active; 'I' for Inactive)
REMARK    1  A    between atoms: S_1  and  N_9
REMARK    2  A    between atoms: S_1  and  C_30
REMARK    3  A    between atoms: O_3  and  C_24
REMARK    4  A    between atoms: O_3  and  C_29
REMARK    5  A    between atoms: N_6  and  C_15
REMARK    6  A    between atoms: C_11  and  C_16
REMARK    7  A    between atoms: C_15  and  C_17
REMARK    8  A    between atoms: C_20  and  C_23
REMARK                            x       y       z     vdW  Elec       q    Type
REMARK                         _______ _______ _______ _____ _____    ______ ____
ROOT
ATOM      2  O   UNL     1      -4.681 -12.673  16.529  0.00  0.00    -0.336 OA
ATOM      7  N   UNL     1      -5.250 -10.602  15.893  0.00  0.00    -0.190 NA
ATOM      8  N   UNL     1      -5.991 -12.473  16.980  0.00  0.00    -0.056 NA
ATOM     16  C   UNL     1      -4.319 -11.523  15.901  0.00  0.00    +0.245 A 
ATOM     20  C   UNL     1      -6.256 -11.230  16.567  0.00  0.00    +0.202 A 
ENDROOT
BRANCH  20  23
ATOM      9  N   UNL     1     -10.873 -11.329  18.155  0.00  0.00    -0.204 N 
ATOM     10  N   UNL     1      -9.965  -9.331  17.289  0.00  0.00    -0.239 NA
ATOM     23  C   UNL     1      -7.514 -10.586  16.813  0.00  0.00    +0.027 A 
ATOM     25  C   UNL     1      -8.568 -11.302  17.368  0.00  0.00    +0.056 A 
ATOM     26  C   UNL     1      -7.683  -9.242  16.496  0.00  0.00    +0.031 A 
ATOM     27  C   UNL     1      -9.763 -10.633  17.585  0.00  0.00    +0.138 A 
ATOM     28  C   UNL     1      -8.918  -8.667  16.752  0.00  0.00    +0.113 A 
ATOM     31  H   UNL     1     -11.778 -10.944  17.855  0.00  0.00    +0.175 HD
BRANCH   9   1
ATOM      1  S   UNL     1     -10.786 -11.777  19.816  0.00  0.00    +0.041 S 
ATOM      4  O   UNL     1      -9.666 -11.080  20.420  0.00  0.00    -0.155 OA
ATOM      5  O   UNL     1     -12.098 -11.736  20.431  0.00  0.00    -0.155 OA
ATOM     30  C   UNL     1     -10.309 -13.482  19.657  0.00  0.00    +0.218 C 
ENDBRANCH   9   1
ENDBRANCH  20  23
BRANCH  16  11
ATOM      6  N   UNL     1      -2.830 -10.605  14.130  0.00  0.00    -0.287 NA
ATOM     11  C   UNL     1      -2.924 -11.484  15.313  0.00  0.00    +0.146 C 
ATOM     12  C   UNL     1      -1.880 -10.928  16.299  0.00  0.00    +0.030 C 
ATOM     13  C   UNL     1      -1.209  -9.779  15.560  0.00  0.00    +0.017 C 
ATOM     14  C   UNL     1      -1.458 -10.099  14.099  0.00  0.00    +0.085 C 
BRANCH   6  15
ATOM     15  C   UNL     1      -3.197 -11.273  12.888  0.00  0.00    +0.120 C 
BRANCH  15  17
ATOM     17  C   UNL     1      -3.900 -10.341  11.937  0.00  0.00    -0.033 A 
ATOM     18  C   UNL     1      -5.202  -9.920  12.207  0.00  0.00    +0.008 A 
ATOM     19  C   UNL     1      -3.248  -9.901  10.785  0.00  0.00    +0.008 A 
ATOM     21  C   UNL     1      -5.852  -9.056  11.325  0.00  0.00    +0.046 A 
ATOM     22  C   UNL     1      -3.899  -9.038   9.902  0.00  0.00    +0.046 A 
ATOM     24  C   UNL     1      -5.200  -8.616  10.172  0.00  0.00    +0.120 A 
BRANCH  24   3
ATOM      3  O   UNL     1      -5.835  -7.773   9.313  0.00  0.00    -0.495 OA
ATOM     29  C   UNL     1      -7.168  -8.116   8.934  0.00  0.00    +0.277 C 
ENDBRANCH  24   3
ENDBRANCH  15  17
ENDBRANCH   6  15
ENDBRANCH  16  11
TORSDOF 6
ENDMDL
MODEL 10
REMARK VINA RESULT:      -6.2      4.528      6.542
REMARK  Name = 45783597
REMARK  8 active torsions:
REMARK  status: ('A' for Active; 'I' for Inactive)
REMARK    1  A    between atoms: S_1  and  N_9
REMARK    2  A    between atoms: S_1  and  C_30
REMARK    3  A    between atoms: O_3  and  C_24
REMARK    4  A    between atoms: O_3  and  C_29
REMARK    5  A    between atoms: N_6  and  C_15
REMARK    6  A    between atoms: C_11  and  C_16
REMARK    7  A    between atoms: C_15  and  C_17
REMARK    8  A    between atoms: C_20  and  C_23
REMARK                            x       y       z     vdW  Elec       q    Type
REMARK                         _______ _______ _______ _____ _____    ______ ____
ROOT
ATOM      2  O   UNL     1      13.997   8.499  16.356  0.00  0.00    -0.336 OA
ATOM      7  N   UNL     1      14.827  10.480  16.991  0.00  0.00    -0.190 NA
ATOM      8  N   UNL     1      14.319   9.183  15.177  0.00  0.00    -0.056 NA
ATOM     16  C   UNL     1      14.327   9.333  17.377  0.00  0.00    +0.245 A 
ATOM     20  C   UNL     1      14.802  10.342  15.634  0.00  0.00    +0.202 A 
ENDROOT
BRANCH  20  23
ATOM      9  N   UNL     1      18.362  13.200  13.903  0.00  0.00    -0.204 N 
ATOM     10  N   UNL     1      16.167  13.412  13.066  0.00  0.00    -0.239 NA
ATOM     23  C   UNL     1      15.266  11.382  14.763  0.00  0.00    +0.027 A 
ATOM     25  C   UNL     1      16.601  11.765  14.780  0.00  0.00    +0.056 A 
ATOM     26  C   UNL     1      14.378  12.013  13.896  0.00  0.00    +0.031 A 
ATOM     27  C   UNL     1      16.999  12.776  13.919  0.00  0.00    +0.138 A 
ATOM     28  C   UNL     1      14.876  13.013  13.076  0.00  0.00    +0.113 A 
ATOM     31  H   UNL     1      18.467  14.186  13.630  0.00  0.00    +0.175 HD
BRANCH   9   1
ATOM      1  S   UNL     1      19.539  12.132  13.240  0.00  0.00    +0.041 S 
ATOM      4  O   UNL     1      19.788  11.073  14.200  0.00  0.00    -0.155 OA
ATOM      5  O   UNL     1      19.232  11.818  11.859  0.00  0.00    -0.155 OA
ATOM     30  C   UNL     1      20.968  13.189  13.256  0.00  0.00    +0.218 C 
ENDBRANCH   9   1
ENDBRANCH  20  23
BRANCH  16  11
ATOM      6  N   UNL     1      12.962   7.847  18.835  0.00  0.00    -0.287 NA
ATOM     11  C   UNL     1      14.074   8.818  18.778  0.00  0.00    +0.146 C 
ATOM     12  C   UNL     1      15.283   8.064  19.362  0.00  0.00    +0.030 C 
ATOM     13  C   UNL     1      14.740   6.702  19.773  0.00  0.00    +0.017 C 
ATOM     14  C   UNL     1      13.255   6.948  19.950  0.00  0.00    +0.085 C 
BRANCH   6  15
ATOM     15  C   UNL     1      11.655   8.478  18.967  0.00  0.00    +0.120 C 
BRANCH  15  17
ATOM     17  C   UNL     1      11.459   9.082  20.333  0.00  0.00    -0.033 A 
ATOM     18  C   UNL     1      11.999  10.334  20.626  0.00  0.00    +0.008 A 
ATOM     19  C   UNL     1      10.738   8.388  21.304  0.00  0.00    +0.008 A 
ATOM     21  C   UNL     1      11.816  10.893  21.892  0.00  0.00    +0.046 A 
ATOM     22  C   UNL     1      10.556   8.946  22.570  0.00  0.00    +0.046 A 
ATOM     24  C   UNL     1      11.095  10.198  22.863  0.00  0.00    +0.120 A 
BRANCH  24   3
ATOM      3  O   UNL     1      10.917  10.744  24.096  0.00  0.00    -0.495 OA
ATOM     29  C   UNL     1      11.929  11.635  24.564  0.00  0.00    +0.277 C 
ENDBRANCH  24   3
ENDBRANCH  15  17
ENDBRANCH   6  15
ENDBRANCH  16  11
TORSDOF 6
ENDMDL
