REMARK  Name = 75536975
REMARK  4 active torsions:
REMARK  status: ('A' for Active; 'I' for Inactive)
REMARK    1  A    between atoms: S_1  and  N_6
REMARK    2  A    between atoms: S_1  and  C_16
REMARK    3  A    between atoms: N_7  and  C_15
REMARK    4  A    between atoms: C_15  and  C_17
REMARK                            x       y       z     vdW  Elec       q    Type
REMARK                         _______ _______ _______ _____ _____    ______ ____
ROOT
ATOM      2  O   UNL     1       1.030  -2.611  -0.968  0.00  0.00    -0.252 OA
ATOM      5  N   UNL     1      -0.796  -1.492  -0.001  0.00  0.00    -0.278 N 
ATOM      6  N   UNL     1      -3.163  -0.008   0.114  0.00  0.00    -0.178 NA
ATOM      7  N   UNL     1       1.246  -1.149   0.869  0.00  0.00    -0.279 N 
ATOM      9  C   UNL     1      -1.031  -0.654   1.159  0.00  0.00    +0.111 C 
ATOM     10  C   UNL     1      -1.934   0.519   0.795  0.00  0.00    +0.133 C 
ATOM     11  C   UNL     1       0.372  -0.260   1.614  0.00  0.00    +0.133 C 
ATOM     12  C   UNL     1      -1.919  -1.944  -0.799  0.00  0.00    +0.127 C 
ATOM     13  C   UNL     1      -2.826  -0.765  -1.138  0.00  0.00    +0.128 C 
ATOM     14  C   UNL     1       0.552  -1.850  -0.137  0.00  0.00    +0.305 C 
ENDROOT
BRANCH   6   1
ATOM      1  S   UNL     1      -4.451   1.113  -0.036  0.00  0.00    +0.029 S 
ATOM      3  O   UNL     1      -4.543   1.879   1.187  0.00  0.00    -0.158 OA
ATOM      4  O   UNL     1      -5.596   0.430  -0.595  0.00  0.00    -0.158 OA
ATOM     16  C   UNL     1      -3.768   2.162  -1.292  0.00  0.00    +0.215 C 
ENDBRANCH   6   1
BRANCH   7  15
ATOM     15  C   UNL     1       2.676  -1.175   1.085  0.00  0.00    +0.146 C 
BRANCH  15  17
ATOM      8  N   UNL     1       4.481   2.080   0.413  0.00  0.00    -0.263 NA
ATOM     17  C   UNL     1       3.376  -0.070   0.348  0.00  0.00    -0.012 A 
ATOM     18  C   UNL     1       3.572  -0.137  -1.027  0.00  0.00    +0.008 A 
ATOM     19  C   UNL     1       3.845   1.050   1.016  0.00  0.00    +0.115 A 
ATOM     20  C   UNL     1       4.223   0.902  -1.683  0.00  0.00    +0.020 A 
ATOM     21  C   UNL     1       4.654   1.979  -0.924  0.00  0.00    +0.111 A 
ENDBRANCH  15  17
ENDBRANCH   7  15
TORSDOF 3
