MODEL 1
REMARK VINA RESULT:      -6.4      0.000      0.000
REMARK  Name = 25338708
REMARK  7 active torsions:
REMARK  status: ('A' for Active; 'I' for Inactive)
REMARK    1  A    between atoms: O_3  and  C_21
REMARK    2  A    between atoms: O_3  and  C_24
REMARK    3  A    between atoms: N_4  and  C_14
REMARK    4  A    between atoms: N_5  and  C_9
REMARK    5  A    between atoms: N_7  and  C_18
REMARK    6  A    between atoms: C_10  and  C_13
REMARK    7  A    between atoms: C_16  and  C_17
REMARK                            x       y       z     vdW  Elec       q    Type
REMARK                         _______ _______ _______ _____ _____    ______ ____
ROOT
ATOM      2  O   UNL     1     -16.105   3.153  22.898  0.00  0.00    -0.253 OA
ATOM      5  N   UNL     1     -16.181   3.156  25.209  0.00  0.00    -0.295 N 
ATOM      7  N   UNL     1     -14.909   4.743  24.145  0.00  0.00    -0.269 N 
ATOM     15  C   UNL     1     -15.758   3.646  23.969  0.00  0.00    +0.304 C 
ATOM     25  H   UNL     1     -15.792   3.571  26.050  0.00  0.00    +0.151 HD
ATOM     26  H   UNL     1     -14.723   5.027  25.104  0.00  0.00    +0.156 HD
ENDROOT
BRANCH   5   9
ATOM      4  N   UNL     1     -17.982   2.305  27.475  0.00  0.00    -0.293 NA
ATOM      9  C   UNL     1     -17.066   2.024  25.349  0.00  0.00    +0.090 C 
ATOM     10  C   UNL     1     -17.194   1.063  27.591  0.00  0.00    +0.147 C 
ATOM     11  C   UNL     1     -16.459   0.942  26.242  0.00  0.00    +0.052 C 
ATOM     12  C   UNL     1     -18.353   2.413  26.060  0.00  0.00    +0.107 C 
ATOM     14  C   UNL     1     -19.149   2.328  28.347  0.00  0.00    +0.105 C 
BRANCH  10  13
ATOM      1  O   UNL     1     -16.319  -0.016  29.602  0.00  0.00    -0.336 OA
ATOM      6  N   UNL     1     -15.353   1.948  29.122  0.00  0.00    -0.195 NA
ATOM      8  N   UNL     1     -15.363   0.204  30.603  0.00  0.00    -0.062 NA
ATOM     13  C   UNL     1     -16.247   1.057  28.772  0.00  0.00    +0.245 A 
ATOM     16  C   UNL     1     -14.837   1.380  30.251  0.00  0.00    +0.169 A 
ATOM     17  C   UNL     1     -13.772   2.021  31.032  0.00  0.00    +0.091 C 
ENDBRANCH  10  13
ENDBRANCH   5   9
BRANCH   7  18
ATOM     18  C   UNL     1     -14.274   5.518  23.146  0.00  0.00    +0.038 A 
ATOM     19  C   UNL     1     -14.821   6.742  22.761  0.00  0.00    +0.069 A 
ATOM     20  C   UNL     1     -13.101   5.059  22.548  0.00  0.00    +0.023 A 
ATOM     21  C   UNL     1     -14.194   7.508  21.777  0.00  0.00    +0.122 A 
ATOM     22  C   UNL     1     -12.474   5.824  21.565  0.00  0.00    +0.005 A 
ATOM     23  C   UNL     1     -13.020   7.048  21.180  0.00  0.00    +0.046 A 
BRANCH  21   3
ATOM      3  O   UNL     1     -14.728   8.702  21.402  0.00  0.00    -0.495 OA
ATOM     24  C   UNL     1     -14.110   9.372  20.305  0.00  0.00    +0.277 C 
ENDBRANCH  21   3
ENDBRANCH   7  18
TORSDOF 4
ENDMDL
MODEL 2
REMARK VINA RESULT:      -6.4     29.031     31.849
REMARK  Name = 25338708
REMARK  7 active torsions:
REMARK  status: ('A' for Active; 'I' for Inactive)
REMARK    1  A    between atoms: O_3  and  C_21
REMARK    2  A    between atoms: O_3  and  C_24
REMARK    3  A    between atoms: N_4  and  C_14
REMARK    4  A    between atoms: N_5  and  C_9
REMARK    5  A    between atoms: N_7  and  C_18
REMARK    6  A    between atoms: C_10  and  C_13
REMARK    7  A    between atoms: C_16  and  C_17
REMARK                            x       y       z     vdW  Elec       q    Type
REMARK                         _______ _______ _______ _____ _____    ______ ____
ROOT
ATOM      2  O   UNL     1      13.104   8.867  15.220  0.00  0.00    -0.253 OA
ATOM      5  N   UNL     1      12.595   9.624  17.344  0.00  0.00    -0.295 N 
ATOM      7  N   UNL     1      13.568  11.078  15.859  0.00  0.00    -0.269 N 
ATOM     15  C   UNL     1      13.096   9.776  16.047  0.00  0.00    +0.304 C 
ATOM     25  H   UNL     1      12.691  10.400  17.993  0.00  0.00    +0.151 HD
ATOM     26  H   UNL     1      13.486  11.712  16.650  0.00  0.00    +0.156 HD
ENDROOT
BRANCH   5   9
ATOM      4  N   UNL     1      12.741   8.311  20.057  0.00  0.00    -0.293 NA
ATOM      9  C   UNL     1      12.038   8.385  17.835  0.00  0.00    +0.090 C 
ATOM     10  C   UNL     1      13.432   7.168  19.430  0.00  0.00    +0.147 C 
ATOM     11  C   UNL     1      13.100   7.290  17.929  0.00  0.00    +0.052 C 
ATOM     12  C   UNL     1      11.530   8.534  19.261  0.00  0.00    +0.107 C 
ATOM     14  C   UNL     1      12.436   8.095  21.465  0.00  0.00    +0.105 C 
BRANCH  10  13
ATOM      1  O   UNL     1      15.471   8.287  20.178  0.00  0.00    -0.336 OA
ATOM      6  N   UNL     1      15.777   6.165  19.528  0.00  0.00    -0.195 NA
ATOM      8  N   UNL     1      16.838   8.022  20.341  0.00  0.00    -0.062 NA
ATOM     13  C   UNL     1      14.921   7.142  19.696  0.00  0.00    +0.245 A 
ATOM     16  C   UNL     1      16.939   6.753  19.936  0.00  0.00    +0.169 A 
ATOM     17  C   UNL     1      18.221   6.039  19.932  0.00  0.00    +0.091 C 
ENDBRANCH  10  13
ENDBRANCH   5   9
BRANCH   7  18
ATOM     18  C   UNL     1      14.147  11.630  14.692  0.00  0.00    +0.038 A 
ATOM     19  C   UNL     1      15.531  11.596  14.518  0.00  0.00    +0.069 A 
ATOM     20  C   UNL     1      13.335  12.208  13.717  0.00  0.00    +0.023 A 
ATOM     21  C   UNL     1      16.102  12.139  13.367  0.00  0.00    +0.122 A 
ATOM     22  C   UNL     1      13.906  12.751  12.566  0.00  0.00    +0.005 A 
ATOM     23  C   UNL     1      15.290  12.717  12.391  0.00  0.00    +0.046 A 
BRANCH  21   3
ATOM      3  O   UNL     1      17.452  12.105  13.197  0.00  0.00    -0.495 OA
ATOM     24  C   UNL     1      18.250  11.980  14.373  0.00  0.00    +0.277 C 
ENDBRANCH  21   3
ENDBRANCH   7  18
TORSDOF 4
ENDMDL
MODEL 3
REMARK VINA RESULT:      -6.3     31.561     34.408
REMARK  Name = 25338708
REMARK  7 active torsions:
REMARK  status: ('A' for Active; 'I' for Inactive)
REMARK    1  A    between atoms: O_3  and  C_21
REMARK    2  A    between atoms: O_3  and  C_24
REMARK    3  A    between atoms: N_4  and  C_14
REMARK    4  A    between atoms: N_5  and  C_9
REMARK    5  A    between atoms: N_7  and  C_18
REMARK    6  A    between atoms: C_10  and  C_13
REMARK    7  A    between atoms: C_16  and  C_17
REMARK                            x       y       z     vdW  Elec       q    Type
REMARK                         _______ _______ _______ _____ _____    ______ ____
ROOT
ATOM      2  O   UNL     1      16.686   8.789  21.345  0.00  0.00    -0.253 OA
ATOM      5  N   UNL     1      18.117   6.973  21.384  0.00  0.00    -0.295 N 
ATOM      7  N   UNL     1      16.104   6.769  20.301  0.00  0.00    -0.269 N 
ATOM     15  C   UNL     1      16.930   7.626  21.033  0.00  0.00    +0.304 C 
ATOM     25  H   UNL     1      18.213   5.989  21.153  0.00  0.00    +0.151 HD
ATOM     26  H   UNL     1      16.458   5.831  20.128  0.00  0.00    +0.156 HD
ENDROOT
BRANCH   5   9
ATOM      4  N   UNL     1      21.056   7.332  20.806  0.00  0.00    -0.293 NA
ATOM      9  C   UNL     1      19.168   7.605  22.146  0.00  0.00    +0.090 C 
ATOM     10  C   UNL     1      21.357   6.529  22.007  0.00  0.00    +0.147 C 
ATOM     11  C   UNL     1      20.060   6.573  22.838  0.00  0.00    +0.052 C 
ATOM     12  C   UNL     1      20.121   8.373  21.243  0.00  0.00    +0.107 C 
ATOM     14  C   UNL     1      22.245   7.896  20.179  0.00  0.00    +0.105 C 
BRANCH  10  13
ATOM      1  O   UNL     1      20.919   4.343  21.005  0.00  0.00    -0.336 OA
ATOM      6  N   UNL     1      22.923   4.513  21.991  0.00  0.00    -0.195 NA
ATOM      8  N   UNL     1      21.543   3.099  20.839  0.00  0.00    -0.062 NA
ATOM     13  C   UNL     1      21.799   5.116  21.693  0.00  0.00    +0.245 A 
ATOM     16  C   UNL     1      22.718   3.279  21.447  0.00  0.00    +0.169 A 
ATOM     17  C   UNL     1      23.724   2.213  21.524  0.00  0.00    +0.091 C 
ENDBRANCH  10  13
ENDBRANCH   5   9
BRANCH   7  18
ATOM     18  C   UNL     1      14.825   7.046  19.763  0.00  0.00    +0.038 A 
ATOM     19  C   UNL     1      13.678   6.672  20.463  0.00  0.00    +0.069 A 
ATOM     20  C   UNL     1      14.712   7.696  18.534  0.00  0.00    +0.023 A 
ATOM     21  C   UNL     1      12.417   6.947  19.934  0.00  0.00    +0.122 A 
ATOM     22  C   UNL     1      13.451   7.971  18.005  0.00  0.00    +0.005 A 
ATOM     23  C   UNL     1      12.304   7.596  18.705  0.00  0.00    +0.046 A 
BRANCH  21   3
ATOM      3  O   UNL     1      11.299   6.581  20.617  0.00  0.00    -0.495 OA
ATOM     24  C   UNL     1      10.808   7.495  21.595  0.00  0.00    +0.277 C 
ENDBRANCH  21   3
ENDBRANCH   7  18
TORSDOF 4
ENDMDL
MODEL 4
REMARK VINA RESULT:      -6.3     29.426     32.398
REMARK  Name = 25338708
REMARK  7 active torsions:
REMARK  status: ('A' for Active; 'I' for Inactive)
REMARK    1  A    between atoms: O_3  and  C_21
REMARK    2  A    between atoms: O_3  and  C_24
REMARK    3  A    between atoms: N_4  and  C_14
REMARK    4  A    between atoms: N_5  and  C_9
REMARK    5  A    between atoms: N_7  and  C_18
REMARK    6  A    between atoms: C_10  and  C_13
REMARK    7  A    between atoms: C_16  and  C_17
REMARK                            x       y       z     vdW  Elec       q    Type
REMARK                         _______ _______ _______ _____ _____    ______ ____
ROOT
ATOM      2  O   UNL     1      16.889   5.551  18.757  0.00  0.00    -0.253 OA
ATOM      5  N   UNL     1      15.555   7.244  19.594  0.00  0.00    -0.295 N 
ATOM      7  N   UNL     1      17.554   6.801  20.629  0.00  0.00    -0.269 N 
ATOM     15  C   UNL     1      16.700   6.440  19.584  0.00  0.00    +0.304 C 
ATOM     25  H   UNL     1      15.437   7.907  20.353  0.00  0.00    +0.151 HD
ATOM     26  H   UNL     1      17.247   7.564  21.227  0.00  0.00    +0.156 HD
ENDROOT
BRANCH   5   9
ATOM      4  N   UNL     1      13.405   9.170  18.715  0.00  0.00    -0.293 NA
ATOM      9  C   UNL     1      14.486   7.106  18.632  0.00  0.00    +0.090 C 
ATOM     10  C   UNL     1      12.394   8.221  19.220  0.00  0.00    +0.147 C 
ATOM     11  C   UNL     1      13.139   6.875  19.316  0.00  0.00    +0.052 C 
ATOM     12  C   UNL     1      14.286   8.389  17.840  0.00  0.00    +0.107 C 
ATOM     14  C   UNL     1      12.824  10.313  18.022  0.00  0.00    +0.105 C 
BRANCH  10  13
ATOM      1  O   UNL     1      10.991   7.724  21.159  0.00  0.00    -0.336 OA
ATOM      6  N   UNL     1      11.890   9.776  21.181  0.00  0.00    -0.195 NA
ATOM      8  N   UNL     1      10.543   8.334  22.338  0.00  0.00    -0.062 NA
ATOM     13  C   UNL     1      11.778   8.641  20.537  0.00  0.00    +0.245 A 
ATOM     16  C   UNL     1      11.114   9.540  22.279  0.00  0.00    +0.169 A 
ATOM     17  C   UNL     1      10.918  10.545  23.329  0.00  0.00    +0.091 C 
ENDBRANCH  10  13
ENDBRANCH   5   9
BRANCH   7  18
ATOM     18  C   UNL     1      18.808   6.235  20.960  0.00  0.00    +0.038 A 
ATOM     19  C   UNL     1      19.476   6.647  22.113  0.00  0.00    +0.069 A 
ATOM     20  C   UNL     1      19.374   5.263  20.135  0.00  0.00    +0.023 A 
ATOM     21  C   UNL     1      20.711   6.087  22.442  0.00  0.00    +0.122 A 
ATOM     22  C   UNL     1      20.609   4.703  20.464  0.00  0.00    +0.005 A 
ATOM     23  C   UNL     1      21.277   5.115  21.617  0.00  0.00    +0.046 A 
BRANCH  21   3
ATOM      3  O   UNL     1      21.363   6.490  23.566  0.00  0.00    -0.495 OA
ATOM     24  C   UNL     1      20.641   7.326  24.469  0.00  0.00    +0.277 C 
ENDBRANCH  21   3
ENDBRANCH   7  18
TORSDOF 4
ENDMDL
MODEL 5
REMARK VINA RESULT:      -6.2     31.944     34.730
REMARK  Name = 25338708
REMARK  7 active torsions:
REMARK  status: ('A' for Active; 'I' for Inactive)
REMARK    1  A    between atoms: O_3  and  C_21
REMARK    2  A    between atoms: O_3  and  C_24
REMARK    3  A    between atoms: N_4  and  C_14
REMARK    4  A    between atoms: N_5  and  C_9
REMARK    5  A    between atoms: N_7  and  C_18
REMARK    6  A    between atoms: C_10  and  C_13
REMARK    7  A    between atoms: C_16  and  C_17
REMARK                            x       y       z     vdW  Elec       q    Type
REMARK                         _______ _______ _______ _____ _____    ______ ____
ROOT
ATOM      2  O   UNL     1      17.003   8.936  21.070  0.00  0.00    -0.253 OA
ATOM      5  N   UNL     1      18.256   7.109  21.732  0.00  0.00    -0.295 N 
ATOM      7  N   UNL     1      16.283   6.748  20.617  0.00  0.00    -0.269 N 
ATOM     15  C   UNL     1      17.152   7.717  21.126  0.00  0.00    +0.304 C 
ATOM     25  H   UNL     1      18.272   6.096  21.803  0.00  0.00    +0.151 HD
ATOM     26  H   UNL     1      16.557   5.777  20.747  0.00  0.00    +0.156 HD
ENDROOT
BRANCH   5   9
ATOM      4  N   UNL     1      21.178   7.359  21.023  0.00  0.00    -0.293 NA
ATOM      9  C   UNL     1      19.327   7.855  22.350  0.00  0.00    +0.090 C 
ATOM     10  C   UNL     1      21.513   6.766  22.332  0.00  0.00    +0.147 C 
ATOM     11  C   UNL     1      20.239   6.951  23.179  0.00  0.00    +0.052 C 
ATOM     12  C   UNL     1      20.253   8.461  21.306  0.00  0.00    +0.107 C 
ATOM     14  C   UNL     1      22.349   7.808  20.280  0.00  0.00    +0.105 C 
BRANCH  10  13
ATOM      1  O   UNL     1      21.748   4.558  23.352  0.00  0.00    -0.336 OA
ATOM      6  N   UNL     1      22.504   4.679  21.247  0.00  0.00    -0.195 NA
ATOM      8  N   UNL     1      22.225   3.279  23.035  0.00  0.00    -0.062 NA
ATOM     13  C   UNL     1      21.950   5.320  22.246  0.00  0.00    +0.245 A 
ATOM     16  C   UNL     1      22.654   3.431  21.779  0.00  0.00    +0.169 A 
ATOM     17  C   UNL     1      23.251   2.325  21.022  0.00  0.00    +0.091 C 
ENDBRANCH  10  13
ENDBRANCH   5   9
BRANCH   7  18
ATOM     18  C   UNL     1      15.061   6.950  19.935  0.00  0.00    +0.038 A 
ATOM     19  C   UNL     1      15.065   7.248  18.572  0.00  0.00    +0.069 A 
ATOM     20  C   UNL     1      13.852   6.850  20.624  0.00  0.00    +0.023 A 
ATOM     21  C   UNL     1      13.859   7.445  17.898  0.00  0.00    +0.122 A 
ATOM     22  C   UNL     1      12.647   7.048  19.950  0.00  0.00    +0.005 A 
ATOM     23  C   UNL     1      12.651   7.345  18.587  0.00  0.00    +0.046 A 
BRANCH  21   3
ATOM      3  O   UNL     1      13.863   7.736  16.569  0.00  0.00    -0.495 OA
ATOM     24  C   UNL     1      13.758   9.111  16.205  0.00  0.00    +0.277 C 
ENDBRANCH  21   3
ENDBRANCH   7  18
TORSDOF 4
ENDMDL
MODEL 6
REMARK VINA RESULT:      -6.1     31.004     34.126
REMARK  Name = 25338708
REMARK  7 active torsions:
REMARK  status: ('A' for Active; 'I' for Inactive)
REMARK    1  A    between atoms: O_3  and  C_21
REMARK    2  A    between atoms: O_3  and  C_24
REMARK    3  A    between atoms: N_4  and  C_14
REMARK    4  A    between atoms: N_5  and  C_9
REMARK    5  A    between atoms: N_7  and  C_18
REMARK    6  A    between atoms: C_10  and  C_13
REMARK    7  A    between atoms: C_16  and  C_17
REMARK                            x       y       z     vdW  Elec       q    Type
REMARK                         _______ _______ _______ _____ _____    ______ ____
ROOT
ATOM      2  O   UNL     1      18.770   8.196  22.187  0.00  0.00    -0.253 OA
ATOM      5  N   UNL     1      16.999   7.782  20.759  0.00  0.00    -0.295 N 
ATOM      7  N   UNL     1      18.974   6.664  20.419  0.00  0.00    -0.269 N 
ATOM     15  C   UNL     1      18.308   7.599  21.217  0.00  0.00    +0.304 C 
ATOM     25  H   UNL     1      16.714   7.308  19.908  0.00  0.00    +0.151 HD
ATOM     26  H   UNL     1      18.444   6.260  19.651  0.00  0.00    +0.156 HD
ENDROOT
BRANCH   5   9
ATOM      4  N   UNL     1      13.989   7.721  20.956  0.00  0.00    -0.293 NA
ATOM      9  C   UNL     1      16.066   8.691  21.383  0.00  0.00    +0.090 C 
ATOM     10  C   UNL     1      13.947   8.991  20.206  0.00  0.00    +0.147 C 
ATOM     11  C   UNL     1      15.366   9.575  20.351  0.00  0.00    +0.052 C 
ATOM     12  C   UNL     1      14.930   7.938  22.060  0.00  0.00    +0.107 C 
ATOM     14  C   UNL     1      12.680   7.292  21.433  0.00  0.00    +0.105 C 
BRANCH  10  13
ATOM      1  O   UNL     1      14.099   7.793  18.081  0.00  0.00    -0.336 OA
ATOM      6  N   UNL     1      12.693   9.537  18.050  0.00  0.00    -0.195 NA
ATOM      8  N   UNL     1      13.569   7.844  16.785  0.00  0.00    -0.062 NA
ATOM     13  C   UNL     1      13.532   8.824  18.760  0.00  0.00    +0.245 A 
ATOM     16  C   UNL     1      12.750   8.897  16.846  0.00  0.00    +0.169 A 
ATOM     17  C   UNL     1      11.962   9.337  15.689  0.00  0.00    +0.091 C 
ENDBRANCH  10  13
ENDBRANCH   5   9
BRANCH   7  18
ATOM     18  C   UNL     1      20.305   6.203  20.550  0.00  0.00    +0.038 A 
ATOM     19  C   UNL     1      20.555   4.845  20.751  0.00  0.00    +0.069 A 
ATOM     20  C   UNL     1      21.366   7.105  20.477  0.00  0.00    +0.023 A 
ATOM     21  C   UNL     1      21.868   4.389  20.878  0.00  0.00    +0.122 A 
ATOM     22  C   UNL     1      22.679   6.649  20.604  0.00  0.00    +0.005 A 
ATOM     23  C   UNL     1      22.929   5.291  20.805  0.00  0.00    +0.046 A 
BRANCH  21   3
ATOM      3  O   UNL     1      22.112   3.065  21.074  0.00  0.00    -0.495 OA
ATOM     24  C   UNL     1      23.452   2.692  21.387  0.00  0.00    +0.277 C 
ENDBRANCH  21   3
ENDBRANCH   7  18
TORSDOF 4
ENDMDL
MODEL 7
REMARK VINA RESULT:      -6.1      2.085      2.816
REMARK  Name = 25338708
REMARK  7 active torsions:
REMARK  status: ('A' for Active; 'I' for Inactive)
REMARK    1  A    between atoms: O_3  and  C_21
REMARK    2  A    between atoms: O_3  and  C_24
REMARK    3  A    between atoms: N_4  and  C_14
REMARK    4  A    between atoms: N_5  and  C_9
REMARK    5  A    between atoms: N_7  and  C_18
REMARK    6  A    between atoms: C_10  and  C_13
REMARK    7  A    between atoms: C_16  and  C_17
REMARK                            x       y       z     vdW  Elec       q    Type
REMARK                         _______ _______ _______ _____ _____    ______ ____
ROOT
ATOM      2  O   UNL     1     -17.592   4.982  25.628  0.00  0.00    -0.253 OA
ATOM      5  N   UNL     1     -16.124   3.854  27.013  0.00  0.00    -0.295 N 
ATOM      7  N   UNL     1     -15.462   4.348  24.872  0.00  0.00    -0.269 N 
ATOM     15  C   UNL     1     -16.497   4.452  25.805  0.00  0.00    +0.304 C 
ATOM     25  H   UNL     1     -15.231   3.372  27.058  0.00  0.00    +0.151 HD
ATOM     26  H   UNL     1     -14.615   3.876  25.181  0.00  0.00    +0.156 HD
ENDROOT
BRANCH   5   9
ATOM      4  N   UNL     1     -15.512   3.499  29.946  0.00  0.00    -0.293 NA
ATOM      9  C   UNL     1     -16.989   3.803  28.168  0.00  0.00    +0.090 C 
ATOM     10  C   UNL     1     -16.302   2.253  29.927  0.00  0.00    +0.147 C 
ATOM     11  C   UNL     1     -17.180   2.370  28.666  0.00  0.00    +0.052 C 
ATOM     12  C   UNL     1     -16.372   4.529  29.354  0.00  0.00    +0.107 C 
ATOM     14  C   UNL     1     -15.058   3.870  31.280  0.00  0.00    +0.105 C 
BRANCH  10  13
ATOM      1  O   UNL     1     -16.055  -0.140  30.361  0.00  0.00    -0.336 OA
ATOM      6  N   UNL     1     -14.202   0.845  29.576  0.00  0.00    -0.195 NA
ATOM      8  N   UNL     1     -15.085  -1.147  30.276  0.00  0.00    -0.062 NA
ATOM     13  C   UNL     1     -15.454   1.000  29.931  0.00  0.00    +0.245 A 
ATOM     16  C   UNL     1     -14.022  -0.489  29.806  0.00  0.00    +0.169 A 
ATOM     17  C   UNL     1     -12.741  -1.159  29.554  0.00  0.00    +0.091 C 
ENDBRANCH  10  13
ENDBRANCH   5   9
BRANCH   7  18
ATOM     18  C   UNL     1     -15.442   4.824  23.540  0.00  0.00    +0.038 A 
ATOM     19  C   UNL     1     -14.288   5.418  23.029  0.00  0.00    +0.069 A 
ATOM     20  C   UNL     1     -16.576   4.699  22.738  0.00  0.00    +0.023 A 
ATOM     21  C   UNL     1     -14.267   5.886  21.715  0.00  0.00    +0.122 A 
ATOM     22  C   UNL     1     -16.556   5.167  21.424  0.00  0.00    +0.005 A 
ATOM     23  C   UNL     1     -15.401   5.760  20.913  0.00  0.00    +0.046 A 
BRANCH  21   3
ATOM      3  O   UNL     1     -13.141   6.466  21.217  0.00  0.00    -0.495 OA
ATOM     24  C   UNL     1     -13.105   7.891  21.185  0.00  0.00    +0.277 C 
ENDBRANCH  21   3
ENDBRANCH   7  18
TORSDOF 4
ENDMDL
MODEL 8
REMARK VINA RESULT:      -6.1     30.572     34.394
REMARK  Name = 25338708
REMARK  7 active torsions:
REMARK  status: ('A' for Active; 'I' for Inactive)
REMARK    1  A    between atoms: O_3  and  C_21
REMARK    2  A    between atoms: O_3  and  C_24
REMARK    3  A    between atoms: N_4  and  C_14
REMARK    4  A    between atoms: N_5  and  C_9
REMARK    5  A    between atoms: N_7  and  C_18
REMARK    6  A    between atoms: C_10  and  C_13
REMARK    7  A    between atoms: C_16  and  C_17
REMARK                            x       y       z     vdW  Elec       q    Type
REMARK                         _______ _______ _______ _____ _____    ______ ____
ROOT
ATOM      2  O   UNL     1      10.537   6.979   1.444  0.00  0.00    -0.253 OA
ATOM      5  N   UNL     1       9.956   5.985   3.449  0.00  0.00    -0.295 N 
ATOM      7  N   UNL     1      11.087   4.741   1.887  0.00  0.00    -0.269 N 
ATOM     15  C   UNL     1      10.535   5.992   2.175  0.00  0.00    +0.304 C 
ATOM     25  H   UNL     1       9.930   5.110   3.963  0.00  0.00    +0.151 HD
ATOM     26  H   UNL     1      11.001   4.027   2.607  0.00  0.00    +0.156 HD
ENDROOT
BRANCH   5   9
ATOM      4  N   UNL     1      10.597   7.617   5.904  0.00  0.00    -0.293 NA
ATOM      9  C   UNL     1       9.304   7.138   4.024  0.00  0.00    +0.090 C 
ATOM     10  C   UNL     1       9.289   7.226   6.465  0.00  0.00    +0.147 C 
ATOM     11  C   UNL     1       8.468   6.760   5.247  0.00  0.00    +0.052 C 
ATOM     12  C   UNL     1      10.318   8.136   4.561  0.00  0.00    +0.107 C 
ATOM     14  C   UNL     1      11.308   8.587   6.727  0.00  0.00    +0.105 C 
BRANCH  10  13
ATOM      1  O   UNL     1      10.039   5.021   7.208  0.00  0.00    -0.336 OA
ATOM      6  N   UNL     1       8.927   6.184   8.767  0.00  0.00    -0.195 NA
ATOM      8  N   UNL     1       9.998   4.206   8.347  0.00  0.00    -0.062 NA
ATOM     13  C   UNL     1       9.387   6.166   7.541  0.00  0.00    +0.245 A 
ATOM     16  C   UNL     1       9.327   4.961   9.222  0.00  0.00    +0.169 A 
ATOM     17  C   UNL     1       9.038   4.500  10.584  0.00  0.00    +0.091 C 
ENDBRANCH  10  13
ENDBRANCH   5   9
BRANCH   7  18
ATOM     18  C   UNL     1      11.762   4.340   0.710  0.00  0.00    +0.038 A 
ATOM     19  C   UNL     1      11.057   4.208  -0.486  0.00  0.00    +0.069 A 
ATOM     20  C   UNL     1      13.131   4.080   0.745  0.00  0.00    +0.023 A 
ATOM     21  C   UNL     1      11.722   3.814  -1.648  0.00  0.00    +0.122 A 
ATOM     22  C   UNL     1      13.796   3.686  -0.416  0.00  0.00    +0.005 A 
ATOM     23  C   UNL     1      13.091   3.554  -1.612  0.00  0.00    +0.046 A 
BRANCH  21   3
ATOM      3  O   UNL     1      11.033   3.684  -2.815  0.00  0.00    -0.495 OA
ATOM     24  C   UNL     1      10.450   2.411  -3.085  0.00  0.00    +0.277 C 
ENDBRANCH  21   3
ENDBRANCH   7  18
TORSDOF 4
ENDMDL
MODEL 9
REMARK VINA RESULT:      -6.1     30.904     34.715
REMARK  Name = 25338708
REMARK  7 active torsions:
REMARK  status: ('A' for Active; 'I' for Inactive)
REMARK    1  A    between atoms: O_3  and  C_21
REMARK    2  A    between atoms: O_3  and  C_24
REMARK    3  A    between atoms: N_4  and  C_14
REMARK    4  A    between atoms: N_5  and  C_9
REMARK    5  A    between atoms: N_7  and  C_18
REMARK    6  A    between atoms: C_10  and  C_13
REMARK    7  A    between atoms: C_16  and  C_17
REMARK                            x       y       z     vdW  Elec       q    Type
REMARK                         _______ _______ _______ _____ _____    ______ ____
ROOT
ATOM      2  O   UNL     1      10.458   6.912   1.240  0.00  0.00    -0.253 OA
ATOM      5  N   UNL     1      10.049   5.981   3.317  0.00  0.00    -0.295 N 
ATOM      7  N   UNL     1      11.214   4.753   1.768  0.00  0.00    -0.269 N 
ATOM     15  C   UNL     1      10.571   5.968   2.020  0.00  0.00    +0.304 C 
ATOM     25  H   UNL     1      10.120   5.136   3.875  0.00  0.00    +0.151 HD
ATOM     26  H   UNL     1      11.219   4.074   2.526  0.00  0.00    +0.156 HD
ENDROOT
BRANCH   5   9
ATOM      4  N   UNL     1      10.554   7.671   5.765  0.00  0.00    -0.293 NA
ATOM      9  C   UNL     1       9.327   7.106   3.865  0.00  0.00    +0.090 C 
ATOM     10  C   UNL     1       9.257   7.220   6.304  0.00  0.00    +0.147 C 
ATOM     11  C   UNL     1       8.486   6.699   5.075  0.00  0.00    +0.052 C 
ATOM     12  C   UNL     1      10.278   8.161   4.411  0.00  0.00    +0.107 C 
ATOM     14  C   UNL     1      11.198   8.686   6.590  0.00  0.00    +0.105 C 
BRANCH  10  13
ATOM      1  O   UNL     1      10.037   5.033   7.066  0.00  0.00    -0.336 OA
ATOM      6  N   UNL     1       8.953   6.214   8.630  0.00  0.00    -0.195 NA
ATOM      8  N   UNL     1      10.027   4.237   8.219  0.00  0.00    -0.062 NA
ATOM     13  C   UNL     1       9.385   6.179   7.395  0.00  0.00    +0.245 A 
ATOM     16  C   UNL     1       9.371   5.001   9.096  0.00  0.00    +0.169 A 
ATOM     17  C   UNL     1       9.115   4.561  10.472  0.00  0.00    +0.091 C 
ENDBRANCH  10  13
ENDBRANCH   5   9
BRANCH   7  18
ATOM     18  C   UNL     1      11.869   4.347   0.582  0.00  0.00    +0.038 A 
ATOM     19  C   UNL     1      13.263   4.346   0.520  0.00  0.00    +0.069 A 
ATOM     20  C   UNL     1      11.121   3.944  -0.525  0.00  0.00    +0.023 A 
ATOM     21  C   UNL     1      13.909   3.944  -0.649  0.00  0.00    +0.122 A 
ATOM     22  C   UNL     1      11.768   3.542  -1.694  0.00  0.00    +0.005 A 
ATOM     23  C   UNL     1      13.161   3.541  -1.755  0.00  0.00    +0.046 A 
BRANCH  21   3
ATOM      3  O   UNL     1      15.268   3.944  -0.709  0.00  0.00    -0.495 OA
ATOM     24  C   UNL     1      15.869   4.643  -1.797  0.00  0.00    +0.277 C 
ENDBRANCH  21   3
ENDBRANCH   7  18
TORSDOF 4
ENDMDL
MODEL 10
REMARK VINA RESULT:      -6.1     31.826     34.334
REMARK  Name = 25338708
REMARK  7 active torsions:
REMARK  status: ('A' for Active; 'I' for Inactive)
REMARK    1  A    between atoms: O_3  and  C_21
REMARK    2  A    between atoms: O_3  and  C_24
REMARK    3  A    between atoms: N_4  and  C_14
REMARK    4  A    between atoms: N_5  and  C_9
REMARK    5  A    between atoms: N_7  and  C_18
REMARK    6  A    between atoms: C_10  and  C_13
REMARK    7  A    between atoms: C_16  and  C_17
REMARK                            x       y       z     vdW  Elec       q    Type
REMARK                         _______ _______ _______ _____ _____    ______ ____
ROOT
ATOM      2  O   UNL     1      18.151   8.555  21.013  0.00  0.00    -0.253 OA
ATOM      5  N   UNL     1      19.003   7.001  22.497  0.00  0.00    -0.295 N 
ATOM      7  N   UNL     1      16.804   6.831  21.863  0.00  0.00    -0.269 N 
ATOM     15  C   UNL     1      17.987   7.560  21.716  0.00  0.00    +0.304 C 
ATOM     25  H   UNL     1      18.771   6.224  23.108  0.00  0.00    +0.151 HD
ATOM     26  H   UNL     1      16.839   6.028  22.487  0.00  0.00    +0.156 HD
ENDROOT
BRANCH   5   9
ATOM      4  N   UNL     1      21.606   5.776  23.408  0.00  0.00    -0.293 NA
ATOM      9  C   UNL     1      20.342   7.539  22.552  0.00  0.00    +0.090 C 
ATOM     10  C   UNL     1      21.689   6.812  24.457  0.00  0.00    +0.147 C 
ATOM     11  C   UNL     1      20.736   7.925  23.978  0.00  0.00    +0.052 C 
ATOM     12  C   UNL     1      21.375   6.495  22.151  0.00  0.00    +0.107 C 
ATOM     14  C   UNL     1      22.791   4.931  23.342  0.00  0.00    +0.105 C 
BRANCH  10  13
ATOM      1  O   UNL     1      20.022   6.304  26.171  0.00  0.00    -0.336 OA
ATOM      6  N   UNL     1      22.129   5.850  26.780  0.00  0.00    -0.195 NA
ATOM      8  N   UNL     1      19.951   5.797  27.475  0.00  0.00    -0.062 NA
ATOM     13  C   UNL     1      21.339   6.301  25.838  0.00  0.00    +0.245 A 
ATOM     16  C   UNL     1      21.232   5.553  27.764  0.00  0.00    +0.169 A 
ATOM     17  C   UNL     1      21.645   5.002  29.060  0.00  0.00    +0.091 C 
ENDBRANCH  10  13
ENDBRANCH   5   9
BRANCH   7  18
ATOM     18  C   UNL     1      15.555   7.069  21.245  0.00  0.00    +0.038 A 
ATOM     19  C   UNL     1      14.522   7.666  21.968  0.00  0.00    +0.069 A 
ATOM     20  C   UNL     1      15.356   6.708  19.913  0.00  0.00    +0.023 A 
ATOM     21  C   UNL     1      13.290   7.903  21.358  0.00  0.00    +0.122 A 
ATOM     22  C   UNL     1      14.124   6.945  19.303  0.00  0.00    +0.005 A 
ATOM     23  C   UNL     1      13.091   7.542  20.025  0.00  0.00    +0.046 A 
BRANCH  21   3
ATOM      3  O   UNL     1      12.282   8.485  22.064  0.00  0.00    -0.495 OA
ATOM     24  C   UNL     1      11.013   7.835  22.038  0.00  0.00    +0.277 C 
ENDBRANCH  21   3
ENDBRANCH   7  18
TORSDOF 4
ENDMDL
