MODEL 1
REMARK VINA RESULT:      -6.5      0.000      0.000
REMARK  Name = 75537067
REMARK  3 active torsions:
REMARK  status: ('A' for Active; 'I' for Inactive)
REMARK    1  A    between atoms: N_3  and  C_9
REMARK    2  A    between atoms: N_5  and  C_18
REMARK    3  A    between atoms: C_18  and  C_19
REMARK                            x       y       z     vdW  Elec       q    Type
REMARK                         _______ _______ _______ _____ _____    ______ ____
ROOT
ATOM      2  O   UNL     1      15.946   9.707  20.457  0.00  0.00    -0.252 OA
ATOM      3  N   UNL     1      19.679   6.324  21.069  0.00  0.00    -0.296 NA
ATOM      4  N   UNL     1      17.322   7.833  20.793  0.00  0.00    -0.278 N 
ATOM      5  N   UNL     1      15.552   7.622  19.426  0.00  0.00    -0.279 N 
ATOM      7  C   UNL     1      17.302   6.428  20.438  0.00  0.00    +0.109 C 
ATOM      8  C   UNL     1      18.698   5.965  20.024  0.00  0.00    +0.108 C 
ATOM     10  C   UNL     1      19.712   7.784  21.281  0.00  0.00    +0.104 C 
ATOM     11  C   UNL     1      16.245   6.347  19.339  0.00  0.00    +0.133 C 
ATOM     12  C   UNL     1      18.341   8.322  21.698  0.00  0.00    +0.125 C 
ATOM     15  C   UNL     1      16.235   8.534  20.254  0.00  0.00    +0.305 C 
ENDROOT
BRANCH   3   9
ATOM      1  O   UNL     1      23.732   5.306  21.475  0.00  0.00    -0.380 OA
ATOM      9  C   UNL     1      21.007   5.831  20.710  0.00  0.00    +0.061 C 
ATOM     13  C   UNL     1      21.400   4.627  21.573  0.00  0.00    +0.047 C 
ATOM     14  C   UNL     1      22.047   6.945  20.858  0.00  0.00    +0.047 C 
ATOM     16  C   UNL     1      22.837   4.211  21.278  0.00  0.00    +0.161 C 
ATOM     17  C   UNL     1      23.448   6.400  20.603  0.00  0.00    +0.161 C 
ENDBRANCH   3   9
BRANCH   5  18
ATOM     18  C   UNL     1      14.391   7.918  18.618  0.00  0.00    +0.146 C 
BRANCH  18  19
ATOM      6  N   UNL     1      11.415   6.735  20.630  0.00  0.00    -0.263 NA
ATOM     19  C   UNL     1      13.131   7.948  19.433  0.00  0.00    -0.012 A 
ATOM     20  C   UNL     1      12.510   9.152  19.748  0.00  0.00    +0.008 A 
ATOM     21  C   UNL     1      12.549   6.778  19.893  0.00  0.00    +0.115 A 
ATOM     22  C   UNL     1      11.342   9.148  20.504  0.00  0.00    +0.020 A 
ATOM     23  C   UNL     1      10.840   7.924  20.917  0.00  0.00    +0.111 A 
ENDBRANCH  18  19
ENDBRANCH   5  18
TORSDOF 3
ENDMDL
MODEL 2
REMARK VINA RESULT:      -6.4      4.021      8.064
REMARK  Name = 75537067
REMARK  3 active torsions:
REMARK  status: ('A' for Active; 'I' for Inactive)
REMARK    1  A    between atoms: N_3  and  C_9
REMARK    2  A    between atoms: N_5  and  C_18
REMARK    3  A    between atoms: C_18  and  C_19
REMARK                            x       y       z     vdW  Elec       q    Type
REMARK                         _______ _______ _______ _____ _____    ______ ____
ROOT
ATOM      2  O   UNL     1      12.210   6.782  18.624  0.00  0.00    -0.252 OA
ATOM      3  N   UNL     1      13.659  10.851  15.960  0.00  0.00    -0.296 NA
ATOM      4  N   UNL     1      12.944   8.862  17.814  0.00  0.00    -0.278 N 
ATOM      5  N   UNL     1      14.057   7.936  19.531  0.00  0.00    -0.279 N 
ATOM      7  C   UNL     1      13.916   9.864  18.200  0.00  0.00    +0.109 C 
ATOM      8  C   UNL     1      14.642  10.402  16.968  0.00  0.00    +0.108 C 
ATOM     10  C   UNL     1      12.787   9.736  15.541  0.00  0.00    +0.104 C 
ATOM     11  C   UNL     1      14.807   9.137  19.204  0.00  0.00    +0.133 C 
ATOM     12  C   UNL     1      12.026   9.143  16.730  0.00  0.00    +0.125 C 
ATOM     15  C   UNL     1      12.971   7.741  18.655  0.00  0.00    +0.305 C 
ENDROOT
BRANCH   3   9
ATOM      1  O   UNL     1      16.196  13.354  13.739  0.00  0.00    -0.380 OA
ATOM      9  C   UNL     1      14.344  11.424  14.802  0.00  0.00    +0.061 C 
ATOM     13  C   UNL     1      15.862  11.257  14.921  0.00  0.00    +0.047 C 
ATOM     14  C   UNL     1      13.989  12.906  14.653  0.00  0.00    +0.047 C 
ATOM     16  C   UNL     1      16.565  11.976  13.775  0.00  0.00    +0.161 C 
ATOM     17  C   UNL     1      14.796  13.533  13.522  0.00  0.00    +0.161 C 
ENDBRANCH   3   9
BRANCH   5  18
ATOM     18  C   UNL     1      14.503   7.006  20.544  0.00  0.00    +0.146 C 
BRANCH  18  19
ATOM      6  N   UNL     1      18.178   6.511  21.289  0.00  0.00    -0.263 NA
ATOM     19  C   UNL     1      15.946   6.631  20.367  0.00  0.00    -0.012 A 
ATOM     20  C   UNL     1      16.400   6.076  19.175  0.00  0.00    +0.008 A 
ATOM     21  C   UNL     1      16.866   6.826  21.384  0.00  0.00    +0.115 A 
ATOM     22  C   UNL     1      17.743   5.740  19.040  0.00  0.00    +0.020 A 
ATOM     23  C   UNL     1      18.583   5.975  20.116  0.00  0.00    +0.111 A 
ENDBRANCH  18  19
ENDBRANCH   5  18
TORSDOF 3
ENDMDL
MODEL 3
REMARK VINA RESULT:      -6.1      4.199      6.415
REMARK  Name = 75537067
REMARK  3 active torsions:
REMARK  status: ('A' for Active; 'I' for Inactive)
REMARK    1  A    between atoms: N_3  and  C_9
REMARK    2  A    between atoms: N_5  and  C_18
REMARK    3  A    between atoms: C_18  and  C_19
REMARK                            x       y       z     vdW  Elec       q    Type
REMARK                         _______ _______ _______ _____ _____    ______ ____
ROOT
ATOM      2  O   UNL     1      10.697  10.217  23.236  0.00  0.00    -0.252 OA
ATOM      3  N   UNL     1      14.405   8.403  20.285  0.00  0.00    -0.296 NA
ATOM      4  N   UNL     1      12.186   9.603  21.526  0.00  0.00    -0.278 N 
ATOM      5  N   UNL     1      11.480  11.734  21.609  0.00  0.00    -0.279 N 
ATOM      7  C   UNL     1      12.745  10.218  20.339  0.00  0.00    +0.109 C 
ATOM      8  C   UNL     1      14.226   9.867  20.205  0.00  0.00    +0.108 C 
ATOM     10  C   UNL     1      13.913   7.881  21.576  0.00  0.00    +0.104 C 
ATOM     11  C   UNL     1      12.451  11.705  20.529  0.00  0.00    +0.133 C 
ATOM     12  C   UNL     1      12.430   8.199  21.780  0.00  0.00    +0.125 C 
ATOM     15  C   UNL     1      11.367  10.483  22.247  0.00  0.00    +0.305 C 
ENDROOT
BRANCH   3   9
ATOM      1  O   UNL     1      18.060   6.403  20.816  0.00  0.00    -0.380 OA
ATOM      9  C   UNL     1      15.812   8.052  20.097  0.00  0.00    +0.061 C 
ATOM     13  C   UNL     1      15.959   6.607  19.610  0.00  0.00    +0.047 C 
ATOM     14  C   UNL     1      16.589   8.248  21.402  0.00  0.00    +0.047 C 
ATOM     16  C   UNL     1      17.432   6.217  19.548  0.00  0.00    +0.161 C 
ATOM     17  C   UNL     1      18.026   7.767  21.240  0.00  0.00    +0.161 C 
ENDBRANCH   3   9
BRANCH   5  18
ATOM     18  C   UNL     1      10.849  12.962  22.038  0.00  0.00    +0.146 C 
BRANCH  18  19
ATOM      6  N   UNL     1      12.979  13.915  25.014  0.00  0.00    -0.263 NA
ATOM     19  C   UNL     1      11.238  13.336  23.438  0.00  0.00    -0.012 A 
ATOM     20  C   UNL     1      10.282  13.452  24.441  0.00  0.00    +0.008 A 
ATOM     21  C   UNL     1      12.562  13.576  23.773  0.00  0.00    +0.115 A 
ATOM     22  C   UNL     1      10.673  13.799  25.730  0.00  0.00    +0.020 A 
ATOM     23  C   UNL     1      12.022  14.018  25.962  0.00  0.00    +0.111 A 
ENDBRANCH  18  19
ENDBRANCH   5  18
TORSDOF 3
ENDMDL
MODEL 4
REMARK VINA RESULT:      -6.0      3.746      5.853
REMARK  Name = 75537067
REMARK  3 active torsions:
REMARK  status: ('A' for Active; 'I' for Inactive)
REMARK    1  A    between atoms: N_3  and  C_9
REMARK    2  A    between atoms: N_5  and  C_18
REMARK    3  A    between atoms: C_18  and  C_19
REMARK                            x       y       z     vdW  Elec       q    Type
REMARK                         _______ _______ _______ _____ _____    ______ ____
ROOT
ATOM      2  O   UNL     1      10.181   8.584  21.973  0.00  0.00    -0.252 OA
ATOM      3  N   UNL     1      14.980   7.666  20.601  0.00  0.00    -0.296 NA
ATOM      4  N   UNL     1      12.432   8.627  21.299  0.00  0.00    -0.278 N 
ATOM      5  N   UNL     1      11.754  10.111  22.843  0.00  0.00    -0.279 N 
ATOM      7  C   UNL     1      13.585   9.474  21.520  0.00  0.00    +0.109 C 
ATOM      8  C   UNL     1      14.839   8.623  21.718  0.00  0.00    +0.108 C 
ATOM     10  C   UNL     1      13.810   6.769  20.525  0.00  0.00    +0.104 C 
ATOM     11  C   UNL     1      13.187  10.322  22.725  0.00  0.00    +0.133 C 
ATOM     12  C   UNL     1      12.513   7.556  20.328  0.00  0.00    +0.125 C 
ATOM     15  C   UNL     1      11.312   9.051  22.028  0.00  0.00    +0.305 C 
ENDROOT
BRANCH   3   9
ATOM      1  O   UNL     1      18.987   6.519  20.093  0.00  0.00    -0.380 OA
ATOM      9  C   UNL     1      16.209   6.889  20.750  0.00  0.00    +0.061 C 
ATOM     13  C   UNL     1      17.322   7.732  21.382  0.00  0.00    +0.047 C 
ATOM     14  C   UNL     1      16.666   6.350  19.391  0.00  0.00    +0.047 C 
ATOM     16  C   UNL     1      18.630   6.949  21.405  0.00  0.00    +0.161 C 
ATOM     17  C   UNL     1      18.011   5.644  19.526  0.00  0.00    +0.161 C 
ENDBRANCH   3   9
BRANCH   5  18
ATOM     18  C   UNL     1      10.951  10.827  23.809  0.00  0.00    +0.146 C 
BRANCH  18  19
ATOM      6  N   UNL     1      10.664  13.939  21.679  0.00  0.00    -0.263 NA
ATOM     19  C   UNL     1      10.749  12.263  23.420  0.00  0.00    -0.012 A 
ATOM     20  C   UNL     1      10.474  13.233  24.378  0.00  0.00    +0.008 A 
ATOM     21  C   UNL     1      10.834  12.664  22.096  0.00  0.00    +0.115 A 
ATOM     22  C   UNL     1      10.293  14.555  23.987  0.00  0.00    +0.020 A 
ATOM     23  C   UNL     1      10.397  14.854  22.638  0.00  0.00    +0.111 A 
ENDBRANCH  18  19
ENDBRANCH   5  18
TORSDOF 3
ENDMDL
MODEL 5
REMARK VINA RESULT:      -5.9      1.974      8.304
REMARK  Name = 75537067
REMARK  3 active torsions:
REMARK  status: ('A' for Active; 'I' for Inactive)
REMARK    1  A    between atoms: N_3  and  C_9
REMARK    2  A    between atoms: N_5  and  C_18
REMARK    3  A    between atoms: C_18  and  C_19
REMARK                            x       y       z     vdW  Elec       q    Type
REMARK                         _______ _______ _______ _____ _____    ______ ____
ROOT
ATOM      2  O   UNL     1      18.887   9.461  22.280  0.00  0.00    -0.252 OA
ATOM      3  N   UNL     1      14.743   7.889  19.808  0.00  0.00    -0.296 NA
ATOM      4  N   UNL     1      17.268   8.451  20.909  0.00  0.00    -0.278 N 
ATOM      5  N   UNL     1      18.814   7.138  21.875  0.00  0.00    -0.279 N 
ATOM      7  C   UNL     1      17.018   7.133  20.363  0.00  0.00    +0.109 C 
ATOM      8  C   UNL     1      15.528   6.803  20.432  0.00  0.00    +0.108 C 
ATOM     10  C   UNL     1      14.973   9.172  20.502  0.00  0.00    +0.104 C 
ATOM     11  C   UNL     1      17.917   6.220  21.195  0.00  0.00    +0.133 C 
ATOM     12  C   UNL     1      16.452   9.565  20.475  0.00  0.00    +0.125 C 
ATOM     15  C   UNL     1      18.388   8.476  21.751  0.00  0.00    +0.305 C 
ENDROOT
BRANCH   3   9
ATOM      1  O   UNL     1      10.703   7.932  20.953  0.00  0.00    -0.380 OA
ATOM      9  C   UNL     1      13.320   7.555  19.814  0.00  0.00    +0.061 C 
ATOM     13  C   UNL     1      12.463   8.789  19.513  0.00  0.00    +0.047 C 
ATOM     14  C   UNL     1      12.918   6.955  21.164  0.00  0.00    +0.047 C 
ATOM     16  C   UNL     1      10.982   8.453  19.654  0.00  0.00    +0.161 C 
ATOM     17  C   UNL     1      11.413   6.721  21.214  0.00  0.00    +0.161 C 
ENDBRANCH   3   9
BRANCH   5  18
ATOM     18  C   UNL     1      19.910   6.672  22.694  0.00  0.00    +0.146 C 
BRANCH  18  19
ATOM      6  N   UNL     1      22.672   6.362  20.130  0.00  0.00    -0.263 NA
ATOM     19  C   UNL     1      21.017   6.082  21.871  0.00  0.00    -0.012 A 
ATOM     20  C   UNL     1      21.420   4.763  22.051  0.00  0.00    +0.008 A 
ATOM     21  C   UNL     1      21.669   6.833  20.905  0.00  0.00    +0.115 A 
ATOM     22  C   UNL     1      22.448   4.243  21.272  0.00  0.00    +0.020 A 
ATOM     23  C   UNL     1      23.037   5.077  20.334  0.00  0.00    +0.111 A 
ENDBRANCH  18  19
ENDBRANCH   5  18
TORSDOF 3
ENDMDL
MODEL 6
REMARK VINA RESULT:      -5.9     28.211     30.122
REMARK  Name = 75537067
REMARK  3 active torsions:
REMARK  status: ('A' for Active; 'I' for Inactive)
REMARK    1  A    between atoms: N_3  and  C_9
REMARK    2  A    between atoms: N_5  and  C_18
REMARK    3  A    between atoms: C_18  and  C_19
REMARK                            x       y       z     vdW  Elec       q    Type
REMARK                         _______ _______ _______ _____ _____    ______ ____
ROOT
ATOM      2  O   UNL     1      -3.405 -14.120  14.144  0.00  0.00    -0.252 OA
ATOM      3  N   UNL     1      -5.753 -11.088  17.468  0.00  0.00    -0.296 NA
ATOM      4  N   UNL     1      -4.065 -12.527  15.741  0.00  0.00    -0.278 N 
ATOM      5  N   UNL     1      -2.691 -11.872  14.088  0.00  0.00    -0.279 N 
ATOM      7  C   UNL     1      -3.729 -11.157  16.068  0.00  0.00    +0.109 C 
ATOM      8  C   UNL     1      -4.991 -10.371  16.424  0.00  0.00    +0.108 C 
ATOM     10  C   UNL     1      -6.151 -12.431  17.002  0.00  0.00    +0.104 C 
ATOM     11  C   UNL     1      -2.990 -10.658  14.829  0.00  0.00    +0.133 C 
ATOM     12  C   UNL     1      -4.933 -13.277  16.624  0.00  0.00    +0.125 C 
ATOM     15  C   UNL     1      -3.386 -12.985  14.603  0.00  0.00    +0.305 C 
ENDROOT
BRANCH   3   9
ATOM      1  O   UNL     1      -9.723  -9.719  17.491  0.00  0.00    -0.380 OA
ATOM      9  C   UNL     1      -6.930 -10.315  17.858  0.00  0.00    +0.061 C 
ATOM     13  C   UNL     1      -8.041 -11.229  18.385  0.00  0.00    +0.047 C 
ATOM     14  C   UNL     1      -7.446  -9.492  16.674  0.00  0.00    +0.047 C 
ATOM     16  C   UNL     1      -9.305 -10.423  18.661  0.00  0.00    +0.161 C 
ATOM     17  C   UNL     1      -8.742  -8.782  17.045  0.00  0.00    +0.161 C 
ENDBRANCH   3   9
BRANCH   5  18
ATOM     18  C   UNL     1      -1.892 -11.857  12.884  0.00  0.00    +0.146 C 
BRANCH  18  19
ATOM      6  N   UNL     1      -4.267 -11.563   9.956  0.00  0.00    -0.263 NA
ATOM     19  C   UNL     1      -2.640 -11.274  11.720  0.00  0.00    -0.012 A 
ATOM     20  C   UNL     1      -2.426  -9.960  11.318  0.00  0.00    +0.008 A 
ATOM     21  C   UNL     1      -3.562 -12.027  11.012  0.00  0.00    +0.115 A 
ATOM     22  C   UNL     1      -3.132  -9.447  10.235  0.00  0.00    +0.020 A 
ATOM     23  C   UNL     1      -4.033 -10.282   9.593  0.00  0.00    +0.111 A 
ENDBRANCH  18  19
ENDBRANCH   5  18
TORSDOF 3
ENDMDL
MODEL 7
REMARK VINA RESULT:      -5.8     17.620     20.197
REMARK  Name = 75537067
REMARK  3 active torsions:
REMARK  status: ('A' for Active; 'I' for Inactive)
REMARK    1  A    between atoms: N_3  and  C_9
REMARK    2  A    between atoms: N_5  and  C_18
REMARK    3  A    between atoms: C_18  and  C_19
REMARK                            x       y       z     vdW  Elec       q    Type
REMARK                         _______ _______ _______ _____ _____    ______ ____
ROOT
ATOM      2  O   UNL     1      13.068   6.570   0.643  0.00  0.00    -0.252 OA
ATOM      3  N   UNL     1       9.853   5.749   4.483  0.00  0.00    -0.296 NA
ATOM      4  N   UNL     1      11.426   5.834   2.154  0.00  0.00    -0.278 N 
ATOM      5  N   UNL     1      12.723   4.294   1.158  0.00  0.00    -0.279 N 
ATOM      7  C   UNL     1      10.879   4.564   2.586  0.00  0.00    +0.109 C 
ATOM      8  C   UNL     1      10.653   4.569   4.097  0.00  0.00    +0.108 C 
ATOM     10  C   UNL     1      10.541   7.000   4.107  0.00  0.00    +0.104 C 
ATOM     11  C   UNL     1      11.901   3.543   2.092  0.00  0.00    +0.133 C 
ATOM     12  C   UNL     1      10.804   7.063   2.600  0.00  0.00    +0.125 C 
ATOM     15  C   UNL     1      12.477   5.679   1.240  0.00  0.00    +0.305 C 
ENDROOT
BRANCH   3   9
ATOM      1  O   UNL     1      10.550   5.416   8.610  0.00  0.00    -0.380 OA
ATOM      9  C   UNL     1       9.579   5.731   5.918  0.00  0.00    +0.061 C 
ATOM     13  C   UNL     1      10.361   6.831   6.643  0.00  0.00    +0.047 C 
ATOM     14  C   UNL     1       9.928   4.362   6.510  0.00  0.00    +0.047 C 
ATOM     16  C   UNL     1      10.168   6.712   8.151  0.00  0.00    +0.161 C 
ATOM     17  C   UNL     1       9.759   4.381   8.025  0.00  0.00    +0.161 C 
ENDBRANCH   3   9
BRANCH   5  18
ATOM     18  C   UNL     1      13.761   3.665   0.373  0.00  0.00    +0.146 C 
BRANCH  18  19
ATOM      6  N   UNL     1      13.706   4.212  -3.369  0.00  0.00    -0.263 NA
ATOM     19  C   UNL     1      13.373   3.534  -1.072  0.00  0.00    -0.012 A 
ATOM     20  C   UNL     1      12.365   2.661  -1.467  0.00  0.00    +0.008 A 
ATOM     21  C   UNL     1      14.007   4.281  -2.052  0.00  0.00    +0.115 A 
ATOM     22  C   UNL     1      12.028   2.564  -2.813  0.00  0.00    +0.020 A 
ATOM     23  C   UNL     1      12.722   3.354  -3.716  0.00  0.00    +0.111 A 
ENDBRANCH  18  19
ENDBRANCH   5  18
TORSDOF 3
ENDMDL
MODEL 8
REMARK VINA RESULT:      -5.7     26.979     31.045
REMARK  Name = 75537067
REMARK  3 active torsions:
REMARK  status: ('A' for Active; 'I' for Inactive)
REMARK    1  A    between atoms: N_3  and  C_9
REMARK    2  A    between atoms: N_5  and  C_18
REMARK    3  A    between atoms: C_18  and  C_19
REMARK                            x       y       z     vdW  Elec       q    Type
REMARK                         _______ _______ _______ _____ _____    ______ ____
ROOT
ATOM      2  O   UNL     1      -6.485 -12.959  18.163  0.00  0.00    -0.252 OA
ATOM      3  N   UNL     1      -9.314  -8.773  17.675  0.00  0.00    -0.296 NA
ATOM      4  N   UNL     1      -7.381 -10.804  17.883  0.00  0.00    -0.278 N 
ATOM      5  N   UNL     1      -5.733 -11.460  16.504  0.00  0.00    -0.279 N 
ATOM      7  C   UNL     1      -7.082  -9.630  17.089  0.00  0.00    +0.109 C 
ATOM      8  C   UNL     1      -8.372  -9.005  16.560  0.00  0.00    +0.108 C 
ATOM     10  C   UNL     1      -9.650 -10.041  18.353  0.00  0.00    +0.104 C 
ATOM     11  C   UNL     1      -6.133 -10.152  16.013  0.00  0.00    +0.133 C 
ATOM     12  C   UNL     1      -8.400 -10.728  18.908  0.00  0.00    +0.125 C 
ATOM     15  C   UNL     1      -6.525 -11.876  17.592  0.00  0.00    +0.305 C 
ENDROOT
BRANCH   3   9
ATOM      1  O   UNL     1     -12.343  -7.591  15.018  0.00  0.00    -0.380 OA
ATOM      9  C   UNL     1     -10.527  -8.119  17.188  0.00  0.00    +0.061 C 
ATOM     13  C   UNL     1     -11.555  -9.149  16.709  0.00  0.00    +0.047 C 
ATOM     14  C   UNL     1     -10.190  -7.147  16.054  0.00  0.00    +0.047 C 
ATOM     16  C   UNL     1     -12.755  -8.447  16.083  0.00  0.00    +0.161 C 
ATOM     17  C   UNL     1     -11.466  -6.557  15.465  0.00  0.00    +0.161 C 
ENDBRANCH   3   9
BRANCH   5  18
ATOM     18  C   UNL     1      -4.740 -12.262  15.825  0.00  0.00    +0.146 C 
BRANCH  18  19
ATOM      6  N   UNL     1      -2.221 -10.397  13.708  0.00  0.00    -0.263 NA
ATOM     19  C   UNL     1      -3.532 -11.457  15.442  0.00  0.00    -0.012 A 
ATOM     20  C   UNL     1      -2.622 -11.030  16.402  0.00  0.00    +0.008 A 
ATOM     21  C   UNL     1      -3.289 -11.118  14.120  0.00  0.00    +0.115 A 
ATOM     22  C   UNL     1      -1.511 -10.287  16.016  0.00  0.00    +0.020 A 
ATOM     23  C   UNL     1      -1.358 -10.000  14.669  0.00  0.00    +0.111 A 
ENDBRANCH  18  19
ENDBRANCH   5  18
TORSDOF 3
ENDMDL
MODEL 9
REMARK VINA RESULT:      -5.7     28.289     29.930
REMARK  Name = 75537067
REMARK  3 active torsions:
REMARK  status: ('A' for Active; 'I' for Inactive)
REMARK    1  A    between atoms: N_3  and  C_9
REMARK    2  A    between atoms: N_5  and  C_18
REMARK    3  A    between atoms: C_18  and  C_19
REMARK                            x       y       z     vdW  Elec       q    Type
REMARK                         _______ _______ _______ _____ _____    ______ ____
ROOT
ATOM      2  O   UNL     1      -3.292 -13.543  11.976  0.00  0.00    -0.252 OA
ATOM      3  N   UNL     1      -4.749 -12.090  16.615  0.00  0.00    -0.296 NA
ATOM      4  N   UNL     1      -3.556 -12.641  14.130  0.00  0.00    -0.278 N 
ATOM      5  N   UNL     1      -2.786 -11.300  12.500  0.00  0.00    -0.279 N 
ATOM      7  C   UNL     1      -3.234 -11.399  14.802  0.00  0.00    +0.109 C 
ATOM      8  C   UNL     1      -4.384 -10.976  15.715  0.00  0.00    +0.108 C 
ATOM     10  C   UNL     1      -5.174 -13.274  15.843  0.00  0.00    +0.104 C 
ATOM     11  C   UNL     1      -2.934 -10.434  13.658  0.00  0.00    +0.133 C 
ATOM     12  C   UNL     1      -4.067 -13.754  14.901  0.00  0.00    +0.125 C 
ATOM     15  C   UNL     1      -3.217 -12.614  12.770  0.00  0.00    +0.305 C 
ENDROOT
BRANCH   3   9
ATOM      1  O   UNL     1      -6.874 -11.630  20.208  0.00  0.00    -0.380 OA
ATOM      9  C   UNL     1      -5.807 -11.675  17.534  0.00  0.00    +0.061 C 
ATOM     13  C   UNL     1      -5.261 -10.744  18.621  0.00  0.00    +0.047 C 
ATOM     14  C   UNL     1      -6.466 -12.900  18.176  0.00  0.00    +0.047 C 
ATOM     16  C   UNL     1      -6.346 -10.430  19.645  0.00  0.00    +0.161 C 
ATOM     17  C   UNL     1      -7.485 -12.466  19.223  0.00  0.00    +0.161 C 
ENDBRANCH   3   9
BRANCH   5  18
ATOM     18  C   UNL     1      -2.385 -10.789  11.209  0.00  0.00    +0.146 C 
BRANCH  18  19
ATOM      6  N   UNL     1      -5.395 -10.742   8.920  0.00  0.00    -0.263 NA
ATOM     19  C   UNL     1      -3.554 -10.279  10.418  0.00  0.00    -0.012 A 
ATOM     20  C   UNL     1      -3.891  -8.929  10.426  0.00  0.00    +0.008 A 
ATOM     21  C   UNL     1      -4.331 -11.137   9.655  0.00  0.00    +0.115 A 
ATOM     22  C   UNL     1      -4.979  -8.486   9.682  0.00  0.00    +0.020 A 
ATOM     23  C   UNL     1      -5.692  -9.424   8.952  0.00  0.00    +0.111 A 
ENDBRANCH  18  19
ENDBRANCH   5  18
TORSDOF 3
ENDMDL
MODEL 10
REMARK VINA RESULT:      -5.6     14.286     17.057
REMARK  Name = 75537067
REMARK  3 active torsions:
REMARK  status: ('A' for Active; 'I' for Inactive)
REMARK    1  A    between atoms: N_3  and  C_9
REMARK    2  A    between atoms: N_5  and  C_18
REMARK    3  A    between atoms: C_18  and  C_19
REMARK                            x       y       z     vdW  Elec       q    Type
REMARK                         _______ _______ _______ _____ _____    ______ ____
ROOT
ATOM      2  O   UNL     1      15.630   9.122   3.075  0.00  0.00    -0.252 OA
ATOM      3  N   UNL     1      12.006   6.535   5.511  0.00  0.00    -0.296 NA
ATOM      4  N   UNL     1      14.313   7.708   4.413  0.00  0.00    -0.278 N 
ATOM      5  N   UNL     1      16.075   8.731   5.359  0.00  0.00    -0.279 N 
ATOM      7  C   UNL     1      14.372   7.165   5.755  0.00  0.00    +0.109 C 
ATOM      8  C   UNL     1      12.987   7.190   6.400  0.00  0.00    +0.108 C 
ATOM     10  C   UNL     1      11.930   7.226   4.208  0.00  0.00    +0.104 C 
ATOM     11  C   UNL     1      15.420   8.031   6.450  0.00  0.00    +0.133 C 
ATOM     12  C   UNL     1      13.289   7.242   3.503  0.00  0.00    +0.125 C 
ATOM     15  C   UNL     1      15.374   8.585   4.146  0.00  0.00    +0.305 C 
ENDROOT
BRANCH   3   9
ATOM      1  O   UNL     1       8.902   7.487   8.174  0.00  0.00    -0.380 OA
ATOM      9  C   UNL     1      10.690   6.499   6.145  0.00  0.00    +0.061 C 
ATOM     13  C   UNL     1       9.984   7.854   6.029  0.00  0.00    +0.047 C 
ATOM     14  C   UNL     1      10.818   6.099   7.618  0.00  0.00    +0.047 C 
ATOM     16  C   UNL     1       8.675   7.838   6.809  0.00  0.00    +0.161 C 
ATOM     17  C   UNL     1       9.462   6.180   8.309  0.00  0.00    +0.161 C 
ENDBRANCH   3   9
BRANCH   5  18
ATOM     18  C   UNL     1      17.220   9.588   5.576  0.00  0.00    +0.146 C 
BRANCH  18  19
ATOM      6  N   UNL     1      20.071   7.401   4.396  0.00  0.00    -0.263 NA
ATOM     19  C   UNL     1      18.507   8.816   5.579  0.00  0.00    -0.012 A 
ATOM     20  C   UNL     1      19.319   8.782   6.708  0.00  0.00    +0.008 A 
ATOM     21  C   UNL     1      18.924   8.115   4.458  0.00  0.00    +0.115 A 
ATOM     22  C   UNL     1      20.506   8.057   6.681  0.00  0.00    +0.020 A 
ATOM     23  C   UNL     1      20.834   7.390   5.511  0.00  0.00    +0.111 A 
ENDBRANCH  18  19
ENDBRANCH   5  18
TORSDOF 3
ENDMDL
