MODEL 1
REMARK VINA RESULT:      -8.3      0.000      0.000
REMARK  Name = 11883387
REMARK  7 active torsions:
REMARK  status: ('A' for Active; 'I' for Inactive)
REMARK    1  A    between atoms: O_9  and  C_17
REMARK    2  A    between atoms: O_9  and  C_21
REMARK    3  A    between atoms: N_12  and  C_16
REMARK    4  A    between atoms: N_13  and  C_25
REMARK    5  A    between atoms: C_20  and  C_22
REMARK    6  A    between atoms: C_28  and  C_32
REMARK    7  A    between atoms: C_31  and  C_35
REMARK                            x       y       z     vdW  Elec       q    Type
REMARK                         _______ _______ _______ _____ _____    ______ ____
ROOT
ATOM      7  O   UNL     1     -16.188   2.207  24.449  0.00  0.00    -0.368 OA
ATOM      8  O   UNL     1     -17.965   4.345  25.742  0.00  0.00    -0.368 OA
ATOM     14  C   UNL     1     -16.728   4.447  25.007  0.00  0.00    +0.173 C 
ATOM     15  C   UNL     1     -15.886   3.247  25.393  0.00  0.00    +0.192 C 
ATOM     16  C   UNL     1     -16.983   4.250  23.531  0.00  0.00    +0.130 C 
ATOM     17  C   UNL     1     -16.402   2.918  26.773  0.00  0.00    +0.235 C 
ATOM     18  C   UNL     1     -17.026   2.737  23.410  0.00  0.00    +0.185 C 
ATOM     19  C   UNL     1     -17.876   3.234  26.647  0.00  0.00    +0.207 C 
ENDROOT
BRANCH  16  12
ATOM     10  O   UNL     1     -16.825   6.933  22.520  0.00  0.00    -0.270 OA
ATOM     12  N   UNL     1     -15.918   4.809  22.736  0.00  0.00    -0.304 N 
ATOM     20  C   UNL     1     -15.929   6.124  22.292  0.00  0.00    +0.244 C 
ATOM     36  H   UNL     1     -15.196   4.171  22.417  0.00  0.00    +0.149 HD
BRANCH  20  22
ATOM     22  C   UNL     1     -14.770   6.541  21.461  0.00  0.00    +0.037 A 
ATOM     23  C   UNL     1     -14.970   7.340  20.335  0.00  0.00    +0.013 A 
ATOM     24  C   UNL     1     -13.481   6.133  21.806  0.00  0.00    +0.013 A 
ATOM     26  C   UNL     1     -13.882   7.731  19.555  0.00  0.00    +0.013 A 
ATOM     27  C   UNL     1     -12.394   6.522  21.025  0.00  0.00    +0.013 A 
ATOM     28  C   UNL     1     -12.594   7.322  19.900  0.00  0.00    +0.055 A 
BRANCH  28  32
ATOM      1  F   UNL     1     -10.807   6.701  18.435  0.00  0.00    -0.166 F 
ATOM      2  F   UNL     1     -10.446   8.367  19.776  0.00  0.00    -0.166 F 
ATOM      3  F   UNL     1     -11.780   8.613  18.077  0.00  0.00    -0.166 F 
ATOM     32  C   UNL     1     -11.430   7.741  19.066  0.00  0.00    +0.417 C 
ENDBRANCH  28  32
ENDBRANCH  20  22
ENDBRANCH  16  12
BRANCH  17   9
ATOM      9  O   UNL     1     -16.178   1.579  27.152  0.00  0.00    -0.442 OA
BRANCH   9  21
ATOM     11  O   UNL     1     -16.972   0.446  28.973  0.00  0.00    -0.226 OA
ATOM     13  N   UNL     1     -15.327   2.099  29.175  0.00  0.00    -0.251 N 
ATOM     21  C   UNL     1     -16.225   1.295  28.501  0.00  0.00    +0.405 C 
ATOM     37  H   UNL     1     -14.790   2.749  28.606  0.00  0.00    +0.158 HD
BRANCH  13  25
ATOM     25  C   UNL     1     -15.060   2.132  30.563  0.00  0.00    +0.037 A 
ATOM     29  C   UNL     1     -14.862   3.354  31.207  0.00  0.00    +0.035 A 
ATOM     30  C   UNL     1     -14.993   0.943  31.289  0.00  0.00    +0.023 A 
ATOM     31  C   UNL     1     -14.597   3.386  32.576  0.00  0.00    +0.057 A 
ATOM     33  C   UNL     1     -14.728   0.975  32.658  0.00  0.00    +0.002 A 
ATOM     34  C   UNL     1     -14.531   2.197  33.301  0.00  0.00    +0.012 A 
BRANCH  31  35
ATOM      4  F   UNL     1     -15.534   5.406  33.452  0.00  0.00    -0.166 F 
ATOM      5  F   UNL     1     -13.832   4.571  34.508  0.00  0.00    -0.166 F 
ATOM      6  F   UNL     1     -13.549   5.521  32.572  0.00  0.00    -0.166 F 
ATOM     35  C   UNL     1     -14.384   4.692  33.264  0.00  0.00    +0.417 C 
ENDBRANCH  31  35
ENDBRANCH  13  25
ENDBRANCH   9  21
ENDBRANCH  17   9
TORSDOF 7
ENDMDL
MODEL 2
REMARK VINA RESULT:      -8.0     25.921     30.363
REMARK  Name = 11883387
REMARK  7 active torsions:
REMARK  status: ('A' for Active; 'I' for Inactive)
REMARK    1  A    between atoms: O_9  and  C_17
REMARK    2  A    between atoms: O_9  and  C_21
REMARK    3  A    between atoms: N_12  and  C_16
REMARK    4  A    between atoms: N_13  and  C_25
REMARK    5  A    between atoms: C_20  and  C_22
REMARK    6  A    between atoms: C_28  and  C_32
REMARK    7  A    between atoms: C_31  and  C_35
REMARK                            x       y       z     vdW  Elec       q    Type
REMARK                         _______ _______ _______ _____ _____    ______ ____
ROOT
ATOM      7  O   UNL     1       5.296   9.694   2.585  0.00  0.00    -0.368 OA
ATOM      8  O   UNL     1       6.378  12.510   3.133  0.00  0.00    -0.368 OA
ATOM     14  C   UNL     1       6.311  11.333   3.965  0.00  0.00    +0.173 C 
ATOM     15  C   UNL     1       5.008  10.633   3.633  0.00  0.00    +0.192 C 
ATOM     16  C   UNL     1       7.371  10.341   3.547  0.00  0.00    +0.130 C 
ATOM     17  C   UNL     1       4.143  11.771   3.144  0.00  0.00    +0.235 C 
ATOM     18  C   UNL     1       6.715   9.646   2.368  0.00  0.00    +0.185 C 
ATOM     19  C   UNL     1       5.142  12.640   2.414  0.00  0.00    +0.207 C 
ENDROOT
BRANCH  16  12
ATOM     10  O   UNL     1       9.809   8.868   3.913  0.00  0.00    -0.270 OA
ATOM     12  N   UNL     1       7.663   9.409   4.609  0.00  0.00    -0.304 N 
ATOM     20  C   UNL     1       8.877   8.742   4.703  0.00  0.00    +0.244 C 
ATOM     36  H   UNL     1       6.903   9.173   5.238  0.00  0.00    +0.149 HD
BRANCH  20  22
ATOM     22  C   UNL     1       9.012   7.795   5.841  0.00  0.00    +0.037 A 
ATOM     23  C   UNL     1       8.787   8.235   7.145  0.00  0.00    +0.013 A 
ATOM     24  C   UNL     1       9.366   6.467   5.604  0.00  0.00    +0.013 A 
ATOM     26  C   UNL     1       8.914   7.346   8.212  0.00  0.00    +0.013 A 
ATOM     27  C   UNL     1       9.495   5.579   6.672  0.00  0.00    +0.013 A 
ATOM     28  C   UNL     1       9.269   6.019   7.976  0.00  0.00    +0.055 A 
BRANCH  28  32
ATOM      1  F   UNL     1       8.351   5.104   9.987  0.00  0.00    -0.166 F 
ATOM      2  F   UNL     1      10.510   5.295   9.889  0.00  0.00    -0.166 F 
ATOM      3  F   UNL     1       9.501   3.770   8.711  0.00  0.00    -0.166 F 
ATOM     32  C   UNL     1       9.404   5.069   9.118  0.00  0.00    +0.417 C 
ENDBRANCH  28  32
ENDBRANCH  20  22
ENDBRANCH  16  12
BRANCH  17   9
ATOM      9  O   UNL     1       3.090  11.354   2.304  0.00  0.00    -0.442 OA
BRANCH   9  21
ATOM     11  O   UNL     1       1.457  12.435   3.485  0.00  0.00    -0.226 OA
ATOM     13  N   UNL     1       1.047  10.402   2.399  0.00  0.00    -0.251 N 
ATOM     21  C   UNL     1       1.809  11.483   2.799  0.00  0.00    +0.405 C 
ATOM     37  H   UNL     1       1.520   9.707   1.827  0.00  0.00    +0.158 HD
BRANCH  13  25
ATOM     25  C   UNL     1      -0.312  10.142   2.686  0.00  0.00    +0.037 A 
ATOM     29  C   UNL     1      -0.667   9.552   3.900  0.00  0.00    +0.035 A 
ATOM     30  C   UNL     1      -1.297  10.473   1.757  0.00  0.00    +0.023 A 
ATOM     31  C   UNL     1      -2.009   9.293   4.183  0.00  0.00    +0.057 A 
ATOM     33  C   UNL     1      -2.639  10.215   2.040  0.00  0.00    +0.002 A 
ATOM     34  C   UNL     1      -2.994   9.625   3.254  0.00  0.00    +0.012 A 
BRANCH  31  35
ATOM      4  F   UNL     1      -1.404   8.715   6.424  0.00  0.00    -0.166 F 
ATOM      5  F   UNL     1      -3.480   9.235   6.068  0.00  0.00    -0.166 F 
ATOM      6  F   UNL     1      -2.699   7.339   5.348  0.00  0.00    -0.166 F 
ATOM     35  C   UNL     1      -2.389   8.661   5.479  0.00  0.00    +0.417 C 
ENDBRANCH  31  35
ENDBRANCH  13  25
ENDBRANCH   9  21
ENDBRANCH  17   9
TORSDOF 7
ENDMDL
MODEL 3
REMARK VINA RESULT:      -7.9      2.323      3.192
REMARK  Name = 11883387
REMARK  7 active torsions:
REMARK  status: ('A' for Active; 'I' for Inactive)
REMARK    1  A    between atoms: O_9  and  C_17
REMARK    2  A    between atoms: O_9  and  C_21
REMARK    3  A    between atoms: N_12  and  C_16
REMARK    4  A    between atoms: N_13  and  C_25
REMARK    5  A    between atoms: C_20  and  C_22
REMARK    6  A    between atoms: C_28  and  C_32
REMARK    7  A    between atoms: C_31  and  C_35
REMARK                            x       y       z     vdW  Elec       q    Type
REMARK                         _______ _______ _______ _____ _____    ______ ____
ROOT
ATOM      7  O   UNL     1     -15.990   3.940  22.690  0.00  0.00    -0.368 OA
ATOM      8  O   UNL     1     -17.844   5.899  24.148  0.00  0.00    -0.368 OA
ATOM     14  C   UNL     1     -16.512   6.059  23.615  0.00  0.00    +0.173 C 
ATOM     15  C   UNL     1     -15.783   4.753  23.856  0.00  0.00    +0.192 C 
ATOM     16  C   UNL     1     -16.566   6.171  22.109  0.00  0.00    +0.130 C 
ATOM     17  C   UNL     1     -16.500   4.196  25.063  0.00  0.00    +0.235 C 
ATOM     18  C   UNL     1     -16.653   4.717  21.681  0.00  0.00    +0.185 C 
ATOM     19  C   UNL     1     -17.927   4.630  24.813  0.00  0.00    +0.207 C 
ENDROOT
BRANCH  16  12
ATOM     10  O   UNL     1     -15.995   6.744  19.354  0.00  0.00    -0.270 OA
ATOM     12  N   UNL     1     -15.378   6.802  21.589  0.00  0.00    -0.304 N 
ATOM     20  C   UNL     1     -15.191   7.038  20.234  0.00  0.00    +0.244 C 
ATOM     36  H   UNL     1     -14.623   6.976  22.245  0.00  0.00    +0.149 HD
BRANCH  20  22
ATOM     22  C   UNL     1     -13.901   7.672  19.856  0.00  0.00    +0.037 A 
ATOM     23  C   UNL     1     -12.891   7.821  20.807  0.00  0.00    +0.013 A 
ATOM     24  C   UNL     1     -13.700   8.119  18.549  0.00  0.00    +0.013 A 
ATOM     26  C   UNL     1     -11.681   8.417  20.451  0.00  0.00    +0.013 A 
ATOM     27  C   UNL     1     -12.491   8.716  18.195  0.00  0.00    +0.013 A 
ATOM     28  C   UNL     1     -11.481   8.864  19.146  0.00  0.00    +0.055 A 
BRANCH  28  32
ATOM      1  F   UNL     1     -10.262  10.858  18.634  0.00  0.00    -0.166 F 
ATOM      2  F   UNL     1      -9.686   9.054  17.575  0.00  0.00    -0.166 F 
ATOM      3  F   UNL     1      -9.202   9.275  19.684  0.00  0.00    -0.166 F 
ATOM     32  C   UNL     1     -10.186   9.500  18.766  0.00  0.00    +0.417 C 
ENDBRANCH  28  32
ENDBRANCH  20  22
ENDBRANCH  16  12
BRANCH  17   9
ATOM      9  O   UNL     1     -16.385   2.797  25.188  0.00  0.00    -0.442 OA
BRANCH   9  21
ATOM     11  O   UNL     1     -16.992   1.224  26.734  0.00  0.00    -0.226 OA
ATOM     13  N   UNL     1     -15.756   3.122  27.330  0.00  0.00    -0.251 N 
ATOM     21  C   UNL     1     -16.428   2.279  26.466  0.00  0.00    +0.405 C 
ATOM     37  H   UNL     1     -15.350   3.957  26.917  0.00  0.00    +0.158 HD
BRANCH  13  25
ATOM     25  C   UNL     1     -15.563   2.967  28.722  0.00  0.00    +0.037 A 
ATOM     29  C   UNL     1     -15.364   1.695  29.261  0.00  0.00    +0.035 A 
ATOM     30  C   UNL     1     -15.573   4.084  29.556  0.00  0.00    +0.023 A 
ATOM     31  C   UNL     1     -15.175   1.543  30.634  0.00  0.00    +0.057 A 
ATOM     33  C   UNL     1     -15.384   3.931  30.930  0.00  0.00    +0.002 A 
ATOM     34  C   UNL     1     -15.185   2.660  31.469  0.00  0.00    +0.012 A 
BRANCH  31  35
ATOM      4  F   UNL     1     -15.947  -0.708  30.888  0.00  0.00    -0.166 F 
ATOM      5  F   UNL     1     -13.800  -0.407  30.807  0.00  0.00    -0.166 F 
ATOM      6  F   UNL     1     -14.914   0.194  32.575  0.00  0.00    -0.166 F 
ATOM     35  C   UNL     1     -14.963   0.184  31.211  0.00  0.00    +0.417 C 
ENDBRANCH  31  35
ENDBRANCH  13  25
ENDBRANCH   9  21
ENDBRANCH  17   9
TORSDOF 7
ENDMDL
MODEL 4
REMARK VINA RESULT:      -7.7     17.597     20.779
REMARK  Name = 11883387
REMARK  7 active torsions:
REMARK  status: ('A' for Active; 'I' for Inactive)
REMARK    1  A    between atoms: O_9  and  C_17
REMARK    2  A    between atoms: O_9  and  C_21
REMARK    3  A    between atoms: N_12  and  C_16
REMARK    4  A    between atoms: N_13  and  C_25
REMARK    5  A    between atoms: C_20  and  C_22
REMARK    6  A    between atoms: C_28  and  C_32
REMARK    7  A    between atoms: C_31  and  C_35
REMARK                            x       y       z     vdW  Elec       q    Type
REMARK                         _______ _______ _______ _____ _____    ______ ____
ROOT
ATOM      7  O   UNL     1      -6.813 -11.723  17.004  0.00  0.00    -0.368 OA
ATOM      8  O   UNL     1      -6.546 -10.774  19.908  0.00  0.00    -0.368 OA
ATOM     14  C   UNL     1      -7.068 -10.119  18.732  0.00  0.00    +0.173 C 
ATOM     15  C   UNL     1      -6.201 -10.552  17.567  0.00  0.00    +0.192 C 
ATOM     16  C   UNL     1      -8.432 -10.673  18.392  0.00  0.00    +0.130 C 
ATOM     17  C   UNL     1      -4.888 -10.875  18.240  0.00  0.00    +0.235 C 
ATOM     18  C   UNL     1      -8.085 -11.942  17.634  0.00  0.00    +0.185 C 
ATOM     19  C   UNL     1      -5.341 -11.469  19.554  0.00  0.00    +0.207 C 
ENDROOT
BRANCH  16  12
ATOM     10  O   UNL     1     -11.009  -9.547  18.976  0.00  0.00    -0.270 OA
ATOM     12  N   UNL     1      -9.179  -9.756  17.567  0.00  0.00    -0.304 N 
ATOM     20  C   UNL     1     -10.423  -9.263  17.935  0.00  0.00    +0.244 C 
ATOM     36  H   UNL     1      -8.806  -9.559  16.643  0.00  0.00    +0.149 HD
BRANCH  20  22
ATOM     22  C   UNL     1     -11.074  -8.347  16.962  0.00  0.00    +0.037 A 
ATOM     23  C   UNL     1     -10.410  -7.198  16.533  0.00  0.00    +0.013 A 
ATOM     24  C   UNL     1     -12.350  -8.637  16.478  0.00  0.00    +0.013 A 
ATOM     26  C   UNL     1     -11.022  -6.339  15.620  0.00  0.00    +0.013 A 
ATOM     27  C   UNL     1     -12.962  -7.777  15.567  0.00  0.00    +0.013 A 
ATOM     28  C   UNL     1     -12.298  -6.628  15.138  0.00  0.00    +0.055 A 
BRANCH  28  32
ATOM      1  F   UNL     1     -12.948  -6.182  12.879  0.00  0.00    -0.166 F 
ATOM      2  F   UNL     1     -12.360  -4.479  14.088  0.00  0.00    -0.166 F 
ATOM      3  F   UNL     1     -14.260  -5.469  14.461  0.00  0.00    -0.166 F 
ATOM     32  C   UNL     1     -12.951  -5.709  14.161  0.00  0.00    +0.417 C 
ENDBRANCH  28  32
ENDBRANCH  20  22
ENDBRANCH  16  12
BRANCH  17   9
ATOM      9  O   UNL     1      -4.083 -11.767  17.504  0.00  0.00    -0.442 OA
BRANCH   9  21
ATOM     11  O   UNL     1      -2.291 -10.672  16.601  0.00  0.00    -0.226 OA
ATOM     13  N   UNL     1      -4.050 -11.458  15.270  0.00  0.00    -0.251 N 
ATOM     21  C   UNL     1      -3.367 -11.239  16.450  0.00  0.00    +0.405 C 
ATOM     37  H   UNL     1      -4.935 -11.952  15.348  0.00  0.00    +0.158 HD
BRANCH  13  25
ATOM     25  C   UNL     1      -3.670 -11.080  13.962  0.00  0.00    +0.037 A 
ATOM     29  C   UNL     1      -4.525 -10.297  13.186  0.00  0.00    +0.035 A 
ATOM     30  C   UNL     1      -2.441 -11.489  13.447  0.00  0.00    +0.023 A 
ATOM     31  C   UNL     1      -4.150  -9.925  11.895  0.00  0.00    +0.057 A 
ATOM     33  C   UNL     1      -2.066 -11.118  12.155  0.00  0.00    +0.002 A 
ATOM     34  C   UNL     1      -2.921 -10.335  11.380  0.00  0.00    +0.012 A 
BRANCH  31  35
ATOM      4  F   UNL     1      -4.421  -8.129  10.337  0.00  0.00    -0.166 F 
ATOM      5  F   UNL     1      -5.782  -9.807  10.150  0.00  0.00    -0.166 F 
ATOM      6  F   UNL     1      -5.991  -8.421  11.812  0.00  0.00    -0.166 F 
ATOM     35  C   UNL     1      -5.065  -9.089  11.065  0.00  0.00    +0.417 C 
ENDBRANCH  31  35
ENDBRANCH  13  25
ENDBRANCH   9  21
ENDBRANCH  17   9
TORSDOF 7
ENDMDL
MODEL 5
REMARK VINA RESULT:      -7.7     16.712     20.188
REMARK  Name = 11883387
REMARK  7 active torsions:
REMARK  status: ('A' for Active; 'I' for Inactive)
REMARK    1  A    between atoms: O_9  and  C_17
REMARK    2  A    between atoms: O_9  and  C_21
REMARK    3  A    between atoms: N_12  and  C_16
REMARK    4  A    between atoms: N_13  and  C_25
REMARK    5  A    between atoms: C_20  and  C_22
REMARK    6  A    between atoms: C_28  and  C_32
REMARK    7  A    between atoms: C_31  and  C_35
REMARK                            x       y       z     vdW  Elec       q    Type
REMARK                         _______ _______ _______ _____ _____    ______ ____
ROOT
ATOM      7  O   UNL     1      -9.935  -7.637  16.678  0.00  0.00    -0.368 OA
ATOM      8  O   UNL     1     -11.564 -10.232  16.778  0.00  0.00    -0.368 OA
ATOM     14  C   UNL     1     -10.282  -9.931  16.189  0.00  0.00    +0.173 C 
ATOM     15  C   UNL     1     -10.373  -8.523  15.636  0.00  0.00    +0.192 C 
ATOM     16  C   UNL     1      -9.227  -9.829  17.266  0.00  0.00    +0.130 C 
ATOM     17  C   UNL     1     -11.850  -8.376  15.360  0.00  0.00    +0.235 C 
ATOM     18  C   UNL     1      -9.421  -8.411  17.774  0.00  0.00    +0.185 C 
ATOM     19  C   UNL     1     -12.467  -9.151  16.502  0.00  0.00    +0.207 C 
ENDROOT
BRANCH  16  12
ATOM     10  O   UNL     1      -6.921 -10.813  18.665  0.00  0.00    -0.270 OA
ATOM     12  N   UNL     1      -7.904 -10.015  16.722  0.00  0.00    -0.304 N 
ATOM     20  C   UNL     1      -6.847 -10.500  17.480  0.00  0.00    +0.244 C 
ATOM     36  H   UNL     1      -7.741  -9.676  15.780  0.00  0.00    +0.149 HD
BRANCH  20  22
ATOM     22  C   UNL     1      -5.541 -10.609  16.780  0.00  0.00    +0.037 A 
ATOM     23  C   UNL     1      -5.474 -10.444  15.397  0.00  0.00    +0.013 A 
ATOM     24  C   UNL     1      -4.380 -10.878  17.507  0.00  0.00    +0.013 A 
ATOM     26  C   UNL     1      -4.248 -10.547  14.740  0.00  0.00    +0.013 A 
ATOM     27  C   UNL     1      -3.155 -10.982  16.850  0.00  0.00    +0.013 A 
ATOM     28  C   UNL     1      -3.089 -10.816  15.467  0.00  0.00    +0.055 A 
BRANCH  28  32
ATOM      1  F   UNL     1      -0.703 -10.933  15.608  0.00  0.00    -0.166 F 
ATOM      2  F   UNL     1      -1.537  -9.901  13.892  0.00  0.00    -0.166 F 
ATOM      3  F   UNL     1      -1.671 -12.068  14.026  0.00  0.00    -0.166 F 
ATOM     32  C   UNL     1      -1.778 -10.926  14.764  0.00  0.00    +0.417 C 
ENDBRANCH  28  32
ENDBRANCH  20  22
ENDBRANCH  16  12
BRANCH  17   9
ATOM      9  O   UNL     1     -12.286  -7.036  15.332  0.00  0.00    -0.442 OA
BRANCH   9  21
ATOM     11  O   UNL     1     -13.818  -7.351  13.663  0.00  0.00    -0.226 OA
ATOM     13  N   UNL     1     -12.626  -5.347  13.876  0.00  0.00    -0.251 N 
ATOM     21  C   UNL     1     -12.995  -6.633  14.220  0.00  0.00    +0.405 C 
ATOM     37  H   UNL     1     -11.921  -4.910  14.464  0.00  0.00    +0.158 HD
BRANCH  13  25
ATOM     25  C   UNL     1     -13.107  -4.561  12.804  0.00  0.00    +0.037 A 
ATOM     29  C   UNL     1     -12.372  -4.470  11.621  0.00  0.00    +0.035 A 
ATOM     30  C   UNL     1     -14.315  -3.876  12.929  0.00  0.00    +0.023 A 
ATOM     31  C   UNL     1     -12.846  -3.692  10.565  0.00  0.00    +0.057 A 
ATOM     33  C   UNL     1     -14.789  -3.099  11.872  0.00  0.00    +0.002 A 
ATOM     34  C   UNL     1     -14.054  -3.007  10.689  0.00  0.00    +0.012 A 
BRANCH  31  35
ATOM      4  F   UNL     1     -11.944  -4.779   8.633  0.00  0.00    -0.166 F 
ATOM      5  F   UNL     1     -12.593  -2.724   8.392  0.00  0.00    -0.166 F 
ATOM      6  F   UNL     1     -10.781  -3.164   9.509  0.00  0.00    -0.166 F 
ATOM     35  C   UNL     1     -12.060  -3.593   9.301  0.00  0.00    +0.417 C 
ENDBRANCH  31  35
ENDBRANCH  13  25
ENDBRANCH   9  21
ENDBRANCH  17   9
TORSDOF 7
ENDMDL
MODEL 6
REMARK VINA RESULT:      -7.5     20.493     25.050
REMARK  Name = 11883387
REMARK  7 active torsions:
REMARK  status: ('A' for Active; 'I' for Inactive)
REMARK    1  A    between atoms: O_9  and  C_17
REMARK    2  A    between atoms: O_9  and  C_21
REMARK    3  A    between atoms: N_12  and  C_16
REMARK    4  A    between atoms: N_13  and  C_25
REMARK    5  A    between atoms: C_20  and  C_22
REMARK    6  A    between atoms: C_28  and  C_32
REMARK    7  A    between atoms: C_31  and  C_35
REMARK                            x       y       z     vdW  Elec       q    Type
REMARK                         _______ _______ _______ _____ _____    ______ ____
ROOT
ATOM      7  O   UNL     1      -5.930 -11.031  10.495  0.00  0.00    -0.368 OA
ATOM      8  O   UNL     1      -3.502  -9.202  10.098  0.00  0.00    -0.368 OA
ATOM     14  C   UNL     1      -4.367  -9.409  11.234  0.00  0.00    +0.173 C 
ATOM     15  C   UNL     1      -5.766  -9.617  10.690  0.00  0.00    +0.192 C 
ATOM     16  C   UNL     1      -4.039 -10.724  11.902  0.00  0.00    +0.130 C 
ATOM     17  C   UNL     1      -5.718  -8.873   9.376  0.00  0.00    +0.235 C 
ATOM     18  C   UNL     1      -4.794 -11.720  11.041  0.00  0.00    +0.185 C 
ATOM     19  C   UNL     1      -4.305  -9.139   8.910  0.00  0.00    +0.207 C 
ENDROOT
BRANCH  16  12
ATOM     10  O   UNL     1      -2.445 -10.407  14.270  0.00  0.00    -0.270 OA
ATOM     12  N   UNL     1      -4.508 -10.749  13.266  0.00  0.00    -0.304 N 
ATOM     20  C   UNL     1      -3.658 -10.585  14.351  0.00  0.00    +0.244 C 
ATOM     36  H   UNL     1      -5.481 -10.999  13.415  0.00  0.00    +0.149 HD
BRANCH  20  22
ATOM     22  C   UNL     1      -4.292 -10.663  15.693  0.00  0.00    +0.037 A 
ATOM     23  C   UNL     1      -5.541 -10.081  15.909  0.00  0.00    +0.013 A 
ATOM     24  C   UNL     1      -3.637 -11.317  16.737  0.00  0.00    +0.013 A 
ATOM     26  C   UNL     1      -6.136 -10.154  17.168  0.00  0.00    +0.013 A 
ATOM     27  C   UNL     1      -4.232 -11.388  17.997  0.00  0.00    +0.013 A 
ATOM     28  C   UNL     1      -5.481 -10.807  18.212  0.00  0.00    +0.055 A 
BRANCH  28  32
ATOM      1  F   UNL     1      -7.359 -11.456  19.544  0.00  0.00    -0.166 F 
ATOM      2  F   UNL     1      -6.294  -9.667  20.152  0.00  0.00    -0.166 F 
ATOM      3  F   UNL     1      -5.386 -11.621  20.443  0.00  0.00    -0.166 F 
ATOM     32  C   UNL     1      -6.118 -10.885  19.558  0.00  0.00    +0.417 C 
ENDBRANCH  28  32
ENDBRANCH  20  22
ENDBRANCH  16  12
BRANCH  17   9
ATOM      9  O   UNL     1      -6.677  -9.318   8.444  0.00  0.00    -0.442 OA
BRANCH   9  21
ATOM     11  O   UNL     1      -7.624  -7.238   8.366  0.00  0.00    -0.226 OA
ATOM     13  N   UNL     1      -8.121  -8.874   6.768  0.00  0.00    -0.251 N 
ATOM     21  C   UNL     1      -7.501  -8.360   7.890  0.00  0.00    +0.405 C 
ATOM     37  H   UNL     1      -7.889  -9.835   6.528  0.00  0.00    +0.158 HD
BRANCH  13  25
ATOM     25  C   UNL     1      -9.040  -8.230   5.909  0.00  0.00    +0.037 A 
ATOM     29  C   UNL     1      -8.648  -7.855   4.623  0.00  0.00    +0.035 A 
ATOM     30  C   UNL     1     -10.337  -7.967   6.346  0.00  0.00    +0.023 A 
ATOM     31  C   UNL     1      -9.554  -7.217   3.776  0.00  0.00    +0.057 A 
ATOM     33  C   UNL     1     -11.244  -7.329   5.500  0.00  0.00    +0.002 A 
ATOM     34  C   UNL     1     -10.852  -6.955   4.214  0.00  0.00    +0.012 A 
BRANCH  31  35
ATOM      4  F   UNL     1      -9.949  -7.302   1.418  0.00  0.00    -0.166 F 
ATOM      5  F   UNL     1      -9.114  -5.463   2.211  0.00  0.00    -0.166 F 
ATOM      6  F   UNL     1      -7.881  -7.249   2.087  0.00  0.00    -0.166 F 
ATOM     35  C   UNL     1      -9.136  -6.816   2.403  0.00  0.00    +0.417 C 
ENDBRANCH  31  35
ENDBRANCH  13  25
ENDBRANCH   9  21
ENDBRANCH  17   9
TORSDOF 7
ENDMDL
MODEL 7
REMARK VINA RESULT:      -7.5     19.538     23.512
REMARK  Name = 11883387
REMARK  7 active torsions:
REMARK  status: ('A' for Active; 'I' for Inactive)
REMARK    1  A    between atoms: O_9  and  C_17
REMARK    2  A    between atoms: O_9  and  C_21
REMARK    3  A    between atoms: N_12  and  C_16
REMARK    4  A    between atoms: N_13  and  C_25
REMARK    5  A    between atoms: C_20  and  C_22
REMARK    6  A    between atoms: C_28  and  C_32
REMARK    7  A    between atoms: C_31  and  C_35
REMARK                            x       y       z     vdW  Elec       q    Type
REMARK                         _______ _______ _______ _____ _____    ______ ____
ROOT
ATOM      7  O   UNL     1      -5.395 -11.297  10.519  0.00  0.00    -0.368 OA
ATOM      8  O   UNL     1      -3.444  -8.978  10.053  0.00  0.00    -0.368 OA
ATOM     14  C   UNL     1      -4.288  -9.306  11.176  0.00  0.00    +0.173 C 
ATOM     15  C   UNL     1      -5.573  -9.874  10.608  0.00  0.00    +0.192 C 
ATOM     16  C   UNL     1      -3.695 -10.458  11.953  0.00  0.00    +0.130 C 
ATOM     17  C   UNL     1      -5.639  -9.230   9.244  0.00  0.00    +0.235 C 
ATOM     18  C   UNL     1      -4.157 -11.660  11.148  0.00  0.00    +0.185 C 
ATOM     19  C   UNL     1      -4.183  -9.187   8.841  0.00  0.00    +0.207 C 
ENDROOT
BRANCH  16  12
ATOM     10  O   UNL     1      -2.184 -10.923  14.349  0.00  0.00    -0.270 OA
ATOM     12  N   UNL     1      -4.208 -10.500  13.300  0.00  0.00    -0.304 N 
ATOM     20  C   UNL     1      -3.396 -10.732  14.401  0.00  0.00    +0.244 C 
ATOM     36  H   UNL     1      -5.216 -10.458  13.411  0.00  0.00    +0.149 HD
BRANCH  20  22
ATOM     22  C   UNL     1      -4.081 -10.771  15.719  0.00  0.00    +0.037 A 
ATOM     23  C   UNL     1      -5.404 -10.345  15.831  0.00  0.00    +0.013 A 
ATOM     24  C   UNL     1      -3.401 -11.234  16.846  0.00  0.00    +0.013 A 
ATOM     26  C   UNL     1      -6.047 -10.381  17.068  0.00  0.00    +0.013 A 
ATOM     27  C   UNL     1      -4.043 -11.269  18.083  0.00  0.00    +0.013 A 
ATOM     28  C   UNL     1      -5.366 -10.843  18.194  0.00  0.00    +0.055 A 
BRANCH  28  32
ATOM      1  F   UNL     1      -7.311 -11.417  19.464  0.00  0.00    -0.166 F 
ATOM      2  F   UNL     1      -6.216  -9.651  20.086  0.00  0.00    -0.166 F 
ATOM      3  F   UNL     1      -5.378 -11.627  20.438  0.00  0.00    -0.166 F 
ATOM     32  C   UNL     1      -6.055 -10.883  19.517  0.00  0.00    +0.417 C 
ENDBRANCH  28  32
ENDBRANCH  20  22
ENDBRANCH  16  12
BRANCH  17   9
ATOM      9  O   UNL     1      -6.424  -9.950   8.320  0.00  0.00    -0.442 OA
BRANCH   9  21
ATOM     11  O   UNL     1      -8.633 -10.476   8.592  0.00  0.00    -0.226 OA
ATOM     13  N   UNL     1      -7.954  -8.355   7.868  0.00  0.00    -0.251 N 
ATOM     21  C   UNL     1      -7.772  -9.659   8.286  0.00  0.00    +0.405 C 
ATOM     37  H   UNL     1      -7.109  -7.829   7.658  0.00  0.00    +0.158 HD
BRANCH  13  25
ATOM     25  C   UNL     1      -9.172  -7.659   7.694  0.00  0.00    +0.037 A 
ATOM     29  C   UNL     1      -9.428  -6.507   8.437  0.00  0.00    +0.035 A 
ATOM     30  C   UNL     1     -10.117  -8.125   6.781  0.00  0.00    +0.023 A 
ATOM     31  C   UNL     1     -10.631  -5.821   8.267  0.00  0.00    +0.057 A 
ATOM     33  C   UNL     1     -11.320  -7.439   6.610  0.00  0.00    +0.002 A 
ATOM     34  C   UNL     1     -11.577  -6.287   7.354  0.00  0.00    +0.012 A 
BRANCH  31  35
ATOM      4  F   UNL     1     -11.256  -4.842  10.359  0.00  0.00    -0.166 F 
ATOM      5  F   UNL     1      -9.841  -3.739   9.140  0.00  0.00    -0.166 F 
ATOM      6  F   UNL     1     -11.930  -3.849   8.546  0.00  0.00    -0.166 F 
ATOM     35  C   UNL     1     -10.907  -4.590   9.062  0.00  0.00    +0.417 C 
ENDBRANCH  31  35
ENDBRANCH  13  25
ENDBRANCH   9  21
ENDBRANCH  17   9
TORSDOF 7
ENDMDL
MODEL 8
REMARK VINA RESULT:      -7.5     17.799     19.870
REMARK  Name = 11883387
REMARK  7 active torsions:
REMARK  status: ('A' for Active; 'I' for Inactive)
REMARK    1  A    between atoms: O_9  and  C_17
REMARK    2  A    between atoms: O_9  and  C_21
REMARK    3  A    between atoms: N_12  and  C_16
REMARK    4  A    between atoms: N_13  and  C_25
REMARK    5  A    between atoms: C_20  and  C_22
REMARK    6  A    between atoms: C_28  and  C_32
REMARK    7  A    between atoms: C_31  and  C_35
REMARK                            x       y       z     vdW  Elec       q    Type
REMARK                         _______ _______ _______ _____ _____    ______ ____
ROOT
ATOM      7  O   UNL     1      -7.898 -10.784  36.704  0.00  0.00    -0.368 OA
ATOM      8  O   UNL     1      -8.823 -11.842  39.429  0.00  0.00    -0.368 OA
ATOM     14  C   UNL     1      -9.565 -11.433  38.261  0.00  0.00    +0.173 C 
ATOM     15  C   UNL     1      -8.826 -10.252  37.663  0.00  0.00    +0.192 C 
ATOM     16  C   UNL     1      -9.474 -12.496  37.191  0.00  0.00    +0.130 C 
ATOM     17  C   UNL     1      -8.119  -9.668  38.863  0.00  0.00    +0.235 C 
ATOM     18  C   UNL     1      -8.133 -12.193  36.548  0.00  0.00    +0.185 C 
ATOM     19  C   UNL     1      -7.758 -10.906  39.654  0.00  0.00    +0.207 C 
ENDROOT
BRANCH  16  12
ATOM     10  O   UNL     1     -10.843 -14.643  35.864  0.00  0.00    -0.270 OA
ATOM     12  N   UNL     1     -10.552 -12.373  36.240  0.00  0.00    -0.304 N 
ATOM     20  C   UNL     1     -11.154 -13.475  35.648  0.00  0.00    +0.244 C 
ATOM     36  H   UNL     1     -10.790 -11.436  35.931  0.00  0.00    +0.149 HD
BRANCH  20  22
ATOM     22  C   UNL     1     -12.232 -13.180  34.669  0.00  0.00    +0.037 A 
ATOM     23  C   UNL     1     -13.045 -12.059  34.842  0.00  0.00    +0.013 A 
ATOM     24  C   UNL     1     -12.432 -14.024  33.576  0.00  0.00    +0.013 A 
ATOM     26  C   UNL     1     -14.057 -11.783  33.923  0.00  0.00    +0.013 A 
ATOM     27  C   UNL     1     -13.445 -13.748  32.658  0.00  0.00    +0.013 A 
ATOM     28  C   UNL     1     -14.257 -12.627  32.832  0.00  0.00    +0.055 A 
BRANCH  28  32
ATOM      1  F   UNL     1     -15.936 -11.117  32.042  0.00  0.00    -0.166 F 
ATOM      2  F   UNL     1     -16.361 -13.237  31.870  0.00  0.00    -0.166 F 
ATOM      3  F   UNL     1     -14.889 -12.317  30.561  0.00  0.00    -0.166 F 
ATOM     32  C   UNL     1     -15.339 -12.331  31.849  0.00  0.00    +0.417 C 
ENDBRANCH  28  32
ENDBRANCH  20  22
ENDBRANCH  16  12
BRANCH  17   9
ATOM      9  O   UNL     1      -6.984  -8.903  38.528  0.00  0.00    -0.442 OA
BRANCH   9  21
ATOM     11  O   UNL     1      -5.627  -7.438  39.642  0.00  0.00    -0.226 OA
ATOM     13  N   UNL     1      -7.945  -7.126  39.532  0.00  0.00    -0.251 N 
ATOM     21  C   UNL     1      -6.749  -7.771  39.281  0.00  0.00    +0.405 C 
ATOM     37  H   UNL     1      -8.779  -7.560  39.144  0.00  0.00    +0.158 HD
BRANCH  13  25
ATOM     25  C   UNL     1      -8.153  -5.935  40.264  0.00  0.00    +0.037 A 
ATOM     29  C   UNL     1      -8.522  -4.765  39.600  0.00  0.00    +0.035 A 
ATOM     30  C   UNL     1      -7.990  -5.930  41.648  0.00  0.00    +0.023 A 
ATOM     31  C   UNL     1      -8.726  -3.589  40.322  0.00  0.00    +0.057 A 
ATOM     33  C   UNL     1      -8.195  -4.754  42.371  0.00  0.00    +0.002 A 
ATOM     34  C   UNL     1      -8.563  -3.583  41.707  0.00  0.00    +0.012 A 
BRANCH  31  35
ATOM      4  F   UNL     1     -10.162  -2.502  38.747  0.00  0.00    -0.166 F 
ATOM      5  F   UNL     1      -9.508  -1.332  40.453  0.00  0.00    -0.166 F 
ATOM      6  F   UNL     1      -8.102  -1.815  38.866  0.00  0.00    -0.166 F 
ATOM     35  C   UNL     1      -9.118  -2.337  39.613  0.00  0.00    +0.417 C 
ENDBRANCH  31  35
ENDBRANCH  13  25
ENDBRANCH   9  21
ENDBRANCH  17   9
TORSDOF 7
ENDMDL
MODEL 9
REMARK VINA RESULT:      -7.5     29.057     33.509
REMARK  Name = 11883387
REMARK  7 active torsions:
REMARK  status: ('A' for Active; 'I' for Inactive)
REMARK    1  A    between atoms: O_9  and  C_17
REMARK    2  A    between atoms: O_9  and  C_21
REMARK    3  A    between atoms: N_12  and  C_16
REMARK    4  A    between atoms: N_13  and  C_25
REMARK    5  A    between atoms: C_20  and  C_22
REMARK    6  A    between atoms: C_28  and  C_32
REMARK    7  A    between atoms: C_31  and  C_35
REMARK                            x       y       z     vdW  Elec       q    Type
REMARK                         _______ _______ _______ _____ _____    ______ ____
ROOT
ATOM      7  O   UNL     1      13.861   9.491  18.762  0.00  0.00    -0.368 OA
ATOM      8  O   UNL     1      11.666   7.716  19.957  0.00  0.00    -0.368 OA
ATOM     14  C   UNL     1      13.041   7.439  19.619  0.00  0.00    +0.173 C 
ATOM     15  C   UNL     1      13.347   8.214  18.353  0.00  0.00    +0.192 C 
ATOM     16  C   UNL     1      13.962   8.050  20.649  0.00  0.00    +0.130 C 
ATOM     17  C   UNL     1      11.986   8.337  17.710  0.00  0.00    +0.235 C 
ATOM     18  C   UNL     1      14.052   9.493  20.186  0.00  0.00    +0.185 C 
ATOM     19  C   UNL     1      11.080   8.502  18.909  0.00  0.00    +0.207 C 
ENDROOT
BRANCH  16  12
ATOM     10  O   UNL     1      16.339   8.972  21.970  0.00  0.00    -0.270 OA
ATOM     12  N   UNL     1      15.256   7.414  20.637  0.00  0.00    -0.304 N 
ATOM     20  C   UNL     1      16.352   7.937  21.310  0.00  0.00    +0.244 C 
ATOM     36  H   UNL     1      15.371   6.612  20.025  0.00  0.00    +0.149 HD
BRANCH  20  22
ATOM     22  C   UNL     1      17.622   7.176  21.177  0.00  0.00    +0.037 A 
ATOM     23  C   UNL     1      17.771   6.241  20.153  0.00  0.00    +0.013 A 
ATOM     24  C   UNL     1      18.665   7.397  22.077  0.00  0.00    +0.013 A 
ATOM     26  C   UNL     1      18.963   5.527  20.029  0.00  0.00    +0.013 A 
ATOM     27  C   UNL     1      19.856   6.682  21.954  0.00  0.00    +0.013 A 
ATOM     28  C   UNL     1      20.005   5.748  20.930  0.00  0.00    +0.055 A 
BRANCH  28  32
ATOM      1  F   UNL     1      22.092   5.080  21.890  0.00  0.00    -0.166 F 
ATOM      2  F   UNL     1      22.051   5.390  19.743  0.00  0.00    -0.166 F 
ATOM      3  F   UNL     1      21.074   3.649  20.607  0.00  0.00    -0.166 F 
ATOM     32  C   UNL     1      21.279   4.985  20.796  0.00  0.00    +0.417 C 
ENDBRANCH  28  32
ENDBRANCH  20  22
ENDBRANCH  16  12
BRANCH  17   9
ATOM      9  O   UNL     1      11.884   9.422  16.815  0.00  0.00    -0.442 OA
BRANCH   9  21
ATOM     11  O   UNL     1      13.187   8.626  15.113  0.00  0.00    -0.226 OA
ATOM     13  N   UNL     1      13.417  10.812  15.917  0.00  0.00    -0.251 N 
ATOM     21  C   UNL     1      12.876   9.542  15.864  0.00  0.00    +0.405 C 
ATOM     37  H   UNL     1      13.023  11.439  16.614  0.00  0.00    +0.158 HD
BRANCH  13  25
ATOM     25  C   UNL     1      14.453  11.351  15.120  0.00  0.00    +0.037 A 
ATOM     29  C   UNL     1      14.182  11.776  13.819  0.00  0.00    +0.035 A 
ATOM     30  C   UNL     1      15.744  11.457  15.634  0.00  0.00    +0.023 A 
ATOM     31  C   UNL     1      15.205  12.306  13.032  0.00  0.00    +0.057 A 
ATOM     33  C   UNL     1      16.767  11.986  14.847  0.00  0.00    +0.002 A 
ATOM     34  C   UNL     1      16.497  12.411  13.546  0.00  0.00    +0.012 A 
BRANCH  31  35
ATOM      4  F   UNL     1      15.865  12.376  10.733  0.00  0.00    -0.166 F 
ATOM      5  F   UNL     1      13.737  12.284  11.145  0.00  0.00    -0.166 F 
ATOM      6  F   UNL     1      14.839  14.117  11.536  0.00  0.00    -0.166 F 
ATOM     35  C   UNL     1      14.918  12.759  11.641  0.00  0.00    +0.417 C 
ENDBRANCH  31  35
ENDBRANCH  13  25
ENDBRANCH   9  21
ENDBRANCH  17   9
TORSDOF 7
ENDMDL
MODEL 10
REMARK VINA RESULT:      -7.4     19.000     22.293
REMARK  Name = 11883387
REMARK  7 active torsions:
REMARK  status: ('A' for Active; 'I' for Inactive)
REMARK    1  A    between atoms: O_9  and  C_17
REMARK    2  A    between atoms: O_9  and  C_21
REMARK    3  A    between atoms: N_12  and  C_16
REMARK    4  A    between atoms: N_13  and  C_25
REMARK    5  A    between atoms: C_20  and  C_22
REMARK    6  A    between atoms: C_28  and  C_32
REMARK    7  A    between atoms: C_31  and  C_35
REMARK                            x       y       z     vdW  Elec       q    Type
REMARK                         _______ _______ _______ _____ _____    ______ ____
ROOT
ATOM      7  O   UNL     1      -9.951  -8.499   8.256  0.00  0.00    -0.368 OA
ATOM      8  O   UNL     1      -8.935  -7.837   5.440  0.00  0.00    -0.368 OA
ATOM     14  C   UNL     1      -8.252  -7.918   6.708  0.00  0.00    +0.173 C 
ATOM     15  C   UNL     1      -9.204  -7.378   7.756  0.00  0.00    +0.192 C 
ATOM     16  C   UNL     1      -8.061  -9.364   7.104  0.00  0.00    +0.130 C 
ATOM     17  C   UNL     1     -10.073  -6.439   6.954  0.00  0.00    +0.235 C 
ATOM     18  C   UNL     1      -9.408  -9.712   7.713  0.00  0.00    +0.185 C 
ATOM     19  C   UNL     1     -10.188  -7.162   5.631  0.00  0.00    +0.207 C 
ENDROOT
BRANCH  16  12
ATOM     10  O   UNL     1      -5.387 -10.273   6.583  0.00  0.00    -0.270 OA
ATOM     12  N   UNL     1      -6.997  -9.507   8.067  0.00  0.00    -0.304 N 
ATOM     20  C   UNL     1      -5.731  -9.956   7.719  0.00  0.00    +0.244 C 
ATOM     36  H   UNL     1      -7.237  -9.367   9.043  0.00  0.00    +0.149 HD
BRANCH  20  22
ATOM     22  C   UNL     1      -4.753 -10.074   8.832  0.00  0.00    +0.037 A 
ATOM     23  C   UNL     1      -4.021  -8.958   9.238  0.00  0.00    +0.013 A 
ATOM     24  C   UNL     1      -4.566 -11.300   9.470  0.00  0.00    +0.013 A 
ATOM     26  C   UNL     1      -3.103  -9.068  10.283  0.00  0.00    +0.013 A 
ATOM     27  C   UNL     1      -3.647 -11.411  10.513  0.00  0.00    +0.013 A 
ATOM     28  C   UNL     1      -2.916 -10.295  10.920  0.00  0.00    +0.055 A 
BRANCH  28  32
ATOM      1  F   UNL     1      -0.856  -9.585  11.907  0.00  0.00    -0.166 F 
ATOM      2  F   UNL     1      -1.408 -11.666  12.173  0.00  0.00    -0.166 F 
ATOM      3  F   UNL     1      -2.483 -10.112  13.250  0.00  0.00    -0.166 F 
ATOM     32  C   UNL     1      -1.935 -10.412  12.037  0.00  0.00    +0.417 C 
ENDBRANCH  28  32
ENDBRANCH  20  22
ENDBRANCH  16  12
BRANCH  17   9
ATOM      9  O   UNL     1     -11.333  -6.201   7.539  0.00  0.00    -0.442 OA
BRANCH   9  21
ATOM     11  O   UNL     1     -10.610  -4.402   8.751  0.00  0.00    -0.226 OA
ATOM     13  N   UNL     1     -12.350  -5.774   9.507  0.00  0.00    -0.251 N 
ATOM     21  C   UNL     1     -11.365  -5.359   8.631  0.00  0.00    +0.405 C 
ATOM     37  H   UNL     1     -12.879  -6.598   9.230  0.00  0.00    +0.158 HD
BRANCH  13  25
ATOM     25  C   UNL     1     -12.715  -5.195  10.743  0.00  0.00    +0.037 A 
ATOM     29  C   UNL     1     -12.452  -5.872  11.935  0.00  0.00    +0.035 A 
ATOM     30  C   UNL     1     -13.337  -3.948  10.773  0.00  0.00    +0.023 A 
ATOM     31  C   UNL     1     -12.814  -5.301  13.155  0.00  0.00    +0.057 A 
ATOM     33  C   UNL     1     -13.699  -3.377  11.993  0.00  0.00    +0.002 A 
ATOM     34  C   UNL     1     -13.437  -4.054  13.184  0.00  0.00    +0.012 A 
BRANCH  31  35
ATOM      4  F   UNL     1     -13.653  -6.266  15.178  0.00  0.00    -0.166 F 
ATOM      5  F   UNL     1     -11.957  -7.249  14.247  0.00  0.00    -0.166 F 
ATOM      6  F   UNL     1     -11.688  -5.338  15.249  0.00  0.00    -0.166 F 
ATOM     35  C   UNL     1     -12.536  -6.024  14.429  0.00  0.00    +0.417 C 
ENDBRANCH  31  35
ENDBRANCH  13  25
ENDBRANCH   9  21
ENDBRANCH  17   9
TORSDOF 7
ENDMDL
