REMARK  Name = 44716297
REMARK  6 active torsions:
REMARK  status: ('A' for Active; 'I' for Inactive)
REMARK    1  A    between atoms: S_2  and  C_22
REMARK    2  A    between atoms: S_2  and  C_25
REMARK    3  A    between atoms: N_5  and  C_17
REMARK    4  A    between atoms: C_11  and  C_17
REMARK    5  A    between atoms: C_12  and  C_18
REMARK    6  A    between atoms: C_21  and  C_22
REMARK                            x       y       z     vdW  Elec       q    Type
REMARK                         _______ _______ _______ _____ _____    ______ ____
ROOT
ATOM      4  N   UNL     1      -0.920   2.486  -0.788  0.00  0.00    -0.297 NA
ATOM     10  C   UNL     1      -1.098   0.975   1.324  0.00  0.00    +0.005 C 
ATOM     11  C   UNL     1       0.386   1.825  -0.517  0.00  0.00    +0.078 C 
ATOM     12  C   UNL     1      -1.949   0.420   0.164  0.00  0.00    +0.092 C 
ATOM     13  C   UNL     1       0.357   1.055   0.824  0.00  0.00    +0.025 C 
ATOM     14  C   UNL     1      -1.533   2.418   1.633  0.00  0.00    +0.020 C 
ATOM     15  C   UNL     1      -1.942   1.428  -1.001  0.00  0.00    +0.097 C 
ATOM     16  C   UNL     1      -1.349   3.288   0.380  0.00  0.00    +0.085 C 
ENDROOT
BRANCH  12  18
ATOM      1  S   UNL     1      -6.080  -1.452  -1.874  0.00  0.00    -0.061 S 
ATOM      3  O   UNL     1      -3.703   0.321   1.761  0.00  0.00    -0.275 OA
ATOM      6  N   UNL     1      -4.096  -0.422  -0.437  0.00  0.00    -0.264 N 
ATOM      9  N   UNL     1      -6.271  -0.812   0.623  0.00  0.00    -0.233 NA
ATOM     18  C   UNL     1      -3.348   0.108   0.607  0.00  0.00    +0.223 C 
ATOM     20  C   UNL     1      -5.448  -0.839  -0.401  0.00  0.00    +0.164 A 
ATOM     23  C   UNL     1      -7.585  -1.709  -1.093  0.00  0.00    +0.068 A 
ATOM     24  C   UNL     1      -7.496  -1.311   0.225  0.00  0.00    +0.120 A 
ATOM     31  H   UNL     1      -3.654  -0.550  -1.343  0.00  0.00    +0.157 HD
ENDBRANCH  12  18
BRANCH  11  17
ATOM     17  C   UNL     1       1.555   2.811  -0.579  0.00  0.00    +0.164 C 
BRANCH  17   5
ATOM      5  N   UNL     1       2.878   2.104  -0.487  0.00  0.00    -0.250 N 
ATOM      7  N   UNL     1       3.748   2.401   0.491  0.00  0.00    -0.065 NA
ATOM      8  N   UNL     1       4.816   1.631   0.317  0.00  0.00    -0.134 NA
ATOM     19  C   UNL     1       3.363   1.137  -1.313  0.00  0.00    +0.134 A 
ATOM     21  C   UNL     1       4.596   0.850  -0.784  0.00  0.00    +0.093 A 
BRANCH  21  22
ATOM     22  C   UNL     1       5.600  -0.117  -1.246  0.00  0.00    +0.133 C 
BRANCH  22   2
ATOM      2  S   UNL     1       6.030  -1.366   0.018  0.00  0.00    -0.119 S 
BRANCH   2  25
ATOM     25  C   UNL     1       4.467  -2.212   0.209  0.00  0.00    +0.008 A 
ATOM     26  C   UNL     1       3.880  -2.848  -0.884  0.00  0.00    +0.015 A 
ATOM     27  C   UNL     1       3.835  -2.235   1.452  0.00  0.00    +0.015 A 
ATOM     28  C   UNL     1       2.660  -3.508  -0.735  0.00  0.00    +0.001 A 
ATOM     29  C   UNL     1       2.615  -2.895   1.602  0.00  0.00    +0.001 A 
ATOM     30  C   UNL     1       2.028  -3.531   0.509  0.00  0.00    +0.000 A 
ENDBRANCH   2  25
ENDBRANCH  22   2
ENDBRANCH  21  22
ENDBRANCH  17   5
ENDBRANCH  11  17
TORSDOF 6
