REMARK  Name = 75536833
REMARK  9 active torsions:
REMARK  status: ('A' for Active; 'I' for Inactive)
REMARK    1  A    between atoms: S_1  and  N_7
REMARK    2  A    between atoms: S_1  and  C_16
REMARK    3  A    between atoms: O_3  and  C_10
REMARK    4  A    between atoms: N_6  and  C_9
REMARK    5  A    between atoms: N_6  and  C_14
REMARK    6  A    between atoms: N_7  and  C_13
REMARK    7  A    between atoms: C_11  and  C_13
REMARK    8  A    between atoms: C_14  and  C_15
REMARK    9  A    between atoms: C_23  and  C_26
REMARK                            x       y       z     vdW  Elec       q    Type
REMARK                         _______ _______ _______ _____ _____    ______ ____
ROOT
ATOM      2  O   UNL     1      -0.167  -1.448   1.371  0.00  0.00    -0.371 OA
ATOM      9  C   UNL     1      -2.115  -1.146   0.046  0.00  0.00    +0.111 C 
ATOM     10  C   UNL     1      -0.894  -0.776  -0.776  0.00  0.00    +0.164 C 
ATOM     11  C   UNL     1       0.204  -1.507  -0.016  0.00  0.00    +0.164 C 
ATOM     12  C   UNL     1      -1.555  -1.084   1.458  0.00  0.00    +0.181 C 
ENDROOT
BRANCH  10   3
ATOM      3  O   UNL     1      -0.988  -1.213  -2.118  0.00  0.00    -0.388 OA
ATOM     29  H   UNL     1      -1.137  -2.174  -2.117  0.00  0.00    +0.210 HD
ENDBRANCH  10   3
BRANCH   9   6
ATOM      6  N   UNL     1      -3.245  -0.254  -0.154  0.00  0.00    -0.305 NA
ATOM     27  H   UNL     1      -3.367  -0.091  -1.153  0.00  0.00    +0.123 HD
BRANCH   6  14
ATOM     14  C   UNL     1      -4.472  -0.833   0.382  0.00  0.00    +0.116 C 
BRANCH  14  15
ATOM      8  N   UNL     1      -7.842   1.786  -0.142  0.00  0.00    -0.263 NA
ATOM     15  C   UNL     1      -5.651   0.084   0.199  0.00  0.00    -0.031 A 
ATOM     17  C   UNL     1      -5.810   1.192   1.024  0.00  0.00    +0.024 A 
ATOM     18  C   UNL     1      -6.588  -0.174  -0.797  0.00  0.00    +0.024 A 
ATOM     24  C   UNL     1      -6.912   2.005   0.814  0.00  0.00    +0.111 A 
ATOM     25  C   UNL     1      -7.655   0.700  -0.925  0.00  0.00    +0.111 A 
ENDBRANCH  14  15
ENDBRANCH   6  14
ENDBRANCH   9   6
BRANCH  11  13
ATOM     13  C   UNL     1       1.578  -0.890  -0.207  0.00  0.00    +0.140 C 
BRANCH  13   7
ATOM      7  N   UNL     1       2.577  -1.658   0.562  0.00  0.00    -0.187 NA
ATOM     28  H   UNL     1       2.405  -1.728   1.573  0.00  0.00    +0.148 HD
BRANCH   7   1
ATOM      1  S   UNL     1       4.181  -1.768   0.005  0.00  0.00    +0.058 S 
ATOM      4  O   UNL     1       4.182  -2.258  -1.361  0.00  0.00    -0.153 OA
ATOM      5  O   UNL     1       4.988  -2.424   1.016  0.00  0.00    -0.153 OA
BRANCH   1  16
ATOM     16  C   UNL     1       4.671  -0.070  -0.025  0.00  0.00    +0.105 A 
ATOM     19  C   UNL     1       5.254   0.507   1.103  0.00  0.00    +0.029 A 
ATOM     20  C   UNL     1       4.472   0.693  -1.176  0.00  0.00    +0.029 A 
ATOM     21  C   UNL     1       5.639   1.847   1.080  0.00  0.00    +0.005 A 
ATOM     22  C   UNL     1       4.857   2.034  -1.198  0.00  0.00    +0.005 A 
ATOM     23  C   UNL     1       5.440   2.611  -0.070  0.00  0.00    -0.050 A 
ATOM     26  C   UNL     1       5.851   4.045  -0.094  0.00  0.00    +0.044 C 
ENDBRANCH   1  16
ENDBRANCH   7   1
ENDBRANCH  13   7
ENDBRANCH  11  13
TORSDOF 8
