REMARK  Name = 11911724
REMARK  10 active torsions:
REMARK  status: ('A' for Active; 'I' for Inactive)
REMARK    1  A    between atoms: N_4  and  C_12
REMARK    2  A    between atoms: N_5  and  C_13
REMARK    3  A    between atoms: N_8  and  C_27
REMARK    4  A    between atoms: N_8  and  C_33
REMARK    5  A    between atoms: N_8  and  C_34
REMARK    6  A    between atoms: N_9  and  C_32
REMARK    7  A    between atoms: N_9  and  C_35
REMARK    8  A    between atoms: N_9  and  C_36
REMARK    9  A    between atoms: C_16  and  C_18
REMARK   10  A    between atoms: C_19  and  C_26
REMARK                            x       y       z     vdW  Elec       q    Type
REMARK                         _______ _______ _______ _____ _____    ______ ____
ROOT
ATOM      1  O   UNL     1      -0.057   1.519   1.887  0.00  0.00    -0.370 OA
ATOM      2  O   UNL     1      -0.782   4.334   0.754  0.00  0.00    -0.370 OA
ATOM     10  C   UNL     1      -1.162   2.997   0.387  0.00  0.00    +0.171 C 
ATOM     11  C   UNL     1       0.054   2.113   0.583  0.00  0.00    +0.171 C 
ATOM     12  C   UNL     1      -2.176   2.451   1.365  0.00  0.00    +0.130 C 
ATOM     13  C   UNL     1       1.220   3.073   0.542  0.00  0.00    +0.130 C 
ATOM     14  C   UNL     1      -1.296   1.926   2.486  0.00  0.00    +0.185 C 
ATOM     15  C   UNL     1       0.614   4.355   1.084  0.00  0.00    +0.185 C 
ENDROOT
BRANCH  13   5
ATOM      5  N   UNL     1       1.656   3.264  -0.824  0.00  0.00    -0.306 N 
ATOM      6  N   UNL     1       3.033   1.366  -0.766  0.00  0.00    -0.214 NA
ATOM      7  N   UNL     1       2.872   2.717  -2.755  0.00  0.00    -0.223 NA
ATOM     17  C   UNL     1       2.547   2.424  -1.467  0.00  0.00    +0.216 A 
ATOM     19  C   UNL     1       3.900   0.567  -1.424  0.00  0.00    +0.076 A 
ATOM     22  C   UNL     1       3.744   1.877  -3.351  0.00  0.00    +0.116 A 
ATOM     23  C   UNL     1       4.295   0.776  -2.729  0.00  0.00    +0.048 A 
ATOM     38  H   UNL     1       1.260   4.019  -1.373  0.00  0.00    +0.149 HD
BRANCH  19  26
ATOM     26  C   UNL     1       4.403  -0.550  -0.661  0.00  0.00    +0.001 A 
ATOM     28  C   UNL     1       3.615  -1.129   0.337  0.00  0.00    +0.012 A 
ATOM     29  C   UNL     1       5.678  -1.058  -0.920  0.00  0.00    +0.012 A 
ATOM     30  C   UNL     1       4.101  -2.210   1.072  0.00  0.00    +0.024 A 
ATOM     31  C   UNL     1       6.163  -2.140  -0.184  0.00  0.00    +0.024 A 
ATOM     32  C   UNL     1       5.375  -2.716   0.812  0.00  0.00    +0.029 A 
BRANCH  32   9
ATOM      9  N   UNL     1       5.866  -3.808   1.556  0.00  0.00    -0.336 N 
ATOM     35  C   UNL     1       6.803  -4.740   0.961  0.00  0.00    +0.129 C 
ATOM     36  C   UNL     1       5.450  -4.006   2.930  0.00  0.00    +0.129 C 
ENDBRANCH  32   9
ENDBRANCH  19  26
ENDBRANCH  13   5
BRANCH  12   4
ATOM      3  O   UNL     1      -4.822   1.636   2.128  0.00  0.00    -0.270 OA
ATOM      4  N   UNL     1      -2.955   1.391   0.773  0.00  0.00    -0.304 N 
ATOM     16  C   UNL     1      -4.232   1.069   1.212  0.00  0.00    +0.244 C 
ATOM     37  H   UNL     1      -2.487   0.805   0.089  0.00  0.00    +0.149 HD
BRANCH  16  18
ATOM     18  C   UNL     1      -4.892  -0.065   0.515  0.00  0.00    +0.037 A 
ATOM     20  C   UNL     1      -5.843  -0.799   1.192  0.00  0.00    +0.015 A 
ATOM     21  C   UNL     1      -4.533  -0.347  -0.787  0.00  0.00    +0.015 A 
ATOM     24  C   UNL     1      -6.464  -1.863   0.537  0.00  0.00    +0.024 A 
ATOM     25  C   UNL     1      -5.154  -1.411  -1.441  0.00  0.00    +0.024 A 
ATOM     27  C   UNL     1      -6.119  -2.169  -0.779  0.00  0.00    +0.029 A 
BRANCH  27   8
ATOM      8  N   UNL     1      -6.748  -3.244  -1.441  0.00  0.00    -0.336 N 
ATOM     33  C   UNL     1      -8.107  -3.619  -1.106  0.00  0.00    +0.129 C 
ATOM     34  C   UNL     1      -6.047  -3.980  -2.475  0.00  0.00    +0.129 C 
ENDBRANCH  27   8
ENDBRANCH  16  18
ENDBRANCH  12   4
TORSDOF 6
