MODEL 1
REMARK VINA RESULT:      -7.6      0.000      0.000
REMARK  Name = 26762930
REMARK  8 active torsions:
REMARK  status: ('A' for Active; 'I' for Inactive)
REMARK    1  A    between atoms: N_6  and  C_11
REMARK    2  A    between atoms: N_8  and  C_30
REMARK    3  A    between atoms: N_8  and  C_31
REMARK    4  A    between atoms: N_8  and  C_32
REMARK    5  A    between atoms: C_10  and  C_15
REMARK    6  A    between atoms: C_15  and  C_17
REMARK    7  A    between atoms: C_17  and  C_18
REMARK    8  A    between atoms: C_19  and  C_25
REMARK                            x       y       z     vdW  Elec       q    Type
REMARK                         _______ _______ _______ _____ _____    ______ ____
ROOT
ATOM      1  O   UNL     1      11.296   5.661  21.566  0.00  0.00    -0.274 OA
ATOM      4  N   UNL     1      12.484   8.786  20.777  0.00  0.00    -0.285 NA
ATOM      5  N   UNL     1      10.507   7.716  22.267  0.00  0.00    -0.313 N 
ATOM      9  C   UNL     1      11.791   7.622  20.228  0.00  0.00    +0.145 C 
ATOM     10  C   UNL     1      11.584   9.780  21.367  0.00  0.00    +0.075 C 
ATOM     11  C   UNL     1      13.939   7.975  19.156  0.00  0.00    +0.089 C 
ATOM     12  C   UNL     1      12.892   6.895  19.464  0.00  0.00    +0.052 C 
ATOM     13  C   UNL     1      13.346   9.274  19.705  0.00  0.00    +0.107 C 
ATOM     14  C   UNL     1      10.312   9.118  21.943  0.00  0.00    +0.123 C 
ATOM     16  C   UNL     1      11.202   6.874  21.410  0.00  0.00    +0.230 C 
ATOM     33  H   UNL     1      10.042   7.322  23.080  0.00  0.00    +0.149 HD
ENDROOT
BRANCH  11   6
ATOM      3  O   UNL     1      15.924   6.141  18.180  0.00  0.00    -0.270 OA
ATOM      6  N   UNL     1      15.208   7.667  19.774  0.00  0.00    -0.307 N 
ATOM     19  C   UNL     1      16.105   6.762  19.224  0.00  0.00    +0.244 C 
ATOM     34  H   UNL     1      15.375   8.059  20.695  0.00  0.00    +0.149 HD
BRANCH  19  25
ATOM     25  C   UNL     1      17.354   6.536  19.996  0.00  0.00    +0.037 A 
ATOM     26  C   UNL     1      18.268   5.569  19.575  0.00  0.00    +0.015 A 
ATOM     27  C   UNL     1      17.612   7.288  21.141  0.00  0.00    +0.015 A 
ATOM     28  C   UNL     1      19.440   5.356  20.299  0.00  0.00    +0.024 A 
ATOM     29  C   UNL     1      18.785   7.074  21.866  0.00  0.00    +0.024 A 
ATOM     30  C   UNL     1      19.698   6.108  21.446  0.00  0.00    +0.029 A 
BRANCH  30   8
ATOM      8  N   UNL     1      20.884   5.892  22.179  0.00  0.00    -0.336 N 
ATOM     31  C   UNL     1      21.898   4.983  21.684  0.00  0.00    +0.129 C 
ATOM     32  C   UNL     1      21.107   6.584  23.433  0.00  0.00    +0.129 C 
ENDBRANCH  30   8
ENDBRANCH  19  25
ENDBRANCH  11   6
BRANCH  10  15
ATOM     15  C   UNL     1      12.338  10.527  22.472  0.00  0.00    +0.029 C 
BRANCH  15  17
ATOM     17  C   UNL     1      12.705  11.946  22.067  0.00  0.00    +0.097 C 
BRANCH  17  18
ATOM      2  O   UNL     1      13.321  12.646  24.246  0.00  0.00    -0.276 OA
ATOM      7  N   UNL     1      11.780  13.977  23.126  0.00  0.00    -0.301 N 
ATOM     18  C   UNL     1      12.636  12.882  23.247  0.00  0.00    +0.216 C 
ATOM     20  C   UNL     1      11.657  14.931  24.229  0.00  0.00    +0.108 C 
ATOM     21  C   UNL     1      10.988  14.309  21.935  0.00  0.00    +0.108 C 
ATOM     22  C   UNL     1      10.196  15.112  24.634  0.00  0.00    +0.019 C 
ATOM     23  C   UNL     1       9.514  14.479  22.295  0.00  0.00    +0.019 C 
ATOM     24  C   UNL     1       9.331  15.484  23.431  0.00  0.00    +0.003 C 
ENDBRANCH  17  18
ENDBRANCH  15  17
ENDBRANCH  10  15
TORSDOF 6
ENDMDL
MODEL 2
REMARK VINA RESULT:      -7.3      3.934      6.045
REMARK  Name = 26762930
REMARK  8 active torsions:
REMARK  status: ('A' for Active; 'I' for Inactive)
REMARK    1  A    between atoms: N_6  and  C_11
REMARK    2  A    between atoms: N_8  and  C_30
REMARK    3  A    between atoms: N_8  and  C_31
REMARK    4  A    between atoms: N_8  and  C_32
REMARK    5  A    between atoms: C_10  and  C_15
REMARK    6  A    between atoms: C_15  and  C_17
REMARK    7  A    between atoms: C_17  and  C_18
REMARK    8  A    between atoms: C_19  and  C_25
REMARK                            x       y       z     vdW  Elec       q    Type
REMARK                         _______ _______ _______ _____ _____    ______ ____
ROOT
ATOM      1  O   UNL     1      14.721   6.582  20.250  0.00  0.00    -0.274 OA
ATOM      4  N   UNL     1      11.717   8.161  19.722  0.00  0.00    -0.285 NA
ATOM      5  N   UNL     1      13.009   6.953  21.758  0.00  0.00    -0.313 N 
ATOM      9  C   UNL     1      12.479   6.955  19.405  0.00  0.00    +0.145 C 
ATOM     10  C   UNL     1      10.918   8.047  20.945  0.00  0.00    +0.075 C 
ATOM     11  C   UNL     1      12.024   8.276  17.421  0.00  0.00    +0.089 C 
ATOM     12  C   UNL     1      12.993   7.232  17.997  0.00  0.00    +0.052 C 
ATOM     13  C   UNL     1      10.971   8.486  18.511  0.00  0.00    +0.107 C 
ATOM     14  C   UNL     1      11.578   7.089  21.962  0.00  0.00    +0.123 C 
ATOM     16  C   UNL     1      13.540   6.821  20.482  0.00  0.00    +0.230 C 
ATOM     33  H   UNL     1      13.622   6.851  22.561  0.00  0.00    +0.149 HD
ENDROOT
BRANCH  11   6
ATOM      3  O   UNL     1      13.691   8.763  15.132  0.00  0.00    -0.270 OA
ATOM      6  N   UNL     1      12.708   9.506  17.098  0.00  0.00    -0.307 N 
ATOM     19  C   UNL     1      13.496   9.646  15.964  0.00  0.00    +0.244 C 
ATOM     34  H   UNL     1      12.682  10.241  17.797  0.00  0.00    +0.149 HD
BRANCH  19  25
ATOM     25  C   UNL     1      14.154  10.966  15.789  0.00  0.00    +0.037 A 
ATOM     26  C   UNL     1      13.918  11.716  14.636  0.00  0.00    +0.015 A 
ATOM     27  C   UNL     1      15.008  11.456  16.776  0.00  0.00    +0.015 A 
ATOM     28  C   UNL     1      14.536  12.954  14.471  0.00  0.00    +0.024 A 
ATOM     29  C   UNL     1      15.626  12.695  16.611  0.00  0.00    +0.024 A 
ATOM     30  C   UNL     1      15.391  13.444  15.459  0.00  0.00    +0.029 A 
BRANCH  30   8
ATOM      8  N   UNL     1      16.016  14.698  15.292  0.00  0.00    -0.336 N 
ATOM     31  C   UNL     1      16.706  15.327  16.399  0.00  0.00    +0.129 C 
ATOM     32  C   UNL     1      15.984  15.368  14.007  0.00  0.00    +0.129 C 
ENDBRANCH  30   8
ENDBRANCH  19  25
ENDBRANCH  11   6
BRANCH  10  15
ATOM     15  C   UNL     1      10.759   9.441  21.558  0.00  0.00    +0.029 C 
BRANCH  15  17
ATOM     17  C   UNL     1      11.862  10.394  21.125  0.00  0.00    +0.097 C 
BRANCH  17  18
ATOM      2  O   UNL     1      13.787   9.944  22.432  0.00  0.00    -0.276 OA
ATOM      7  N   UNL     1      12.509  11.778  23.068  0.00  0.00    -0.301 N 
ATOM     18  C   UNL     1      12.810  10.678  22.263  0.00  0.00    +0.216 C 
ATOM     20  C   UNL     1      13.380  12.118  24.193  0.00  0.00    +0.108 C 
ATOM     21  C   UNL     1      11.380  12.695  22.865  0.00  0.00    +0.108 C 
ATOM     22  C   UNL     1      12.582  12.223  25.490  0.00  0.00    +0.019 C 
ATOM     23  C   UNL     1      10.543  12.812  24.137  0.00  0.00    +0.019 C 
ATOM     24  C   UNL     1      11.407  13.188  25.339  0.00  0.00    +0.003 C 
ENDBRANCH  17  18
ENDBRANCH  15  17
ENDBRANCH  10  15
TORSDOF 6
ENDMDL
MODEL 3
REMARK VINA RESULT:      -7.3      2.403      3.547
REMARK  Name = 26762930
REMARK  8 active torsions:
REMARK  status: ('A' for Active; 'I' for Inactive)
REMARK    1  A    between atoms: N_6  and  C_11
REMARK    2  A    between atoms: N_8  and  C_30
REMARK    3  A    between atoms: N_8  and  C_31
REMARK    4  A    between atoms: N_8  and  C_32
REMARK    5  A    between atoms: C_10  and  C_15
REMARK    6  A    between atoms: C_15  and  C_17
REMARK    7  A    between atoms: C_17  and  C_18
REMARK    8  A    between atoms: C_19  and  C_25
REMARK                            x       y       z     vdW  Elec       q    Type
REMARK                         _______ _______ _______ _____ _____    ______ ____
ROOT
ATOM      1  O   UNL     1      11.694   6.207  21.876  0.00  0.00    -0.274 OA
ATOM      4  N   UNL     1      13.095   8.952  20.361  0.00  0.00    -0.285 NA
ATOM      5  N   UNL     1      11.054   8.422  22.042  0.00  0.00    -0.313 N 
ATOM      9  C   UNL     1      12.320   7.740  20.105  0.00  0.00    +0.145 C 
ATOM     10  C   UNL     1      12.271  10.121  20.677  0.00  0.00    +0.075 C 
ATOM     11  C   UNL     1      14.482   7.668  19.007  0.00  0.00    +0.089 C 
ATOM     12  C   UNL     1      13.362   6.773  19.557  0.00  0.00    +0.052 C 
ATOM     13  C   UNL     1      13.985   9.100  19.213  0.00  0.00    +0.107 C 
ATOM     14  C   UNL     1      10.958   9.711  21.381  0.00  0.00    +0.123 C 
ATOM     16  C   UNL     1      11.685   7.349  21.426  0.00  0.00    +0.230 C 
ATOM     33  H   UNL     1      10.567   8.273  22.920  0.00  0.00    +0.149 HD
ENDROOT
BRANCH  11   6
ATOM      3  O   UNL     1      16.466   5.697  18.349  0.00  0.00    -0.270 OA
ATOM      6  N   UNL     1      15.729   7.434  19.698  0.00  0.00    -0.307 N 
ATOM     19  C   UNL     1      16.627   6.453  19.303  0.00  0.00    +0.244 C 
ATOM     34  H   UNL     1      15.876   7.947  20.561  0.00  0.00    +0.149 HD
BRANCH  19  25
ATOM     25  C   UNL     1      17.851   6.321  20.135  0.00  0.00    +0.037 A 
ATOM     26  C   UNL     1      18.840   5.402  19.779  0.00  0.00    +0.015 A 
ATOM     27  C   UNL     1      18.012   7.113  21.271  0.00  0.00    +0.015 A 
ATOM     28  C   UNL     1      19.988   5.278  20.560  0.00  0.00    +0.024 A 
ATOM     29  C   UNL     1      19.161   6.988  22.052  0.00  0.00    +0.024 A 
ATOM     30  C   UNL     1      20.148   6.070  21.697  0.00  0.00    +0.029 A 
BRANCH  30   8
ATOM      8  N   UNL     1      21.310   5.944  22.487  0.00  0.00    -0.336 N 
ATOM     31  C   UNL     1      21.781   7.058  23.285  0.00  0.00    +0.129 C 
ATOM     32  C   UNL     1      22.044   4.693  22.517  0.00  0.00    +0.129 C 
ENDBRANCH  30   8
ENDBRANCH  19  25
ENDBRANCH  11   6
BRANCH  10  15
ATOM     15  C   UNL     1      13.080  11.062  21.574  0.00  0.00    +0.029 C 
BRANCH  15  17
ATOM     17  C   UNL     1      13.956  10.309  22.564  0.00  0.00    +0.097 C 
BRANCH  17  18
ATOM      2  O   UNL     1      14.636  11.938  24.146  0.00  0.00    -0.276 OA
ATOM      7  N   UNL     1      16.255  11.210  22.647  0.00  0.00    -0.301 N 
ATOM     18  C   UNL     1      14.973  11.227  23.195  0.00  0.00    +0.216 C 
ATOM     20  C   UNL     1      17.298  12.074  23.204  0.00  0.00    +0.108 C 
ATOM     21  C   UNL     1      16.697  10.344  21.546  0.00  0.00    +0.108 C 
ATOM     22  C   UNL     1      17.934  12.933  22.114  0.00  0.00    +0.019 C 
ATOM     23  C   UNL     1      17.324  11.170  20.425  0.00  0.00    +0.019 C 
ATOM     24  C   UNL     1      18.435  12.074  20.955  0.00  0.00    +0.003 C 
ENDBRANCH  17  18
ENDBRANCH  15  17
ENDBRANCH  10  15
TORSDOF 6
ENDMDL
MODEL 4
REMARK VINA RESULT:      -7.0     27.404     30.885
REMARK  Name = 26762930
REMARK  8 active torsions:
REMARK  status: ('A' for Active; 'I' for Inactive)
REMARK    1  A    between atoms: N_6  and  C_11
REMARK    2  A    between atoms: N_8  and  C_30
REMARK    3  A    between atoms: N_8  and  C_31
REMARK    4  A    between atoms: N_8  and  C_32
REMARK    5  A    between atoms: C_10  and  C_15
REMARK    6  A    between atoms: C_15  and  C_17
REMARK    7  A    between atoms: C_17  and  C_18
REMARK    8  A    between atoms: C_19  and  C_25
REMARK                            x       y       z     vdW  Elec       q    Type
REMARK                         _______ _______ _______ _____ _____    ______ ____
ROOT
ATOM      1  O   UNL     1      -7.648 -14.079  16.541  0.00  0.00    -0.274 OA
ATOM      4  N   UNL     1      -6.173 -11.277  17.872  0.00  0.00    -0.285 NA
ATOM      5  N   UNL     1      -5.436 -13.424  16.415  0.00  0.00    -0.313 N 
ATOM      9  C   UNL     1      -6.782 -12.560  18.220  0.00  0.00    +0.145 C 
ATOM     10  C   UNL     1      -4.731 -11.359  17.628  0.00  0.00    +0.075 C 
ATOM     11  C   UNL     1      -8.064 -10.692  19.091  0.00  0.00    +0.089 C 
ATOM     12  C   UNL     1      -8.184 -12.164  18.670  0.00  0.00    +0.052 C 
ATOM     13  C   UNL     1      -6.582 -10.348  18.920  0.00  0.00    +0.107 C 
ATOM     14  C   UNL     1      -4.331 -12.743  17.067  0.00  0.00    +0.123 C 
ATOM     16  C   UNL     1      -6.706 -13.424  16.975  0.00  0.00    +0.230 C 
ATOM     33  H   UNL     1      -5.257 -13.994  15.594  0.00  0.00    +0.149 HD
ENDROOT
BRANCH  11   6
ATOM      3  O   UNL     1     -10.854 -10.143  19.498  0.00  0.00    -0.270 OA
ATOM      6  N   UNL     1      -8.903  -9.843  18.278  0.00  0.00    -0.307 N 
ATOM     19  C   UNL     1     -10.248  -9.639  18.556  0.00  0.00    +0.244 C 
ATOM     34  H   UNL     1      -8.497  -9.483  17.421  0.00  0.00    +0.149 HD
BRANCH  19  25
ATOM     25  C   UNL     1     -10.980  -8.759  17.608  0.00  0.00    +0.037 A 
ATOM     26  C   UNL     1     -10.352  -7.632  17.076  0.00  0.00    +0.015 A 
ATOM     27  C   UNL     1     -12.294  -9.058  17.252  0.00  0.00    +0.015 A 
ATOM     28  C   UNL     1     -11.039  -6.807  16.188  0.00  0.00    +0.024 A 
ATOM     29  C   UNL     1     -12.981  -8.232  16.363  0.00  0.00    +0.024 A 
ATOM     30  C   UNL     1     -12.354  -7.106  15.831  0.00  0.00    +0.029 A 
BRANCH  30   8
ATOM      8  N   UNL     1     -13.049  -6.270  14.932  0.00  0.00    -0.336 N 
ATOM     31  C   UNL     1     -12.331  -5.317  14.111  0.00  0.00    +0.129 C 
ATOM     32  C   UNL     1     -14.491  -6.360  14.813  0.00  0.00    +0.129 C 
ENDBRANCH  30   8
ENDBRANCH  19  25
ENDBRANCH  11   6
BRANCH  10  15
ATOM     15  C   UNL     1      -4.338 -10.256  16.641  0.00  0.00    +0.029 C 
BRANCH  15  17
ATOM     17  C   UNL     1      -4.517 -10.683  15.192  0.00  0.00    +0.097 C 
BRANCH  17  18
ATOM      2  O   UNL     1      -2.149 -10.716  15.119  0.00  0.00    -0.276 OA
ATOM      7  N   UNL     1      -3.249 -10.713  13.072  0.00  0.00    -0.301 N 
ATOM     18  C   UNL     1      -3.196 -10.706  14.466  0.00  0.00    +0.216 C 
ATOM     20  C   UNL     1      -2.009 -10.734  12.295  0.00  0.00    +0.108 C 
ATOM     21  C   UNL     1      -4.478 -10.746  12.269  0.00  0.00    +0.108 C 
ATOM     22  C   UNL     1      -1.978  -9.590  11.285  0.00  0.00    +0.019 C 
ATOM     23  C   UNL     1      -4.495  -9.603  11.257  0.00  0.00    +0.019 C 
ATOM     24  C   UNL     1      -3.227  -9.596  10.405  0.00  0.00    +0.003 C 
ENDBRANCH  17  18
ENDBRANCH  15  17
ENDBRANCH  10  15
TORSDOF 6
ENDMDL
MODEL 5
REMARK VINA RESULT:      -6.9     27.081     30.000
REMARK  Name = 26762930
REMARK  8 active torsions:
REMARK  status: ('A' for Active; 'I' for Inactive)
REMARK    1  A    between atoms: N_6  and  C_11
REMARK    2  A    between atoms: N_8  and  C_30
REMARK    3  A    between atoms: N_8  and  C_31
REMARK    4  A    between atoms: N_8  and  C_32
REMARK    5  A    between atoms: C_10  and  C_15
REMARK    6  A    between atoms: C_15  and  C_17
REMARK    7  A    between atoms: C_17  and  C_18
REMARK    8  A    between atoms: C_19  and  C_25
REMARK                            x       y       z     vdW  Elec       q    Type
REMARK                         _______ _______ _______ _____ _____    ______ ____
ROOT
ATOM      1  O   UNL     1      -6.575 -14.046  16.502  0.00  0.00    -0.274 OA
ATOM      4  N   UNL     1      -5.209 -10.896  16.606  0.00  0.00    -0.285 NA
ATOM      5  N   UNL     1      -4.689 -13.335  17.632  0.00  0.00    -0.313 N 
ATOM      9  C   UNL     1      -6.354 -11.693  17.043  0.00  0.00    +0.145 C 
ATOM     10  C   UNL     1      -4.088 -10.914  17.548  0.00  0.00    +0.075 C 
ATOM     11  C   UNL     1      -7.022  -9.925  15.522  0.00  0.00    +0.089 C 
ATOM     12  C   UNL     1      -7.445 -11.302  16.052  0.00  0.00    +0.052 C 
ATOM     13  C   UNL     1      -5.746  -9.576  16.291  0.00  0.00    +0.107 C 
ATOM     14  C   UNL     1      -4.029 -12.246  18.330  0.00  0.00    +0.123 C 
ATOM     16  C   UNL     1      -5.910 -13.143  17.001  0.00  0.00    +0.230 C 
ATOM     33  H   UNL     1      -4.305 -14.273  17.693  0.00  0.00    +0.149 HD
ENDROOT
BRANCH  11   6
ATOM      3  O   UNL     1      -8.975  -9.511  13.456  0.00  0.00    -0.270 OA
ATOM      6  N   UNL     1      -6.791  -9.959  14.096  0.00  0.00    -0.307 N 
ATOM     19  C   UNL     1      -7.803  -9.746  13.171  0.00  0.00    +0.244 C 
ATOM     34  H   UNL     1      -5.871 -10.258  13.789  0.00  0.00    +0.149 HD
BRANCH  19  25
ATOM     25  C   UNL     1      -7.408  -9.842  11.742  0.00  0.00    +0.037 A 
ATOM     26  C   UNL     1      -6.689  -8.805  11.147  0.00  0.00    +0.015 A 
ATOM     27  C   UNL     1      -7.757 -10.967  10.996  0.00  0.00    +0.015 A 
ATOM     28  C   UNL     1      -6.319  -8.894   9.806  0.00  0.00    +0.024 A 
ATOM     29  C   UNL     1      -7.386 -11.056   9.655  0.00  0.00    +0.024 A 
ATOM     30  C   UNL     1      -6.668 -10.020   9.059  0.00  0.00    +0.029 A 
BRANCH  30   8
ATOM      8  N   UNL     1      -6.293 -10.110   7.702  0.00  0.00    -0.336 N 
ATOM     31  C   UNL     1      -6.940  -9.282   6.705  0.00  0.00    +0.129 C 
ATOM     32  C   UNL     1      -5.249 -11.028   7.289  0.00  0.00    +0.129 C 
ENDBRANCH  30   8
ENDBRANCH  19  25
ENDBRANCH  11   6
BRANCH  10  15
ATOM     15  C   UNL     1      -2.788 -10.703  16.765  0.00  0.00    +0.029 C 
BRANCH  15  17
ATOM     17  C   UNL     1      -2.775 -11.462  15.448  0.00  0.00    +0.097 C 
BRANCH  17  18
ATOM      2  O   UNL     1      -1.387  -9.699  14.685  0.00  0.00    -0.276 OA
ATOM      7  N   UNL     1      -2.303 -11.077  13.053  0.00  0.00    -0.301 N 
ATOM     18  C   UNL     1      -2.090 -10.663  14.368  0.00  0.00    +0.216 C 
ATOM     20  C   UNL     1      -1.674 -10.351  11.949  0.00  0.00    +0.108 C 
ATOM     21  C   UNL     1      -3.096 -12.245  12.649  0.00  0.00    +0.108 C 
ATOM     22  C   UNL     1      -2.712  -9.918  10.918  0.00  0.00    +0.019 C 
ATOM     23  C   UNL     1      -4.162 -11.849  11.629  0.00  0.00    +0.019 C 
ATOM     24  C   UNL     1      -3.549 -11.105  10.444  0.00  0.00    +0.003 C 
ENDBRANCH  17  18
ENDBRANCH  15  17
ENDBRANCH  10  15
TORSDOF 6
ENDMDL
MODEL 6
REMARK VINA RESULT:      -6.7     28.165     31.365
REMARK  Name = 26762930
REMARK  8 active torsions:
REMARK  status: ('A' for Active; 'I' for Inactive)
REMARK    1  A    between atoms: N_6  and  C_11
REMARK    2  A    between atoms: N_8  and  C_30
REMARK    3  A    between atoms: N_8  and  C_31
REMARK    4  A    between atoms: N_8  and  C_32
REMARK    5  A    between atoms: C_10  and  C_15
REMARK    6  A    between atoms: C_15  and  C_17
REMARK    7  A    between atoms: C_17  and  C_18
REMARK    8  A    between atoms: C_19  and  C_25
REMARK                            x       y       z     vdW  Elec       q    Type
REMARK                         _______ _______ _______ _____ _____    ______ ____
ROOT
ATOM      1  O   UNL     1      -7.770 -14.087  16.777  0.00  0.00    -0.274 OA
ATOM      4  N   UNL     1      -6.351 -11.301  18.201  0.00  0.00    -0.285 NA
ATOM      5  N   UNL     1      -5.547 -13.453  16.788  0.00  0.00    -0.313 N 
ATOM      9  C   UNL     1      -6.993 -12.578  18.509  0.00  0.00    +0.145 C 
ATOM     10  C   UNL     1      -4.898 -11.396  18.045  0.00  0.00    +0.075 C 
ATOM     11  C   UNL     1      -8.307 -10.699  19.304  0.00  0.00    +0.089 C 
ATOM     12  C   UNL     1      -8.416 -12.170  18.873  0.00  0.00    +0.052 C 
ATOM     13  C   UNL     1      -6.816 -10.369  19.224  0.00  0.00    +0.107 C 
ATOM     14  C   UNL     1      -4.478 -12.783  17.507  0.00  0.00    +0.123 C 
ATOM     16  C   UNL     1      -6.849 -13.442  17.270  0.00  0.00    +0.230 C 
ATOM     33  H   UNL     1      -5.324 -14.023  15.978  0.00  0.00    +0.149 HD
ENDROOT
BRANCH  11   6
ATOM      3  O   UNL     1     -11.115 -10.136  19.532  0.00  0.00    -0.270 OA
ATOM      6  N   UNL     1      -9.088  -9.842  18.443  0.00  0.00    -0.307 N 
ATOM     19  C   UNL     1     -10.447  -9.630  18.634  0.00  0.00    +0.244 C 
ATOM     34  H   UNL     1      -8.625  -9.480  17.616  0.00  0.00    +0.149 HD
BRANCH  19  25
ATOM     25  C   UNL     1     -11.111  -8.742  17.646  0.00  0.00    +0.037 A 
ATOM     26  C   UNL     1     -10.455  -7.601  17.184  0.00  0.00    +0.015 A 
ATOM     27  C   UNL     1     -12.390  -9.047  17.183  0.00  0.00    +0.015 A 
ATOM     28  C   UNL     1     -11.079  -6.766  16.257  0.00  0.00    +0.024 A 
ATOM     29  C   UNL     1     -13.013  -8.213  16.255  0.00  0.00    +0.024 A 
ATOM     30  C   UNL     1     -12.358  -7.072  15.793  0.00  0.00    +0.029 A 
BRANCH  30   8
ATOM      8  N   UNL     1     -12.989  -6.227  14.856  0.00  0.00    -0.336 N 
ATOM     31  C   UNL     1     -14.428  -6.261  14.688  0.00  0.00    +0.129 C 
ATOM     32  C   UNL     1     -12.206  -5.308  14.053  0.00  0.00    +0.129 C 
ENDBRANCH  30   8
ENDBRANCH  19  25
ENDBRANCH  11   6
BRANCH  10  15
ATOM     15  C   UNL     1      -4.435 -10.296  17.086  0.00  0.00    +0.029 C 
BRANCH  15  17
ATOM     17  C   UNL     1      -5.590  -9.675  16.314  0.00  0.00    +0.097 C 
BRANCH  17  18
ATOM      2  O   UNL     1      -4.588 -10.322  14.267  0.00  0.00    -0.276 OA
ATOM      7  N   UNL     1      -6.901 -10.508  14.392  0.00  0.00    -0.301 N 
ATOM     18  C   UNL     1      -5.639 -10.196  14.900  0.00  0.00    +0.216 C 
ATOM     20  C   UNL     1      -7.031 -11.018  13.026  0.00  0.00    +0.108 C 
ATOM     21  C   UNL     1      -8.163 -10.411  15.136  0.00  0.00    +0.108 C 
ATOM     22  C   UNL     1      -8.023 -10.180  12.223  0.00  0.00    +0.019 C 
ATOM     23  C   UNL     1      -9.178  -9.563  14.373  0.00  0.00    +0.019 C 
ATOM     24  C   UNL     1      -9.365 -10.071  12.945  0.00  0.00    +0.003 C 
ENDBRANCH  17  18
ENDBRANCH  15  17
ENDBRANCH  10  15
TORSDOF 6
ENDMDL
MODEL 7
REMARK VINA RESULT:      -6.7      4.251      6.661
REMARK  Name = 26762930
REMARK  8 active torsions:
REMARK  status: ('A' for Active; 'I' for Inactive)
REMARK    1  A    between atoms: N_6  and  C_11
REMARK    2  A    between atoms: N_8  and  C_30
REMARK    3  A    between atoms: N_8  and  C_31
REMARK    4  A    between atoms: N_8  and  C_32
REMARK    5  A    between atoms: C_10  and  C_15
REMARK    6  A    between atoms: C_15  and  C_17
REMARK    7  A    between atoms: C_17  and  C_18
REMARK    8  A    between atoms: C_19  and  C_25
REMARK                            x       y       z     vdW  Elec       q    Type
REMARK                         _______ _______ _______ _____ _____    ______ ____
ROOT
ATOM      1  O   UNL     1      14.966   6.521  20.383  0.00  0.00    -0.274 OA
ATOM      4  N   UNL     1      12.137   8.212  19.415  0.00  0.00    -0.285 NA
ATOM      5  N   UNL     1      13.072   6.981  21.625  0.00  0.00    -0.313 N 
ATOM      9  C   UNL     1      12.887   6.972  19.220  0.00  0.00    +0.145 C 
ATOM     10  C   UNL     1      11.166   8.146  20.510  0.00  0.00    +0.075 C 
ATOM     11  C   UNL     1      12.777   8.284  17.182  0.00  0.00    +0.089 C 
ATOM     12  C   UNL     1      13.609   7.211  17.899  0.00  0.00    +0.052 C 
ATOM     13  C   UNL     1      11.588   8.551  18.106  0.00  0.00    +0.107 C 
ATOM     14  C   UNL     1      11.633   7.175  21.619  0.00  0.00    +0.123 C 
ATOM     16  C   UNL     1      13.775   6.810  20.440  0.00  0.00    +0.230 C 
ATOM     33  H   UNL     1      13.557   6.865  22.509  0.00  0.00    +0.149 HD
ENDROOT
BRANCH  11   6
ATOM      3  O   UNL     1      12.651   9.993  14.876  0.00  0.00    -0.270 OA
ATOM      6  N   UNL     1      13.551   9.481  16.952  0.00  0.00    -0.307 N 
ATOM     19  C   UNL     1      13.419  10.245  15.801  0.00  0.00    +0.244 C 
ATOM     34  H   UNL     1      14.285   9.688  17.622  0.00  0.00    +0.149 HD
BRANCH  19  25
ATOM     25  C   UNL     1      14.307  11.432  15.704  0.00  0.00    +0.037 A 
ATOM     26  C   UNL     1      14.814  12.020  16.863  0.00  0.00    +0.015 A 
ATOM     27  C   UNL     1      14.633  11.960  14.455  0.00  0.00    +0.015 A 
ATOM     28  C   UNL     1      15.647  13.134  16.773  0.00  0.00    +0.024 A 
ATOM     29  C   UNL     1      15.466  13.075  14.365  0.00  0.00    +0.024 A 
ATOM     30  C   UNL     1      15.973  13.663  15.523  0.00  0.00    +0.029 A 
BRANCH  30   8
ATOM      8  N   UNL     1      16.815  14.790  15.432  0.00  0.00    -0.336 N 
ATOM     31  C   UNL     1      17.118  15.578  16.610  0.00  0.00    +0.129 C 
ATOM     32  C   UNL     1      17.395  15.171  14.159  0.00  0.00    +0.129 C 
ENDBRANCH  30   8
ENDBRANCH  19  25
ENDBRANCH  11   6
BRANCH  10  15
ATOM     15  C   UNL     1      10.978   9.553  21.084  0.00  0.00    +0.029 C 
BRANCH  15  17
ATOM     17  C   UNL     1      12.156  10.466  20.779  0.00  0.00    +0.097 C 
BRANCH  17  18
ATOM      2  O   UNL     1      12.639  10.737  23.083  0.00  0.00    -0.276 OA
ATOM      7  N   UNL     1      14.457  10.395  21.677  0.00  0.00    -0.301 N 
ATOM     18  C   UNL     1      13.098  10.546  21.954  0.00  0.00    +0.216 C 
ATOM     20  C   UNL     1      15.435  10.462  22.764  0.00  0.00    +0.108 C 
ATOM     21  C   UNL     1      15.028  10.122  20.352  0.00  0.00    +0.108 C 
ATOM     22  C   UNL     1      16.517  11.495  22.463  0.00  0.00    +0.019 C 
ATOM     23  C   UNL     1      16.104  11.149  20.004  0.00  0.00    +0.019 C 
ATOM     24  C   UNL     1      17.162  11.239  21.102  0.00  0.00    +0.003 C 
ENDBRANCH  17  18
ENDBRANCH  15  17
ENDBRANCH  10  15
TORSDOF 6
ENDMDL
MODEL 8
REMARK VINA RESULT:      -6.7      4.434      5.752
REMARK  Name = 26762930
REMARK  8 active torsions:
REMARK  status: ('A' for Active; 'I' for Inactive)
REMARK    1  A    between atoms: N_6  and  C_11
REMARK    2  A    between atoms: N_8  and  C_30
REMARK    3  A    between atoms: N_8  and  C_31
REMARK    4  A    between atoms: N_8  and  C_32
REMARK    5  A    between atoms: C_10  and  C_15
REMARK    6  A    between atoms: C_15  and  C_17
REMARK    7  A    between atoms: C_17  and  C_18
REMARK    8  A    between atoms: C_19  and  C_25
REMARK                            x       y       z     vdW  Elec       q    Type
REMARK                         _______ _______ _______ _____ _____    ______ ____
ROOT
ATOM      1  O   UNL     1      15.500   6.290  19.952  0.00  0.00    -0.274 OA
ATOM      4  N   UNL     1      13.154   8.766  19.548  0.00  0.00    -0.285 NA
ATOM      5  N   UNL     1      14.133   7.247  21.550  0.00  0.00    -0.313 N 
ATOM      9  C   UNL     1      13.448   7.367  19.241  0.00  0.00    +0.145 C 
ATOM     10  C   UNL     1      12.461   8.954  20.825  0.00  0.00    +0.075 C 
ATOM     11  C   UNL     1      13.298   8.715  17.228  0.00  0.00    +0.089 C 
ATOM     12  C   UNL     1      13.911   7.423  17.789  0.00  0.00    +0.052 C 
ATOM     13  C   UNL     1      12.463   9.291  18.374  0.00  0.00    +0.107 C 
ATOM     14  C   UNL     1      12.847   7.856  21.843  0.00  0.00    +0.123 C 
ATOM     16  C   UNL     1      14.486   6.914  20.250  0.00  0.00    +0.230 C 
ATOM     33  H   UNL     1      14.739   6.967  22.315  0.00  0.00    +0.149 HD
ENDROOT
BRANCH  11   6
ATOM      3  O   UNL     1      13.287  10.298  14.831  0.00  0.00    -0.270 OA
ATOM      6  N   UNL     1      14.322   9.639  16.800  0.00  0.00    -0.307 N 
ATOM     19  C   UNL     1      14.227  10.362  15.619  0.00  0.00    +0.244 C 
ATOM     34  H   UNL     1      15.178   9.659  17.345  0.00  0.00    +0.149 HD
BRANCH  19  25
ATOM     25  C   UNL     1      15.377  11.250  15.307  0.00  0.00    +0.037 A 
ATOM     26  C   UNL     1      15.805  11.398  13.987  0.00  0.00    +0.015 A 
ATOM     27  C   UNL     1      16.029  11.934  16.333  0.00  0.00    +0.015 A 
ATOM     28  C   UNL     1      16.885  12.230  13.695  0.00  0.00    +0.024 A 
ATOM     29  C   UNL     1      17.109  12.766  16.039  0.00  0.00    +0.024 A 
ATOM     30  C   UNL     1      17.537  12.914  14.721  0.00  0.00    +0.029 A 
BRANCH  30   8
ATOM      8  N   UNL     1      18.629  13.756  14.424  0.00  0.00    -0.336 N 
ATOM     31  C   UNL     1      19.396  13.564  13.210  0.00  0.00    +0.129 C 
ATOM     32  C   UNL     1      18.993  14.830  15.327  0.00  0.00    +0.129 C 
ENDBRANCH  30   8
ENDBRANCH  19  25
ENDBRANCH  11   6
BRANCH  10  15
ATOM     15  C   UNL     1      12.821  10.336  21.378  0.00  0.00    +0.029 C 
BRANCH  15  17
ATOM     17  C   UNL     1      11.853  10.799  22.456  0.00  0.00    +0.097 C 
BRANCH  17  18
ATOM      2  O   UNL     1      11.478  12.655  21.030  0.00  0.00    -0.276 OA
ATOM      7  N   UNL     1      10.733  12.864  23.222  0.00  0.00    -0.301 N 
ATOM     18  C   UNL     1      11.341  12.188  22.164  0.00  0.00    +0.216 C 
ATOM     20  C   UNL     1      10.212  14.217  23.019  0.00  0.00    +0.108 C 
ATOM     21  C   UNL     1      10.516  12.317  24.567  0.00  0.00    +0.108 C 
ATOM     22  C   UNL     1      10.785  15.184  24.051  0.00  0.00    +0.019 C 
ATOM     23  C   UNL     1      11.094  13.249  25.630  0.00  0.00    +0.019 C 
ATOM     24  C   UNL     1      10.561  14.671  25.473  0.00  0.00    +0.003 C 
ENDBRANCH  17  18
ENDBRANCH  15  17
ENDBRANCH  10  15
TORSDOF 6
ENDMDL
MODEL 9
REMARK VINA RESULT:      -6.6     27.353     29.779
REMARK  Name = 26762930
REMARK  8 active torsions:
REMARK  status: ('A' for Active; 'I' for Inactive)
REMARK    1  A    between atoms: N_6  and  C_11
REMARK    2  A    between atoms: N_8  and  C_30
REMARK    3  A    between atoms: N_8  and  C_31
REMARK    4  A    between atoms: N_8  and  C_32
REMARK    5  A    between atoms: C_10  and  C_15
REMARK    6  A    between atoms: C_15  and  C_17
REMARK    7  A    between atoms: C_17  and  C_18
REMARK    8  A    between atoms: C_19  and  C_25
REMARK                            x       y       z     vdW  Elec       q    Type
REMARK                         _______ _______ _______ _____ _____    ______ ____
ROOT
ATOM      1  O   UNL     1      -5.754 -12.984   8.905  0.00  0.00    -0.274 OA
ATOM      4  N   UNL     1      -5.550  -9.610   9.513  0.00  0.00    -0.285 NA
ATOM      5  N   UNL     1      -7.080 -11.290   8.061  0.00  0.00    -0.313 N 
ATOM      9  C   UNL     1      -4.873 -10.726   8.854  0.00  0.00    +0.145 C 
ATOM     10  C   UNL     1      -6.528  -8.931   8.661  0.00  0.00    +0.075 C 
ATOM     11  C   UNL     1      -3.530  -9.797  10.649  0.00  0.00    +0.089 C 
ATOM     12  C   UNL     1      -3.756 -11.076   9.831  0.00  0.00    +0.052 C 
ATOM     13  C   UNL     1      -4.487  -8.765  10.048  0.00  0.00    +0.107 C 
ATOM     14  C   UNL     1      -7.156  -9.904   7.637  0.00  0.00    +0.123 C 
ATOM     16  C   UNL     1      -5.924 -11.799   8.638  0.00  0.00    +0.230 C 
ATOM     33  H   UNL     1      -7.843 -11.923   7.841  0.00  0.00    +0.149 HD
ENDROOT
BRANCH  11   6
ATOM      3  O   UNL     1      -1.710 -10.868  12.596  0.00  0.00    -0.270 OA
ATOM      6  N   UNL     1      -3.798 -10.016  12.051  0.00  0.00    -0.307 N 
ATOM     19  C   UNL     1      -2.849 -10.542  12.918  0.00  0.00    +0.244 C 
ATOM     34  H   UNL     1      -4.753  -9.874  12.363  0.00  0.00    +0.149 HD
BRANCH  19  25
ATOM     25  C   UNL     1      -3.289 -10.732  14.324  0.00  0.00    +0.037 A 
ATOM     26  C   UNL     1      -2.347 -10.753  15.353  0.00  0.00    +0.015 A 
ATOM     27  C   UNL     1      -4.644 -10.889  14.616  0.00  0.00    +0.015 A 
ATOM     28  C   UNL     1      -2.759 -10.932  16.672  0.00  0.00    +0.024 A 
ATOM     29  C   UNL     1      -5.056 -11.068  15.937  0.00  0.00    +0.024 A 
ATOM     30  C   UNL     1      -4.114 -11.090  16.965  0.00  0.00    +0.029 A 
BRANCH  30   8
ATOM      8  N   UNL     1      -4.532 -11.272  18.300  0.00  0.00    -0.336 N 
ATOM     31  C   UNL     1      -3.744 -12.075  19.213  0.00  0.00    +0.129 C 
ATOM     32  C   UNL     1      -5.751 -10.649  18.778  0.00  0.00    +0.129 C 
ENDBRANCH  30   8
ENDBRANCH  19  25
ENDBRANCH  11   6
BRANCH  10  15
ATOM     15  C   UNL     1      -7.618  -8.327   9.552  0.00  0.00    +0.029 C 
BRANCH  15  17
ATOM     17  C   UNL     1      -8.918  -8.089   8.799  0.00  0.00    +0.097 C 
BRANCH  17  18
ATOM      2  O   UNL     1      -8.226  -5.919   8.143  0.00  0.00    -0.276 OA
ATOM      7  N   UNL     1     -10.424  -6.132   8.865  0.00  0.00    -0.301 N 
ATOM     18  C   UNL     1      -9.150  -6.617   8.570  0.00  0.00    +0.216 C 
ATOM     20  C   UNL     1     -10.728  -4.714   8.671  0.00  0.00    +0.108 C 
ATOM     21  C   UNL     1     -11.555  -6.945   9.331  0.00  0.00    +0.108 C 
ATOM     22  C   UNL     1     -11.296  -4.097   9.947  0.00  0.00    +0.019 C 
ATOM     23  C   UNL     1     -12.140  -6.371  10.620  0.00  0.00    +0.019 C 
ATOM     24  C   UNL     1     -12.494  -4.894  10.459  0.00  0.00    +0.003 C 
ENDBRANCH  17  18
ENDBRANCH  15  17
ENDBRANCH  10  15
TORSDOF 6
ENDMDL
MODEL 10
REMARK VINA RESULT:      -6.6     27.830     30.063
REMARK  Name = 26762930
REMARK  8 active torsions:
REMARK  status: ('A' for Active; 'I' for Inactive)
REMARK    1  A    between atoms: N_6  and  C_11
REMARK    2  A    between atoms: N_8  and  C_30
REMARK    3  A    between atoms: N_8  and  C_31
REMARK    4  A    between atoms: N_8  and  C_32
REMARK    5  A    between atoms: C_10  and  C_15
REMARK    6  A    between atoms: C_15  and  C_17
REMARK    7  A    between atoms: C_17  and  C_18
REMARK    8  A    between atoms: C_19  and  C_25
REMARK                            x       y       z     vdW  Elec       q    Type
REMARK                         _______ _______ _______ _____ _____    ______ ____
ROOT
ATOM      1  O   UNL     1      -5.587 -13.331   9.333  0.00  0.00    -0.274 OA
ATOM      4  N   UNL     1      -4.281 -10.248  10.101  0.00  0.00    -0.285 NA
ATOM      5  N   UNL     1      -5.830 -11.341   8.183  0.00  0.00    -0.313 N 
ATOM      9  C   UNL     1      -3.927 -11.591   9.644  0.00  0.00    +0.145 C 
ATOM     10  C   UNL     1      -4.613  -9.326   9.013  0.00  0.00    +0.075 C 
ATOM     11  C   UNL     1      -2.937 -11.089  11.801  0.00  0.00    +0.089 C 
ATOM     12  C   UNL     1      -3.385 -12.253  10.905  0.00  0.00    +0.052 C 
ATOM     13  C   UNL     1      -3.188  -9.828  10.972  0.00  0.00    +0.107 C 
ATOM     14  C   UNL     1      -5.229 -10.073   7.808  0.00  0.00    +0.123 C 
ATOM     16  C   UNL     1      -5.194 -12.198   9.071  0.00  0.00    +0.230 C 
ATOM     33  H   UNL     1      -6.674 -11.653   7.712  0.00  0.00    +0.149 HD
ENDROOT
BRANCH  11   6
ATOM      3  O   UNL     1      -1.962 -10.238  14.366  0.00  0.00    -0.270 OA
ATOM      6  N   UNL     1      -3.677 -11.066  13.041  0.00  0.00    -0.307 N 
ATOM     19  C   UNL     1      -3.116 -10.636  14.236  0.00  0.00    +0.244 C 
ATOM     34  H   UNL     1      -4.601 -11.485  13.031  0.00  0.00    +0.149 HD
BRANCH  19  25
ATOM     25  C   UNL     1      -4.001 -10.699  15.428  0.00  0.00    +0.037 A 
ATOM     26  C   UNL     1      -3.480 -11.085  16.663  0.00  0.00    +0.015 A 
ATOM     27  C   UNL     1      -5.352 -10.373  15.312  0.00  0.00    +0.015 A 
ATOM     28  C   UNL     1      -4.310 -11.145  17.782  0.00  0.00    +0.024 A 
ATOM     29  C   UNL     1      -6.182 -10.432  16.432  0.00  0.00    +0.024 A 
ATOM     30  C   UNL     1      -5.661 -10.819  17.666  0.00  0.00    +0.029 A 
BRANCH  30   8
ATOM      8  N   UNL     1      -6.501 -10.880  18.798  0.00  0.00    -0.336 N 
ATOM     31  C   UNL     1      -7.906 -10.545  18.689  0.00  0.00    +0.129 C 
ATOM     32  C   UNL     1      -5.970 -11.288  20.084  0.00  0.00    +0.129 C 
ENDBRANCH  30   8
ENDBRANCH  19  25
ENDBRANCH  11   6
BRANCH  10  15
ATOM     15  C   UNL     1      -5.595  -8.277   9.543  0.00  0.00    +0.029 C 
BRANCH  15  17
ATOM     17  C   UNL     1      -6.772  -8.059   8.605  0.00  0.00    +0.097 C 
BRANCH  17  18
ATOM      2  O   UNL     1      -8.090  -9.604   9.828  0.00  0.00    -0.276 OA
ATOM      7  N   UNL     1      -9.160  -7.670   9.109  0.00  0.00    -0.301 N 
ATOM     18  C   UNL     1      -8.061  -8.520   9.238  0.00  0.00    +0.216 C 
ATOM     20  C   UNL     1     -10.447  -8.048   9.694  0.00  0.00    +0.108 C 
ATOM     21  C   UNL     1      -9.145  -6.356   8.452  0.00  0.00    +0.108 C 
ATOM     22  C   UNL     1     -11.559  -7.997   8.649  0.00  0.00    +0.019 C 
ATOM     23  C   UNL     1     -10.232  -6.272   7.383  0.00  0.00    +0.019 C 
ATOM     24  C   UNL     1     -11.601  -6.638   7.954  0.00  0.00    +0.003 C 
ENDBRANCH  17  18
ENDBRANCH  15  17
ENDBRANCH  10  15
TORSDOF 6
ENDMDL
