REMARK  Name = 45783621
REMARK  8 active torsions:
REMARK  status: ('A' for Active; 'I' for Inactive)
REMARK    1  A    between atoms: O_4  and  C_30
REMARK    2  A    between atoms: O_4  and  C_31
REMARK    3  A    between atoms: N_5  and  C_11
REMARK    4  A    between atoms: N_10  and  C_28
REMARK    5  A    between atoms: C_12  and  C_20
REMARK    6  A    between atoms: C_21  and  C_22
REMARK    7  A    between atoms: C_23  and  C_24
REMARK    8  A    between atoms: C_29  and  C_30
REMARK                            x       y       z     vdW  Elec       q    Type
REMARK                         _______ _______ _______ _____ _____    ______ ____
ROOT
ATOM      1  O   UNL     1       1.764   2.762   1.586  0.00  0.00    -0.336 OA
ATOM      7  N   UNL     1       0.893   1.570  -0.099  0.00  0.00    -0.190 NA
ATOM      8  N   UNL     1       0.413   2.570   1.902  0.00  0.00    -0.056 NA
ATOM     20  C   UNL     1       1.963   2.142   0.393  0.00  0.00    +0.245 A 
ATOM     23  C   UNL     1      -0.032   1.859   0.862  0.00  0.00    +0.204 A 
ENDROOT
BRANCH  23  24
ATOM      9  N   UNL     1      -3.620   1.346   1.690  0.00  0.00    -0.239 NA
ATOM     24  C   UNL     1      -1.394   1.425   0.750  0.00  0.00    +0.041 A 
ATOM     25  C   UNL     1      -1.824   0.688  -0.348  0.00  0.00    +0.016 A 
ATOM     26  C   UNL     1      -2.323   1.725   1.733  0.00  0.00    +0.124 A 
ATOM     27  C   UNL     1      -3.151   0.280  -0.428  0.00  0.00    +0.044 A 
ATOM     28  C   UNL     1      -4.001   0.631   0.608  0.00  0.00    +0.125 A 
BRANCH  28  10
ATOM      3  O   UNL     1      -5.410  -0.957  -1.525  0.00  0.00    -0.273 OA
ATOM     10  N   UNL     1      -5.335   0.215   0.517  0.00  0.00    -0.268 N 
ATOM     29  C   UNL     1      -5.938  -0.526  -0.504  0.00  0.00    +0.244 C 
ATOM     32  H   UNL     1      -5.918   0.499   1.301  0.00  0.00    +0.156 HD
BRANCH  29  30
ATOM     30  C   UNL     1      -7.408  -0.768  -0.238  0.00  0.00    +0.255 C 
BRANCH  30   4
ATOM      4  O   UNL     1      -7.947  -1.514  -1.310  0.00  0.00    -0.374 OA
ATOM     31  C   UNL     1      -9.334  -1.781  -1.125  0.00  0.00    +0.194 C 
ENDBRANCH  30   4
ENDBRANCH  29  30
ENDBRANCH  28  10
ENDBRANCH  23  24
BRANCH  20  12
ATOM      5  N   UNL     1       3.676   1.056  -1.049  0.00  0.00    -0.288 NA
ATOM     12  C   UNL     1       3.366   2.204  -0.174  0.00  0.00    +0.146 C 
ATOM     13  C   UNL     1       4.650   1.535  -2.030  0.00  0.00    +0.085 C 
ATOM     14  C   UNL     1       3.594   3.443  -1.060  0.00  0.00    +0.030 C 
ATOM     17  C   UNL     1       4.089   2.895  -2.390  0.00  0.00    +0.017 C 
BRANCH   5  11
ATOM      2  O   UNL     1       3.623  -5.049  -0.318  0.00  0.00    -0.276 OA
ATOM      6  N   UNL     1       3.874  -2.881   0.477  0.00  0.00    -0.302 N 
ATOM     11  C   UNL     1       4.162  -0.111  -0.316  0.00  0.00    +0.060 C 
ATOM     15  C   UNL     1       4.452  -1.261  -1.290  0.00  0.00    +0.038 C 
ATOM     16  C   UNL     1       3.128  -0.543   0.732  0.00  0.00    +0.038 C 
ATOM     18  C   UNL     1       4.870  -2.522  -0.535  0.00  0.00    +0.109 C 
ATOM     19  C   UNL     1       3.572  -1.820   1.446  0.00  0.00    +0.109 C 
ATOM     21  C   UNL     1       3.325  -4.162   0.486  0.00  0.00    +0.212 C 
ATOM     22  C   UNL     1       2.305  -4.452   1.558  0.00  0.00    +0.109 C 
ENDBRANCH   5  11
ENDBRANCH  20  12
TORSDOF 6
