MODEL 1
REMARK VINA RESULT:      -6.3      0.000      0.000
REMARK  Name = 11883073
REMARK  8 active torsions:
REMARK  status: ('A' for Active; 'I' for Inactive)
REMARK    1  A    between atoms: O_2  and  C_16
REMARK    2  A    between atoms: O_3  and  C_21
REMARK    3  A    between atoms: C_11  and  C_19
REMARK    4  A    between atoms: C_13  and  C_21
REMARK    5  A    between atoms: C_13  and  C_22
REMARK    6  A    between atoms: C_14  and  C_24
REMARK    7  A    between atoms: C_24  and  C_25
REMARK    8  A    between atoms: C_31  and  C_32
REMARK                            x       y       z     vdW  Elec       q    Type
REMARK                         _______ _______ _______ _____ _____    ______ ____
ROOT
ATOM      1  S   UNL     1      -5.602 -10.952  12.597  0.00  0.00    -0.057 S 
ATOM      6  O   UNL     1      -8.745  -8.422  10.343  0.00  0.00    -0.266 OA
ATOM      8  N   UNL     1      -7.765  -9.556  12.846  0.00  0.00    -0.229 NA
ATOM     10  N   UNL     1      -6.844  -9.748  10.627  0.00  0.00    -0.258 N 
ATOM     11  C   UNL     1      -7.900 -10.661  16.537  0.00  0.00    -0.019 C 
ATOM     12  C   UNL     1      -6.315 -10.757  16.648  0.00  0.00    +0.011 C 
ATOM     13  C   UNL     1      -5.725 -11.316  18.000  0.00  0.00    +0.021 C 
ATOM     14  C   UNL     1      -8.251  -9.690  15.317  0.00  0.00    +0.054 C 
ATOM     15  C   UNL     1      -8.471 -10.038  17.837  0.00  0.00    +0.010 C 
ATOM     16  C   UNL     1      -6.436 -10.621  19.195  0.00  0.00    +0.123 C 
ATOM     17  C   UNL     1      -5.694 -11.407  15.376  0.00  0.00    +0.049 C 
ATOM     18  C   UNL     1      -7.957 -10.691  19.113  0.00  0.00    +0.032 C 
ATOM     19  C   UNL     1      -8.572 -12.038  16.309  0.00  0.00    +0.012 C 
ATOM     20  C   UNL     1      -7.431 -10.031  14.099  0.00  0.00    +0.058 A 
ATOM     22  C   UNL     1      -4.215 -10.950  18.083  0.00  0.00    +0.016 C 
ATOM     23  C   UNL     1      -6.277 -10.787  14.152  0.00  0.00    +0.015 A 
ATOM     26  C   UNL     1      -6.876  -9.984  11.975  0.00  0.00    +0.165 A 
ATOM     31  C   UNL     1      -7.763  -8.988   9.869  0.00  0.00    +0.285 C 
ATOM     38  H   UNL     1      -6.066 -10.181  10.134  0.00  0.00    +0.157 HD
ENDROOT
BRANCH  31  32
ATOM      7  O   UNL     1      -8.269  -8.126   7.706  0.00  0.00    -0.458 OA
ATOM     32  C   UNL     1      -7.495  -8.948   8.421  0.00  0.00    +0.189 A 
ATOM     33  C   UNL     1      -6.583  -9.614   7.694  0.00  0.00    +0.054 A 
ATOM     34  C   UNL     1      -6.797  -9.172   6.367  0.00  0.00    +0.042 A 
ATOM     35  C   UNL     1      -7.832  -8.268   6.427  0.00  0.00    +0.196 A 
ENDBRANCH  31  32
BRANCH  16   2
ATOM      2  O   UNL     1      -6.017 -11.197  20.432  0.00  0.00    -0.391 OA
ATOM     36  H   UNL     1      -6.721 -11.790  20.741  0.00  0.00    +0.210 HD
ENDBRANCH  16   2
BRANCH  13  21
ATOM     21  C   UNL     1      -5.787 -12.854  18.138  0.00  0.00    +0.165 C 
BRANCH  21   3
ATOM      3  O   UNL     1      -4.526 -13.297  18.589  0.00  0.00    -0.394 OA
ATOM     37  H   UNL     1      -3.999 -12.514  18.827  0.00  0.00    +0.209 HD
ENDBRANCH  21   3
ENDBRANCH  13  21
BRANCH  14  24
ATOM     24  C   UNL     1      -9.746  -9.602  14.981  0.00  0.00    +0.106 C 
BRANCH  24  25
ATOM      4  O   UNL     1      -9.619  -7.455  15.976  0.00  0.00    -0.276 OA
ATOM      5  O   UNL     1     -13.292  -6.493  12.924  0.00  0.00    -0.377 OA
ATOM      9  N   UNL     1     -11.397  -7.826  14.529  0.00  0.00    -0.297 N 
ATOM     25  C   UNL     1     -10.241  -8.197  15.214  0.00  0.00    +0.216 C 
ATOM     27  C   UNL     1     -12.304  -6.836  15.109  0.00  0.00    +0.136 C 
ATOM     28  C   UNL     1     -11.886  -8.437  13.289  0.00  0.00    +0.136 C 
ATOM     29  C   UNL     1     -12.728  -5.823  14.056  0.00  0.00    +0.179 C 
ATOM     30  C   UNL     1     -12.332  -7.359  12.310  0.00  0.00    +0.179 C 
ENDBRANCH  24  25
ENDBRANCH  14  24
TORSDOF 6
ENDMDL
MODEL 2
REMARK VINA RESULT:      -6.3     18.046     21.523
REMARK  Name = 11883073
REMARK  8 active torsions:
REMARK  status: ('A' for Active; 'I' for Inactive)
REMARK    1  A    between atoms: O_2  and  C_16
REMARK    2  A    between atoms: O_3  and  C_21
REMARK    3  A    between atoms: C_11  and  C_19
REMARK    4  A    between atoms: C_13  and  C_21
REMARK    5  A    between atoms: C_13  and  C_22
REMARK    6  A    between atoms: C_14  and  C_24
REMARK    7  A    between atoms: C_24  and  C_25
REMARK    8  A    between atoms: C_31  and  C_32
REMARK                            x       y       z     vdW  Elec       q    Type
REMARK                         _______ _______ _______ _____ _____    ______ ____
ROOT
ATOM      1  S   UNL     1     -12.870   5.026  22.365  0.00  0.00    -0.057 S 
ATOM      6  O   UNL     1     -16.849   5.185  24.712  0.00  0.00    -0.266 OA
ATOM      8  N   UNL     1     -14.984   6.436  22.849  0.00  0.00    -0.229 NA
ATOM     10  N   UNL     1     -14.814   4.309  23.972  0.00  0.00    -0.258 N 
ATOM     11  C   UNL     1     -13.408   9.276  20.772  0.00  0.00    -0.019 C 
ATOM     12  C   UNL     1     -12.631   8.259  19.826  0.00  0.00    +0.011 C 
ATOM     13  C   UNL     1     -11.645   8.881  18.763  0.00  0.00    +0.021 C 
ATOM     14  C   UNL     1     -14.634   8.494  21.434  0.00  0.00    +0.054 C 
ATOM     15  C   UNL     1     -13.974  10.442  19.922  0.00  0.00    +0.010 C 
ATOM     16  C   UNL     1     -12.353  10.060  18.037  0.00  0.00    +0.123 C 
ATOM     17  C   UNL     1     -12.014   7.083  20.640  0.00  0.00    +0.049 C 
ATOM     18  C   UNL     1     -12.951  11.084  18.995  0.00  0.00    +0.032 C 
ATOM     19  C   UNL     1     -12.511   9.866  21.889  0.00  0.00    +0.012 C 
ATOM     20  C   UNL     1     -14.199   7.153  21.968  0.00  0.00    +0.058 A 
ATOM     22  C   UNL     1     -11.315   7.807  17.689  0.00  0.00    +0.016 C 
ATOM     23  C   UNL     1     -13.028   6.531  21.583  0.00  0.00    +0.015 A 
ATOM     26  C   UNL     1     -14.380   5.302  23.134  0.00  0.00    +0.165 A 
ATOM     31  C   UNL     1     -16.013   4.285  24.719  0.00  0.00    +0.285 C 
ATOM     38  H   UNL     1     -14.186   3.513  24.054  0.00  0.00    +0.157 HD
ENDROOT
BRANCH  31  32
ATOM      7  O   UNL     1     -16.312   1.931  24.936  0.00  0.00    -0.458 OA
ATOM     32  C   UNL     1     -16.191   3.098  25.574  0.00  0.00    +0.189 A 
ATOM     33  C   UNL     1     -16.250   3.001  26.912  0.00  0.00    +0.054 A 
ATOM     34  C   UNL     1     -16.431   1.619  27.159  0.00  0.00    +0.042 A 
ATOM     35  C   UNL     1     -16.462   1.011  25.926  0.00  0.00    +0.196 A 
ENDBRANCH  31  32
BRANCH  16   2
ATOM      2  O   UNL     1     -11.445  10.727  17.160  0.00  0.00    -0.391 OA
ATOM     36  H   UNL     1     -11.113  10.077  16.520  0.00  0.00    +0.210 HD
ENDBRANCH  16   2
BRANCH  13  21
ATOM     21  C   UNL     1     -10.281   9.326  19.337  0.00  0.00    +0.165 C 
BRANCH  21   3
ATOM      3  O   UNL     1      -9.351   9.339  18.277  0.00  0.00    -0.394 OA
ATOM     37  H   UNL     1      -9.190  10.265  18.029  0.00  0.00    +0.209 HD
ENDBRANCH  21   3
ENDBRANCH  13  21
BRANCH  14  24
ATOM     24  C   UNL     1     -15.406   9.296  22.492  0.00  0.00    +0.106 C 
BRANCH  24  25
ATOM      4  O   UNL     1     -17.597   8.557  21.969  0.00  0.00    -0.276 OA
ATOM      5  O   UNL     1     -18.450  13.333  21.540  0.00  0.00    -0.377 OA
ATOM      9  N   UNL     1     -17.175  10.825  21.707  0.00  0.00    -0.297 N 
ATOM     25  C   UNL     1     -16.825   9.516  22.033  0.00  0.00    +0.216 C 
ATOM     27  C   UNL     1     -18.200  11.077  20.694  0.00  0.00    +0.136 C 
ATOM     28  C   UNL     1     -16.512  12.033  22.206  0.00  0.00    +0.136 C 
ATOM     29  C   UNL     1     -19.167  12.151  21.173  0.00  0.00    +0.179 C 
ATOM     30  C   UNL     1     -17.547  13.071  22.619  0.00  0.00    +0.179 C 
ENDBRANCH  24  25
ENDBRANCH  14  24
TORSDOF 6
ENDMDL
MODEL 3
REMARK VINA RESULT:      -6.3     25.009     28.085
REMARK  Name = 11883073
REMARK  8 active torsions:
REMARK  status: ('A' for Active; 'I' for Inactive)
REMARK    1  A    between atoms: O_2  and  C_16
REMARK    2  A    between atoms: O_3  and  C_21
REMARK    3  A    between atoms: C_11  and  C_19
REMARK    4  A    between atoms: C_13  and  C_21
REMARK    5  A    between atoms: C_13  and  C_22
REMARK    6  A    between atoms: C_14  and  C_24
REMARK    7  A    between atoms: C_24  and  C_25
REMARK    8  A    between atoms: C_31  and  C_32
REMARK                            x       y       z     vdW  Elec       q    Type
REMARK                         _______ _______ _______ _____ _____    ______ ____
ROOT
ATOM      1  S   UNL     1      10.125   7.929  -0.242  0.00  0.00    -0.057 S 
ATOM      6  O   UNL     1      12.439   5.383   2.846  0.00  0.00    -0.266 OA
ATOM      8  N   UNL     1      10.250   7.214   2.241  0.00  0.00    -0.229 NA
ATOM     10  N   UNL     1      11.921   6.303   0.763  0.00  0.00    -0.258 N 
ATOM     11  C   UNL     1       7.414   9.723   2.971  0.00  0.00    -0.019 C 
ATOM     12  C   UNL     1       6.773   9.538   1.526  0.00  0.00    +0.011 C 
ATOM     13  C   UNL     1       5.552  10.468   1.161  0.00  0.00    +0.021 C 
ATOM     14  C   UNL     1       8.303   8.432   3.284  0.00  0.00    +0.054 C 
ATOM     15  C   UNL     1       6.286   9.808   4.030  0.00  0.00    +0.010 C 
ATOM     16  C   UNL     1       4.542  10.474   2.343  0.00  0.00    +0.123 C 
ATOM     17  C   UNL     1       7.868   9.479   0.420  0.00  0.00    +0.049 C 
ATOM     18  C   UNL     1       5.188  10.804   3.684  0.00  0.00    +0.032 C 
ATOM     19  C   UNL     1       8.295  10.992   3.081  0.00  0.00    +0.012 C 
ATOM     20  C   UNL     1       9.181   8.080   2.111  0.00  0.00    +0.058 A 
ATOM     22  C   UNL     1       4.815   9.875  -0.073  0.00  0.00    +0.016 C 
ATOM     23  C   UNL     1       8.956   8.546   0.831  0.00  0.00    +0.015 A 
ATOM     26  C   UNL     1      10.826   7.066   1.067  0.00  0.00    +0.165 A 
ATOM     31  C   UNL     1      12.677   5.501   1.646  0.00  0.00    +0.285 C 
ATOM     38  H   UNL     1      12.208   6.335  -0.213  0.00  0.00    +0.157 HD
ENDROOT
BRANCH  31  32
ATOM      7  O   UNL     1      13.939   4.921  -0.290  0.00  0.00    -0.458 OA
ATOM     32  C   UNL     1      13.836   4.824   1.038  0.00  0.00    +0.189 A 
ATOM     33  C   UNL     1      14.821   4.117   1.614  0.00  0.00    +0.054 A 
ATOM     34  C   UNL     1      15.646   3.714   0.537  0.00  0.00    +0.042 A 
ATOM     35  C   UNL     1      15.067   4.229  -0.600  0.00  0.00    +0.196 A 
ENDBRANCH  31  32
BRANCH  16   2
ATOM      2  O   UNL     1       3.488  11.406   2.100  0.00  0.00    -0.391 OA
ATOM     36  H   UNL     1       2.867  10.999   1.475  0.00  0.00    +0.210 HD
ENDBRANCH  16   2
BRANCH  13  21
ATOM     21  C   UNL     1       5.940  11.908   0.760  0.00  0.00    +0.165 C 
BRANCH  21   3
ATOM      3  O   UNL     1       5.059  12.324  -0.260  0.00  0.00    -0.394 OA
ATOM     37  H   UNL     1       4.343  12.838   0.152  0.00  0.00    +0.209 HD
ENDBRANCH  21   3
ENDBRANCH  13  21
BRANCH  14  24
ATOM     24  C   UNL     1       9.112   8.515   4.586  0.00  0.00    +0.106 C 
BRANCH  24  25
ATOM      4  O   UNL     1       7.831   6.616   5.199  0.00  0.00    -0.276 OA
ATOM      5  O   UNL     1      11.521   5.884   8.293  0.00  0.00    -0.377 OA
ATOM      9  N   UNL     1       9.703   7.070   6.496  0.00  0.00    -0.297 N 
ATOM     25  C   UNL     1       8.816   7.314   5.450  0.00  0.00    +0.216 C 
ATOM     27  C   UNL     1       9.230   6.420   7.719  0.00  0.00    +0.136 C 
ATOM     28  C   UNL     1      11.096   7.523   6.556  0.00  0.00    +0.136 C 
ATOM     29  C   UNL     1      10.206   5.337   8.155  0.00  0.00    +0.179 C 
ATOM     30  C   UNL     1      11.997   6.397   7.045  0.00  0.00    +0.179 C 
ENDBRANCH  24  25
ENDBRANCH  14  24
TORSDOF 6
ENDMDL
MODEL 4
REMARK VINA RESULT:      -6.2     24.134     28.338
REMARK  Name = 11883073
REMARK  8 active torsions:
REMARK  status: ('A' for Active; 'I' for Inactive)
REMARK    1  A    between atoms: O_2  and  C_16
REMARK    2  A    between atoms: O_3  and  C_21
REMARK    3  A    between atoms: C_11  and  C_19
REMARK    4  A    between atoms: C_13  and  C_21
REMARK    5  A    between atoms: C_13  and  C_22
REMARK    6  A    between atoms: C_14  and  C_24
REMARK    7  A    between atoms: C_24  and  C_25
REMARK    8  A    between atoms: C_31  and  C_32
REMARK                            x       y       z     vdW  Elec       q    Type
REMARK                         _______ _______ _______ _____ _____    ______ ____
ROOT
ATOM      1  S   UNL     1      11.321   3.672   2.498  0.00  0.00    -0.057 S 
ATOM      6  O   UNL     1       9.110   6.894   4.967  0.00  0.00    -0.266 OA
ATOM      8  N   UNL     1      10.076   5.936   2.386  0.00  0.00    -0.229 NA
ATOM     10  N   UNL     1      10.285   4.917   4.560  0.00  0.00    -0.258 N 
ATOM     11  C   UNL     1      11.048   6.139  -1.340  0.00  0.00    -0.019 C 
ATOM     12  C   UNL     1      11.026   4.557  -1.512  0.00  0.00    +0.011 C 
ATOM     13  C   UNL     1      11.490   3.982  -2.906  0.00  0.00    +0.021 C 
ATOM     14  C   UNL     1      10.152   6.509  -0.069  0.00  0.00    +0.054 C 
ATOM     15  C   UNL     1      10.420   6.804  -2.591  0.00  0.00    +0.010 C 
ATOM     16  C   UNL     1      10.803   4.787  -4.046  0.00  0.00    +0.123 C 
ATOM     17  C   UNL     1      11.677   3.842  -0.292  0.00  0.00    +0.049 C 
ATOM     18  C   UNL     1      10.985   6.295  -3.910  0.00  0.00    +0.032 C 
ATOM     19  C   UNL     1      12.477   6.703  -1.142  0.00  0.00    +0.012 C 
ATOM     20  C   UNL     1      10.479   5.619   1.103  0.00  0.00    +0.058 A 
ATOM     22  C   UNL     1      11.013   2.507  -3.030  0.00  0.00    +0.016 C 
ATOM     23  C   UNL     1      11.147   4.418   0.978  0.00  0.00    +0.015 A 
ATOM     26  C   UNL     1      10.472   4.985   3.205  0.00  0.00    +0.165 A 
ATOM     31  C   UNL     1       9.622   5.856   5.381  0.00  0.00    +0.285 C 
ATOM     38  H   UNL     1      10.679   4.092   5.006  0.00  0.00    +0.157 HD
ENDROOT
BRANCH  31  32
ATOM      7  O   UNL     1       9.800   4.250   7.132  0.00  0.00    -0.458 OA
ATOM     32  C   UNL     1       9.617   5.535   6.819  0.00  0.00    +0.189 A 
ATOM     33  C   UNL     1       9.457   6.341   7.881  0.00  0.00    +0.054 A 
ATOM     34  C   UNL     1       9.546   5.477   8.998  0.00  0.00    +0.042 A 
ATOM     35  C   UNL     1       9.754   4.215   8.490  0.00  0.00    +0.196 A 
ENDBRANCH  31  32
BRANCH  16   2
ATOM      2  O   UNL     1      11.301   4.378  -5.320  0.00  0.00    -0.391 OA
ATOM     36  H   UNL     1      11.636   5.166  -5.778  0.00  0.00    +0.210 HD
ENDBRANCH  16   2
BRANCH  13  21
ATOM     21  C   UNL     1      13.021   3.942  -3.104  0.00  0.00    +0.165 C 
BRANCH  21   3
ATOM      3  O   UNL     1      13.320   2.836  -3.927  0.00  0.00    -0.394 OA
ATOM     37  H   UNL     1      13.717   3.171  -4.750  0.00  0.00    +0.209 HD
ENDBRANCH  21   3
ENDBRANCH  13  21
BRANCH  14  24
ATOM     24  C   UNL     1      10.185   7.992   0.325  0.00  0.00    +0.106 C 
BRANCH  24  25
ATOM      4  O   UNL     1       8.268   8.396  -1.010  0.00  0.00    -0.276 OA
ATOM      5  O   UNL     1       6.681  10.626   3.019  0.00  0.00    -0.377 OA
ATOM      9  N   UNL     1       8.327   9.436   1.065  0.00  0.00    -0.297 N 
ATOM     25  C   UNL     1       8.841   8.623   0.058  0.00  0.00    +0.216 C 
ATOM     27  C   UNL     1       7.450  10.557   0.723  0.00  0.00    +0.136 C 
ATOM     28  C   UNL     1       8.682   9.361   2.485  0.00  0.00    +0.136 C 
ATOM     29  C   UNL     1       6.248  10.593   1.656  0.00  0.00    +0.179 C 
ATOM     30  C   UNL     1       7.430   9.452   3.348  0.00  0.00    +0.179 C 
ENDBRANCH  24  25
ENDBRANCH  14  24
TORSDOF 6
ENDMDL
MODEL 5
REMARK VINA RESULT:      -6.2     22.789     25.056
REMARK  Name = 11883073
REMARK  8 active torsions:
REMARK  status: ('A' for Active; 'I' for Inactive)
REMARK    1  A    between atoms: O_2  and  C_16
REMARK    2  A    between atoms: O_3  and  C_21
REMARK    3  A    between atoms: C_11  and  C_19
REMARK    4  A    between atoms: C_13  and  C_21
REMARK    5  A    between atoms: C_13  and  C_22
REMARK    6  A    between atoms: C_14  and  C_24
REMARK    7  A    between atoms: C_24  and  C_25
REMARK    8  A    between atoms: C_31  and  C_32
REMARK                            x       y       z     vdW  Elec       q    Type
REMARK                         _______ _______ _______ _____ _____    ______ ____
ROOT
ATOM      1  S   UNL     1      -6.387  -7.674  39.358  0.00  0.00    -0.057 S 
ATOM      6  O   UNL     1     -10.564  -5.693  39.317  0.00  0.00    -0.266 OA
ATOM      8  N   UNL     1      -8.899  -8.045  38.861  0.00  0.00    -0.229 NA
ATOM     10  N   UNL     1      -8.253  -5.851  39.621  0.00  0.00    -0.258 N 
ATOM     11  C   UNL     1      -7.984 -11.543  37.520  0.00  0.00    -0.019 C 
ATOM     12  C   UNL     1      -6.752 -11.688  38.517  0.00  0.00    +0.011 C 
ATOM     13  C   UNL     1      -5.844 -12.968  38.350  0.00  0.00    +0.021 C 
ATOM     14  C   UNL     1      -8.986 -10.458  38.131  0.00  0.00    +0.054 C 
ATOM     15  C   UNL     1      -8.732 -12.897  37.421  0.00  0.00    +0.010 C 
ATOM     16  C   UNL     1      -6.750 -14.225  38.221  0.00  0.00    +0.123 C 
ATOM     17  C   UNL     1      -5.948 -10.360  38.627  0.00  0.00    +0.049 C 
ATOM     18  C   UNL     1      -7.821 -14.086  37.145  0.00  0.00    +0.032 C 
ATOM     19  C   UNL     1      -7.558 -11.105  36.097  0.00  0.00    +0.012 C 
ATOM     20  C   UNL     1      -8.242  -9.231  38.592  0.00  0.00    +0.058 A 
ATOM     22  C   UNL     1      -4.983 -13.149  39.633  0.00  0.00    +0.016 C 
ATOM     23  C   UNL     1      -6.882  -9.214  38.826  0.00  0.00    +0.015 A 
ATOM     26  C   UNL     1      -8.020  -7.152  39.264  0.00  0.00    +0.165 A 
ATOM     31  C   UNL     1      -9.495  -5.177  39.636  0.00  0.00    +0.285 C 
ATOM     38  H   UNL     1      -7.425  -5.327  39.898  0.00  0.00    +0.157 HD
ENDROOT
BRANCH  31  32
ATOM      7  O   UNL     1      -8.743  -3.486  41.137  0.00  0.00    -0.458 OA
ATOM     32  C   UNL     1      -9.430  -3.757  40.024  0.00  0.00    +0.189 A 
ATOM     33  C   UNL     1      -9.958  -2.676  39.428  0.00  0.00    +0.054 A 
ATOM     34  C   UNL     1      -9.568  -1.592  40.250  0.00  0.00    +0.042 A 
ATOM     35  C   UNL     1      -8.831  -2.137  41.277  0.00  0.00    +0.196 A 
ENDBRANCH  31  32
BRANCH  16   2
ATOM      2  O   UNL     1      -5.965 -15.383  37.940  0.00  0.00    -0.391 OA
ATOM     36  H   UNL     1      -5.067 -15.090  37.717  0.00  0.00    +0.210 HD
ENDBRANCH  16   2
BRANCH  13  21
ATOM     21  C   UNL     1      -4.837 -12.891  37.182  0.00  0.00    +0.165 C 
BRANCH  21   3
ATOM      3  O   UNL     1      -3.645 -13.518  37.599  0.00  0.00    -0.394 OA
ATOM     37  H   UNL     1      -3.799 -13.903  38.479  0.00  0.00    +0.209 HD
ENDBRANCH  21   3
ENDBRANCH  13  21
BRANCH  14  24
ATOM     24  C   UNL     1     -10.163 -10.090  37.216  0.00  0.00    +0.106 C 
BRANCH  24  25
ATOM      4  O   UNL     1     -11.807  -9.931  38.917  0.00  0.00    -0.276 OA
ATOM      5  O   UNL     1     -14.258 -12.950  35.984  0.00  0.00    -0.377 OA
ATOM      9  N   UNL     1     -12.205 -11.474  37.229  0.00  0.00    -0.297 N 
ATOM     25  C   UNL     1     -11.463 -10.485  37.871  0.00  0.00    +0.216 C 
ATOM     27  C   UNL     1     -13.061 -12.369  38.008  0.00  0.00    +0.136 C 
ATOM     28  C   UNL     1     -12.125 -11.808  35.803  0.00  0.00    +0.136 C 
ATOM     29  C   UNL     1     -14.419 -12.520  37.340  0.00  0.00    +0.179 C 
ATOM     30  C   UNL     1     -13.523 -11.987  35.224  0.00  0.00    +0.179 C 
ENDBRANCH  24  25
ENDBRANCH  14  24
TORSDOF 6
ENDMDL
MODEL 6
REMARK VINA RESULT:      -6.2      4.178      7.899
REMARK  Name = 11883073
REMARK  8 active torsions:
REMARK  status: ('A' for Active; 'I' for Inactive)
REMARK    1  A    between atoms: O_2  and  C_16
REMARK    2  A    between atoms: O_3  and  C_21
REMARK    3  A    between atoms: C_11  and  C_19
REMARK    4  A    between atoms: C_13  and  C_21
REMARK    5  A    between atoms: C_13  and  C_22
REMARK    6  A    between atoms: C_14  and  C_24
REMARK    7  A    between atoms: C_24  and  C_25
REMARK    8  A    between atoms: C_31  and  C_32
REMARK                            x       y       z     vdW  Elec       q    Type
REMARK                         _______ _______ _______ _____ _____    ______ ____
ROOT
ATOM      1  S   UNL     1     -10.256 -11.034  19.515  0.00  0.00    -0.057 S 
ATOM      6  O   UNL     1      -7.037  -9.366  16.649  0.00  0.00    -0.266 OA
ATOM      8  N   UNL     1      -9.827  -9.480  17.493  0.00  0.00    -0.229 NA
ATOM     10  N   UNL     1      -7.914 -10.622  18.412  0.00  0.00    -0.258 N 
ATOM     11  C   UNL     1     -13.643  -8.998  17.218  0.00  0.00    -0.019 C 
ATOM     12  C   UNL     1     -13.857  -9.174  18.785  0.00  0.00    +0.011 C 
ATOM     13  C   UNL     1     -15.345  -9.192  19.307  0.00  0.00    +0.021 C 
ATOM     14  C   UNL     1     -12.122  -8.572  16.973  0.00  0.00    +0.054 C 
ATOM     15  C   UNL     1     -14.558  -7.861  16.696  0.00  0.00    +0.010 C 
ATOM     16  C   UNL     1     -16.131  -8.019  18.654  0.00  0.00    +0.123 C 
ATOM     17  C   UNL     1     -12.979 -10.328  19.353  0.00  0.00    +0.049 C 
ATOM     18  C   UNL     1     -16.011  -7.988  17.134  0.00  0.00    +0.032 C 
ATOM     19  C   UNL     1     -13.950 -10.289  16.420  0.00  0.00    +0.012 C 
ATOM     20  C   UNL     1     -11.180  -9.440  17.768  0.00  0.00    +0.058 A 
ATOM     22  C   UNL     1     -15.347  -8.950  20.843  0.00  0.00    +0.016 C 
ATOM     23  C   UNL     1     -11.583 -10.205  18.844  0.00  0.00    +0.015 A 
ATOM     26  C   UNL     1      -9.242 -10.294  18.345  0.00  0.00    +0.165 A 
ATOM     31  C   UNL     1      -6.874 -10.155  17.577  0.00  0.00    +0.285 C 
ATOM     38  H   UNL     1      -7.671 -11.280  19.150  0.00  0.00    +0.157 HD
ENDROOT
BRANCH  31  32
ATOM      7  O   UNL     1      -5.429 -11.400  19.006  0.00  0.00    -0.458 OA
ATOM     32  C   UNL     1      -5.543 -10.721  17.861  0.00  0.00    +0.189 A 
ATOM     33  C   UNL     1      -4.411 -10.663  17.142  0.00  0.00    +0.054 A 
ATOM     34  C   UNL     1      -3.466 -11.384  17.910  0.00  0.00    +0.042 A 
ATOM     35  C   UNL     1      -4.134 -11.811  19.035  0.00  0.00    +0.196 A 
ENDBRANCH  31  32
BRANCH  16   2
ATOM      2  O   UNL     1     -17.513  -8.084  19.004  0.00  0.00    -0.391 OA
ATOM     36  H   UNL     1     -18.028  -7.743  18.255  0.00  0.00    +0.210 HD
ENDBRANCH  16   2
BRANCH  13  21
ATOM     21  C   UNL     1     -16.081 -10.533  19.097  0.00  0.00    +0.165 C 
BRANCH  21   3
ATOM      3  O   UNL     1     -17.024 -10.674  20.136  0.00  0.00    -0.394 OA
ATOM     37  H   UNL     1     -17.307 -11.605  20.162  0.00  0.00    +0.209 HD
ENDBRANCH  21   3
ENDBRANCH  13  21
BRANCH  14  24
ATOM     24  C   UNL     1     -11.709  -8.502  15.496  0.00  0.00    +0.106 C 
BRANCH  24  25
ATOM      4  O   UNL     1     -10.522  -6.458  15.687  0.00  0.00    -0.276 OA
ATOM      5  O   UNL     1     -13.148  -5.271  11.760  0.00  0.00    -0.377 OA
ATOM      9  N   UNL     1     -12.219  -6.531  14.104  0.00  0.00    -0.297 N 
ATOM     25  C   UNL     1     -11.424  -7.072  15.112  0.00  0.00    +0.216 C 
ATOM     27  C   UNL     1     -12.506  -5.096  14.088  0.00  0.00    +0.136 C 
ATOM     28  C   UNL     1     -12.932  -7.297  13.077  0.00  0.00    +0.136 C 
ATOM     29  C   UNL     1     -12.339  -4.536  12.683  0.00  0.00    +0.179 C 
ATOM     30  C   UNL     1     -12.753  -6.645  11.712  0.00  0.00    +0.179 C 
ENDBRANCH  24  25
ENDBRANCH  14  24
TORSDOF 6
ENDMDL
MODEL 7
REMARK VINA RESULT:      -6.1      2.644      3.883
REMARK  Name = 11883073
REMARK  8 active torsions:
REMARK  status: ('A' for Active; 'I' for Inactive)
REMARK    1  A    between atoms: O_2  and  C_16
REMARK    2  A    between atoms: O_3  and  C_21
REMARK    3  A    between atoms: C_11  and  C_19
REMARK    4  A    between atoms: C_13  and  C_21
REMARK    5  A    between atoms: C_13  and  C_22
REMARK    6  A    between atoms: C_14  and  C_24
REMARK    7  A    between atoms: C_24  and  C_25
REMARK    8  A    between atoms: C_31  and  C_32
REMARK                            x       y       z     vdW  Elec       q    Type
REMARK                         _______ _______ _______ _____ _____    ______ ____
ROOT
ATOM      1  S   UNL     1      -5.014  -9.688  10.142  0.00  0.00    -0.057 S 
ATOM      6  O   UNL     1      -9.475  -8.491   9.969  0.00  0.00    -0.266 OA
ATOM      8  N   UNL     1      -7.192  -9.443  11.516  0.00  0.00    -0.229 NA
ATOM     10  N   UNL     1      -7.311  -8.870   9.178  0.00  0.00    -0.258 N 
ATOM     11  C   UNL     1      -5.340 -11.042  14.495  0.00  0.00    -0.019 C 
ATOM     12  C   UNL     1      -3.936 -10.446  14.043  0.00  0.00    +0.011 C 
ATOM     13  C   UNL     1      -2.670 -10.887  14.876  0.00  0.00    +0.021 C 
ATOM     14  C   UNL     1      -6.490 -10.152  13.832  0.00  0.00    +0.054 C 
ATOM     15  C   UNL     1      -5.473 -10.941  16.036  0.00  0.00    +0.010 C 
ATOM     16  C   UNL     1      -2.988 -10.767  16.393  0.00  0.00    +0.123 C 
ATOM     17  C   UNL     1      -3.741 -10.554  12.502  0.00  0.00    +0.049 C 
ATOM     18  C   UNL     1      -4.271 -11.486  16.797  0.00  0.00    +0.032 C 
ATOM     19  C   UNL     1      -5.529 -12.522  14.077  0.00  0.00    +0.012 C 
ATOM     20  C   UNL     1      -6.212  -9.907  12.371  0.00  0.00    +0.058 A 
ATOM     22  C   UNL     1      -1.498  -9.911  14.571  0.00  0.00    +0.016 C 
ATOM     23  C   UNL     1      -4.966 -10.076  11.800  0.00  0.00    +0.015 A 
ATOM     26  C   UNL     1      -6.677  -9.298  10.313  0.00  0.00    +0.165 A 
ATOM     31  C   UNL     1      -8.664  -8.487   9.046  0.00  0.00    +0.285 C 
ATOM     38  H   UNL     1      -6.724  -8.836   8.346  0.00  0.00    +0.157 HD
ENDROOT
BRANCH  31  32
ATOM      7  O   UNL     1     -10.013  -8.883   7.122  0.00  0.00    -0.458 OA
ATOM     32  C   UNL     1      -9.077  -8.113   7.681  0.00  0.00    +0.189 A 
ATOM     33  C   UNL     1      -8.657  -7.105   6.900  0.00  0.00    +0.054 A 
ATOM     34  C   UNL     1      -9.405  -7.246   5.707  0.00  0.00    +0.042 A 
ATOM     35  C   UNL     1     -10.216  -8.342   5.892  0.00  0.00    +0.196 A 
ENDBRANCH  31  32
BRANCH  16   2
ATOM      2  O   UNL     1      -1.910 -11.280  17.174  0.00  0.00    -0.391 OA
ATOM     36  H   UNL     1      -1.301 -11.745  16.577  0.00  0.00    +0.210 HD
ENDBRANCH  16   2
BRANCH  13  21
ATOM     21  C   UNL     1      -2.136 -12.295  14.533  0.00  0.00    +0.165 C 
BRANCH  21   3
ATOM      3  O   UNL     1      -1.040 -12.140  13.660  0.00  0.00    -0.394 OA
ATOM     37  H   UNL     1      -1.005 -12.918  13.078  0.00  0.00    +0.209 HD
ENDBRANCH  21   3
ENDBRANCH  13  21
BRANCH  14  24
ATOM     24  C   UNL     1      -7.914 -10.682  14.051  0.00  0.00    +0.106 C 
BRANCH  24  25
ATOM      4  O   UNL     1      -9.122  -8.657  14.295  0.00  0.00    -0.276 OA
ATOM      5  O   UNL     1     -10.149 -10.508  18.682  0.00  0.00    -0.377 OA
ATOM      9  N   UNL     1      -8.950  -9.998  16.182  0.00  0.00    -0.297 N 
ATOM     25  C   UNL     1      -8.716  -9.683  14.846  0.00  0.00    +0.216 C 
ATOM     27  C   UNL     1      -9.103  -8.930  17.171  0.00  0.00    +0.136 C 
ATOM     28  C   UNL     1      -8.941 -11.349  16.753  0.00  0.00    +0.136 C 
ATOM     29  C   UNL     1     -10.288  -9.216  18.082  0.00  0.00    +0.179 C 
ATOM     30  C   UNL     1     -10.129 -11.536  17.687  0.00  0.00    +0.179 C 
ENDBRANCH  24  25
ENDBRANCH  14  24
TORSDOF 6
ENDMDL
MODEL 8
REMARK VINA RESULT:      -6.0     21.473     24.426
REMARK  Name = 11883073
REMARK  8 active torsions:
REMARK  status: ('A' for Active; 'I' for Inactive)
REMARK    1  A    between atoms: O_2  and  C_16
REMARK    2  A    between atoms: O_3  and  C_21
REMARK    3  A    between atoms: C_11  and  C_19
REMARK    4  A    between atoms: C_13  and  C_21
REMARK    5  A    between atoms: C_13  and  C_22
REMARK    6  A    between atoms: C_14  and  C_24
REMARK    7  A    between atoms: C_24  and  C_25
REMARK    8  A    between atoms: C_31  and  C_32
REMARK                            x       y       z     vdW  Elec       q    Type
REMARK                         _______ _______ _______ _____ _____    ______ ____
ROOT
ATOM      1  S   UNL     1     -10.485  -9.510  37.930  0.00  0.00    -0.057 S 
ATOM      6  O   UNL     1      -5.909  -9.853  38.486  0.00  0.00    -0.266 OA
ATOM      8  N   UNL     1      -8.392 -10.934  37.400  0.00  0.00    -0.229 NA
ATOM     10  N   UNL     1      -8.045  -8.933  38.699  0.00  0.00    -0.258 N 
ATOM     11  C   UNL     1     -10.739 -13.572  35.850  0.00  0.00    -0.019 C 
ATOM     12  C   UNL     1     -11.797 -12.475  35.392  0.00  0.00    +0.011 C 
ATOM     13  C   UNL     1     -13.139 -13.000  34.751  0.00  0.00    +0.021 C 
ATOM     14  C   UNL     1      -9.329 -12.844  36.046  0.00  0.00    +0.054 C 
ATOM     15  C   UNL     1     -10.586 -14.639  34.737  0.00  0.00    +0.010 C 
ATOM     16  C   UNL     1     -12.809 -14.091  33.693  0.00  0.00    +0.123 C 
ATOM     17  C   UNL     1     -12.009 -11.394  36.493  0.00  0.00    +0.049 C 
ATOM     18  C   UNL     1     -11.910 -15.198  34.232  0.00  0.00    +0.032 C 
ATOM     19  C   UNL     1     -11.139 -14.282  37.168  0.00  0.00    +0.012 C 
ATOM     20  C   UNL     1      -9.481 -11.570  36.836  0.00  0.00    +0.058 A 
ATOM     22  C   UNL     1     -13.836 -11.827  34.004  0.00  0.00    +0.016 C 
ATOM     23  C   UNL     1     -10.690 -10.926  37.008  0.00  0.00    +0.015 A 
ATOM     26  C   UNL     1      -8.803  -9.842  38.009  0.00  0.00    +0.165 A 
ATOM     31  C   UNL     1      -6.649  -8.968  38.910  0.00  0.00    +0.285 C 
ATOM     38  H   UNL     1      -8.567  -8.157  39.101  0.00  0.00    +0.157 HD
ENDROOT
BRANCH  31  32
ATOM      7  O   UNL     1      -7.022  -7.068  40.300  0.00  0.00    -0.458 OA
ATOM     32  C   UNL     1      -6.115  -7.871  39.736  0.00  0.00    +0.189 A 
ATOM     33  C   UNL     1      -4.843  -7.545  40.018  0.00  0.00    +0.054 A 
ATOM     34  C   UNL     1      -4.946  -6.407  40.853  0.00  0.00    +0.042 A 
ATOM     35  C   UNL     1      -6.291  -6.157  40.995  0.00  0.00    +0.196 A 
ENDBRANCH  31  32
BRANCH  16   2
ATOM      2  O   UNL     1     -14.007 -14.678  33.186  0.00  0.00    -0.391 OA
ATOM     36  H   UNL     1     -14.228 -14.236  32.350  0.00  0.00    +0.210 HD
ENDBRANCH  16   2
BRANCH  13  21
ATOM     21  C   UNL     1     -14.177 -13.517  35.771  0.00  0.00    +0.165 C 
BRANCH  21   3
ATOM      3  O   UNL     1     -15.242 -12.593  35.808  0.00  0.00    -0.394 OA
ATOM     37  H   UNL     1     -15.250 -12.178  36.688  0.00  0.00    +0.209 HD
ENDBRANCH  21   3
ENDBRANCH  13  21
BRANCH  14  24
ATOM     24  C   UNL     1      -8.225 -13.738  36.630  0.00  0.00    +0.106 C 
BRANCH  24  25
ATOM      4  O   UNL     1      -7.138 -13.473  34.540  0.00  0.00    -0.276 OA
ATOM      5  O   UNL     1      -3.125 -13.617  37.297  0.00  0.00    -0.377 OA
ATOM      9  N   UNL     1      -5.776 -13.880  36.376  0.00  0.00    -0.297 N 
ATOM     25  C   UNL     1      -7.004 -13.685  35.747  0.00  0.00    +0.216 C 
ATOM     27  C   UNL     1      -4.664 -14.482  35.639  0.00  0.00    +0.136 C 
ATOM     28  C   UNL     1      -5.500 -13.647  37.797  0.00  0.00    +0.136 C 
ATOM     29  C   UNL     1      -3.379 -13.708  35.892  0.00  0.00    +0.179 C 
ATOM     30  C   UNL     1      -4.176 -12.912  37.964  0.00  0.00    +0.179 C 
ENDBRANCH  24  25
ENDBRANCH  14  24
TORSDOF 6
ENDMDL
MODEL 9
REMARK VINA RESULT:      -6.0      4.464      8.490
REMARK  Name = 11883073
REMARK  8 active torsions:
REMARK  status: ('A' for Active; 'I' for Inactive)
REMARK    1  A    between atoms: O_2  and  C_16
REMARK    2  A    between atoms: O_3  and  C_21
REMARK    3  A    between atoms: C_11  and  C_19
REMARK    4  A    between atoms: C_13  and  C_21
REMARK    5  A    between atoms: C_13  and  C_22
REMARK    6  A    between atoms: C_14  and  C_24
REMARK    7  A    between atoms: C_24  and  C_25
REMARK    8  A    between atoms: C_31  and  C_32
REMARK                            x       y       z     vdW  Elec       q    Type
REMARK                         _______ _______ _______ _____ _____    ______ ____
ROOT
ATOM      1  S   UNL     1      -9.675 -13.110  20.752  0.00  0.00    -0.057 S 
ATOM      6  O   UNL     1     -13.577 -10.699  20.178  0.00  0.00    -0.266 OA
ATOM      8  N   UNL     1     -10.888 -11.370  19.270  0.00  0.00    -0.229 NA
ATOM     10  N   UNL     1     -12.099 -12.204  21.179  0.00  0.00    -0.258 N 
ATOM     11  C   UNL     1      -7.610 -10.975  17.278  0.00  0.00    -0.019 C 
ATOM     12  C   UNL     1      -7.178 -12.484  17.539  0.00  0.00    +0.011 C 
ATOM     13  C   UNL     1      -5.751 -12.919  17.024  0.00  0.00    +0.021 C 
ATOM     14  C   UNL     1      -9.194 -10.876  17.468  0.00  0.00    +0.054 C 
ATOM     15  C   UNL     1      -7.267 -10.584  15.818  0.00  0.00    +0.010 C 
ATOM     16  C   UNL     1      -5.556 -12.412  15.567  0.00  0.00    +0.123 C 
ATOM     17  C   UNL     1      -7.473 -12.916  19.005  0.00  0.00    +0.049 C 
ATOM     18  C   UNL     1      -5.841 -10.922  15.406  0.00  0.00    +0.032 C 
ATOM     19  C   UNL     1      -6.914  -9.976  18.236  0.00  0.00    +0.012 C 
ATOM     20  C   UNL     1      -9.635 -11.578  18.726  0.00  0.00    +0.058 A 
ATOM     22  C   UNL     1      -5.679 -14.472  16.985  0.00  0.00    +0.016 C 
ATOM     23  C   UNL     1      -8.854 -12.504  19.389  0.00  0.00    +0.015 A 
ATOM     26  C   UNL     1     -11.017 -12.119  20.344  0.00  0.00    +0.165 A 
ATOM     31  C   UNL     1     -13.321 -11.504  21.070  0.00  0.00    +0.285 C 
ATOM     38  H   UNL     1     -11.987 -12.845  21.962  0.00  0.00    +0.157 HD
ENDROOT
BRANCH  31  32
ATOM      7  O   UNL     1     -13.780 -12.230  23.293  0.00  0.00    -0.458 OA
ATOM     32  C   UNL     1     -14.290 -11.768  22.149  0.00  0.00    +0.189 A 
ATOM     33  C   UNL     1     -15.624 -11.614  22.165  0.00  0.00    +0.054 A 
ATOM     34  C   UNL     1     -16.012 -12.024  23.463  0.00  0.00    +0.042 A 
ATOM     35  C   UNL     1     -14.854 -12.389  24.111  0.00  0.00    +0.196 A 
ENDBRANCH  31  32
BRANCH  16   2
ATOM      2  O   UNL     1      -4.228 -12.676  15.116  0.00  0.00    -0.391 OA
ATOM     36  H   UNL     1      -3.789 -13.227  15.784  0.00  0.00    +0.210 HD
ENDBRANCH  16   2
BRANCH  13  21
ATOM     21  C   UNL     1      -4.580 -12.471  17.926  0.00  0.00    +0.165 C 
BRANCH  21   3
ATOM      3  O   UNL     1      -4.085 -13.614  18.587  0.00  0.00    -0.394 OA
ATOM     37  H   UNL     1      -3.666 -13.324  19.416  0.00  0.00    +0.209 HD
ENDBRANCH  21   3
ENDBRANCH  13  21
BRANCH  14  24
ATOM     24  C   UNL     1      -9.758  -9.450  17.393  0.00  0.00    +0.106 C 
BRANCH  24  25
ATOM      4  O   UNL     1     -11.532 -10.350  16.104  0.00  0.00    -0.276 OA
ATOM      5  O   UNL     1     -11.820  -5.784  14.431  0.00  0.00    -0.377 OA
ATOM      9  N   UNL     1     -10.903  -8.167  15.626  0.00  0.00    -0.297 N 
ATOM     25  C   UNL     1     -10.812  -9.372  16.318  0.00  0.00    +0.216 C 
ATOM     27  C   UNL     1     -11.358  -8.154  14.235  0.00  0.00    +0.136 C 
ATOM     28  C   UNL     1     -10.458  -6.862  16.125  0.00  0.00    +0.136 C 
ATOM     29  C   UNL     1     -12.371  -7.039  14.018  0.00  0.00    +0.179 C 
ATOM     30  C   UNL     1     -11.505  -5.797  15.826  0.00  0.00    +0.179 C 
ENDBRANCH  24  25
ENDBRANCH  14  24
TORSDOF 6
ENDMDL
MODEL 10
REMARK VINA RESULT:      -6.0     26.084     30.073
REMARK  Name = 11883073
REMARK  8 active torsions:
REMARK  status: ('A' for Active; 'I' for Inactive)
REMARK    1  A    between atoms: O_2  and  C_16
REMARK    2  A    between atoms: O_3  and  C_21
REMARK    3  A    between atoms: C_11  and  C_19
REMARK    4  A    between atoms: C_13  and  C_21
REMARK    5  A    between atoms: C_13  and  C_22
REMARK    6  A    between atoms: C_14  and  C_24
REMARK    7  A    between atoms: C_24  and  C_25
REMARK    8  A    between atoms: C_31  and  C_32
REMARK                            x       y       z     vdW  Elec       q    Type
REMARK                         _______ _______ _______ _____ _____    ______ ____
ROOT
ATOM      1  S   UNL     1      10.446   4.432   2.498  0.00  0.00    -0.057 S 
ATOM      6  O   UNL     1      12.145   6.914   6.009  0.00  0.00    -0.266 OA
ATOM      8  N   UNL     1      12.339   6.036   3.233  0.00  0.00    -0.229 NA
ATOM     10  N   UNL     1      10.684   5.473   4.893  0.00  0.00    -0.258 N 
ATOM     11  C   UNL     1      13.998   5.441  -0.196  0.00  0.00    -0.019 C 
ATOM     12  C   UNL     1      12.599   5.220  -0.922  0.00  0.00    +0.011 C 
ATOM     13  C   UNL     1      12.640   4.793  -2.441  0.00  0.00    +0.021 C 
ATOM     14  C   UNL     1      13.732   6.271   1.144  0.00  0.00    +0.054 C 
ATOM     15  C   UNL     1      14.928   6.277  -1.111  0.00  0.00    +0.010 C 
ATOM     16  C   UNL     1      13.650   5.699  -3.200  0.00  0.00    +0.123 C 
ATOM     17  C   UNL     1      11.637   4.356  -0.054  0.00  0.00    +0.049 C 
ATOM     18  C   UNL     1      15.023   5.755  -2.538  0.00  0.00    +0.032 C 
ATOM     19  C   UNL     1      14.710   4.112   0.155  0.00  0.00    +0.012 C 
ATOM     20  C   UNL     1      12.567   5.701   1.912  0.00  0.00    +0.058 A 
ATOM     22  C   UNL     1      11.239   5.032  -3.072  0.00  0.00    +0.016 C 
ATOM     23  C   UNL     1      11.629   4.859   1.350  0.00  0.00    +0.015 A 
ATOM     26  C   UNL     1      11.252   5.419   3.649  0.00  0.00    +0.165 A 
ATOM     31  C   UNL     1      11.141   6.205   6.011  0.00  0.00    +0.285 C 
ATOM     38  H   UNL     1       9.843   4.911   5.005  0.00  0.00    +0.157 HD
ENDROOT
BRANCH  31  32
ATOM      7  O   UNL     1      10.746   5.059   8.063  0.00  0.00    -0.458 OA
ATOM     32  C   UNL     1      10.345   6.031   7.240  0.00  0.00    +0.189 A 
ATOM     33  C   UNL     1       9.266   6.704   7.670  0.00  0.00    +0.054 A 
ATOM     34  C   UNL     1       8.938   6.096   8.905  0.00  0.00    +0.042 A 
ATOM     35  C   UNL     1       9.868   5.101   9.100  0.00  0.00    +0.196 A 
ENDBRANCH  31  32
BRANCH  16   2
ATOM      2  O   UNL     1      13.808   5.256  -4.547  0.00  0.00    -0.391 OA
ATOM     36  H   UNL     1      14.193   4.365  -4.527  0.00  0.00    +0.210 HD
ENDBRANCH  16   2
BRANCH  13  21
ATOM     21  C   UNL     1      12.953   3.299  -2.677  0.00  0.00    +0.165 C 
BRANCH  21   3
ATOM      3  O   UNL     1      12.254   2.890  -3.832  0.00  0.00    -0.394 OA
ATOM     37  H   UNL     1      12.137   3.668  -4.404  0.00  0.00    +0.209 HD
ENDBRANCH  21   3
ENDBRANCH  13  21
BRANCH  14  24
ATOM     24  C   UNL     1      14.964   6.446   2.041  0.00  0.00    +0.106 C 
BRANCH  24  25
ATOM      4  O   UNL     1      14.932   8.729   1.406  0.00  0.00    -0.276 OA
ATOM      5  O   UNL     1      16.275   9.408   6.039  0.00  0.00    -0.377 OA
ATOM      9  N   UNL     1      15.764   8.251   3.520  0.00  0.00    -0.297 N 
ATOM     25  C   UNL     1      15.216   7.913   2.285  0.00  0.00    +0.216 C 
ATOM     27  C   UNL     1      16.621   9.431   3.642  0.00  0.00    +0.136 C 
ATOM     28  C   UNL     1      15.669   7.448   4.743  0.00  0.00    +0.136 C 
ATOM     29  C   UNL     1      16.240  10.239   4.874  0.00  0.00    +0.179 C 
ATOM     30  C   UNL     1      15.332   8.337   5.933  0.00  0.00    +0.179 C 
ENDBRANCH  24  25
ENDBRANCH  14  24
TORSDOF 6
ENDMDL
