MODEL 1
REMARK VINA RESULT:      -7.1      0.000      0.000
REMARK  Name = 11943286
REMARK  5 active torsions:
REMARK  status: ('A' for Active; 'I' for Inactive)
REMARK    1  A    between atoms: N_5  and  C_14
REMARK    2  A    between atoms: C_7  and  C_13
REMARK    3  A    between atoms: C_8  and  C_14
REMARK    4  A    between atoms: C_13  and  C_15
REMARK    5  A    between atoms: C_16  and  C_17
REMARK                            x       y       z     vdW  Elec       q    Type
REMARK                         _______ _______ _______ _____ _____    ______ ____
ROOT
ATOM      3  O   UNL     1      16.240   5.902  18.664  0.00  0.00    -0.270 OA
ATOM      5  N   UNL     1      15.198   6.893  20.457  0.00  0.00    -0.310 N 
ATOM     16  C   UNL     1      16.333   6.459  19.759  0.00  0.00    +0.244 C 
ATOM     23  H   UNL     1      15.293   7.410  21.324  0.00  0.00    +0.149 HD
ENDROOT
BRANCH  16  17
ATOM      1 CL   UNL     1      21.270   5.111  20.456  0.00  0.00    -0.081 Cl
ATOM      2  F   UNL     1      21.256   7.534  22.168  0.00  0.00    -0.204 F 
ATOM     17  C   UNL     1      17.630   6.738  20.391  0.00  0.00    +0.038 A 
ATOM     18  C   UNL     1      18.702   5.891  20.150  0.00  0.00    +0.036 A 
ATOM     19  C   UNL     1      17.762   7.844  21.218  0.00  0.00    +0.016 A 
ATOM     20  C   UNL     1      19.934   6.156  20.750  0.00  0.00    +0.077 A 
ATOM     21  C   UNL     1      18.993   8.109  21.817  0.00  0.00    +0.040 A 
ATOM     22  C   UNL     1      20.079   7.265  21.583  0.00  0.00    +0.142 A 
ENDBRANCH  16  17
BRANCH   5  14
ATOM     14  C   UNL     1      13.871   6.721  19.954  0.00  0.00    +0.123 C 
BRANCH  14   8
ATOM      4  N   UNL     1      11.496   7.378  20.425  0.00  0.00    -0.298 NA
ATOM      6  C   UNL     1      12.149   9.260  22.098  0.00  0.00    -0.004 C 
ATOM      7  C   UNL     1      11.741   9.854  20.731  0.00  0.00    +0.006 C 
ATOM      8  C   UNL     1      12.833   7.094  21.014  0.00  0.00    +0.074 C 
ATOM      9  C   UNL     1      13.310   8.268  21.897  0.00  0.00    +0.024 C 
ATOM     10  C   UNL     1      11.505   8.693  19.739  0.00  0.00    +0.088 C 
ATOM     11  C   UNL     1      10.943   8.451  22.613  0.00  0.00    +0.019 C 
ATOM     12  C   UNL     1      10.512   7.441  21.533  0.00  0.00    +0.085 C 
BRANCH   7  13
ATOM     13  C   UNL     1      12.750  10.863  20.187  0.00  0.00    +0.002 C 
ATOM     15  C   UNL     1      13.184  10.508  18.778  0.00  0.00    +0.004 C 
ENDBRANCH   7  13
ENDBRANCH  14   8
ENDBRANCH   5  14
TORSDOF 4
ENDMDL
MODEL 2
REMARK VINA RESULT:      -6.4     16.008     17.326
REMARK  Name = 11943286
REMARK  5 active torsions:
REMARK  status: ('A' for Active; 'I' for Inactive)
REMARK    1  A    between atoms: N_5  and  C_14
REMARK    2  A    between atoms: C_7  and  C_13
REMARK    3  A    between atoms: C_8  and  C_14
REMARK    4  A    between atoms: C_13  and  C_15
REMARK    5  A    between atoms: C_16  and  C_17
REMARK                            x       y       z     vdW  Elec       q    Type
REMARK                         _______ _______ _______ _____ _____    ______ ____
ROOT
ATOM      3  O   UNL     1      10.253   5.656   2.241  0.00  0.00    -0.270 OA
ATOM      5  N   UNL     1      11.036   4.684   4.171  0.00  0.00    -0.310 N 
ATOM     16  C   UNL     1      11.173   5.093   2.837  0.00  0.00    +0.244 C 
ATOM     23  H   UNL     1      11.824   4.284   4.670  0.00  0.00    +0.149 HD
ENDROOT
BRANCH  16  17
ATOM      1 CL   UNL     1      15.746   6.940   1.305  0.00  0.00    -0.081 Cl
ATOM      2  F   UNL     1      16.131   4.124   0.457  0.00  0.00    -0.204 F 
ATOM     17  C   UNL     1      12.478   4.843   2.211  0.00  0.00    +0.038 A 
ATOM     18  C   UNL     1      13.380   5.888   2.074  0.00  0.00    +0.036 A 
ATOM     19  C   UNL     1      12.788   3.565   1.769  0.00  0.00    +0.016 A 
ATOM     20  C   UNL     1      14.620   5.650   1.480  0.00  0.00    +0.077 A 
ATOM     21  C   UNL     1      14.028   3.327   1.176  0.00  0.00    +0.040 A 
ATOM     22  C   UNL     1      14.944   4.370   1.032  0.00  0.00    +0.142 A 
ENDBRANCH  16  17
BRANCH   5  14
ATOM     14  C   UNL     1       9.837   4.888   4.922  0.00  0.00    +0.123 C 
BRANCH  14   8
ATOM      4  N   UNL     1      10.951   6.735   6.202  0.00  0.00    -0.298 NA
ATOM      6  C   UNL     1       8.795   7.394   7.498  0.00  0.00    -0.004 C 
ATOM      7  C   UNL     1       9.752   6.580   8.398  0.00  0.00    +0.006 C 
ATOM      8  C   UNL     1       9.748   6.329   5.427  0.00  0.00    +0.074 C 
ATOM      9  C   UNL     1       8.457   6.574   6.240  0.00  0.00    +0.024 C 
ATOM     10  C   UNL     1      10.942   6.094   7.540  0.00  0.00    +0.088 C 
ATOM     11  C   UNL     1       9.569   8.642   7.034  0.00  0.00    +0.019 C 
ATOM     12  C   UNL     1      10.898   8.205   6.393  0.00  0.00    +0.085 C 
BRANCH   7  13
ATOM     13  C   UNL     1       9.065   5.420   9.116  0.00  0.00    +0.002 C 
ATOM     15  C   UNL     1       9.657   4.086   8.705  0.00  0.00    +0.004 C 
ENDBRANCH   7  13
ENDBRANCH  14   8
ENDBRANCH   5  14
TORSDOF 4
ENDMDL
MODEL 3
REMARK VINA RESULT:      -6.4     26.581     28.230
REMARK  Name = 11943286
REMARK  5 active torsions:
REMARK  status: ('A' for Active; 'I' for Inactive)
REMARK    1  A    between atoms: N_5  and  C_14
REMARK    2  A    between atoms: C_7  and  C_13
REMARK    3  A    between atoms: C_8  and  C_14
REMARK    4  A    between atoms: C_13  and  C_15
REMARK    5  A    between atoms: C_16  and  C_17
REMARK                            x       y       z     vdW  Elec       q    Type
REMARK                         _______ _______ _______ _____ _____    ______ ____
ROOT
ATOM      3  O   UNL     1      -5.328 -13.637  14.192  0.00  0.00    -0.270 OA
ATOM      5  N   UNL     1      -4.087 -13.100  16.051  0.00  0.00    -0.310 N 
ATOM     16  C   UNL     1      -4.380 -13.022  14.682  0.00  0.00    +0.244 C 
ATOM     23  H   UNL     1      -3.347 -12.536  16.452  0.00  0.00    +0.149 HD
ENDROOT
BRANCH  16  17
ATOM      1 CL   UNL     1      -0.880  -9.226  14.549  0.00  0.00    -0.081 Cl
ATOM      2  F   UNL     1      -1.097  -9.693  11.628  0.00  0.00    -0.204 F 
ATOM     17  C   UNL     1      -3.515 -12.144  13.883  0.00  0.00    +0.038 A 
ATOM     18  C   UNL     1      -2.708 -11.215  14.523  0.00  0.00    +0.036 A 
ATOM     19  C   UNL     1      -3.519 -12.258  12.500  0.00  0.00    +0.016 A 
ATOM     20  C   UNL     1      -1.886 -10.381  13.764  0.00  0.00    +0.077 A 
ATOM     21  C   UNL     1      -2.698 -11.425  11.741  0.00  0.00    +0.040 A 
ATOM     22  C   UNL     1      -1.880 -10.487  12.373  0.00  0.00    +0.142 A 
ENDBRANCH  16  17
BRANCH   5  14
ATOM     14  C   UNL     1      -4.859 -13.889  16.961  0.00  0.00    +0.123 C 
BRANCH  14   8
ATOM      4  N   UNL     1      -6.745 -12.737  18.148  0.00  0.00    -0.298 NA
ATOM      6  C   UNL     1      -5.366 -10.591  18.655  0.00  0.00    -0.004 C 
ATOM      7  C   UNL     1      -6.342 -10.355  17.480  0.00  0.00    +0.006 C 
ATOM      8  C   UNL     1      -5.292 -13.059  18.171  0.00  0.00    +0.074 C 
ATOM      9  C   UNL     1      -4.443 -11.777  18.321  0.00  0.00    +0.024 C 
ATOM     10  C   UNL     1      -7.026 -11.696  17.130  0.00  0.00    +0.088 C 
ATOM     11  C   UNL     1      -6.219 -11.004  19.869  0.00  0.00    +0.019 C 
ATOM     12  C   UNL     1      -7.113 -12.195  19.478  0.00  0.00    +0.085 C 
BRANCH   7  13
ATOM     13  C   UNL     1      -5.674  -9.728  16.258  0.00  0.00    +0.002 C 
ATOM     15  C   UNL     1      -6.441 -10.038  14.987  0.00  0.00    +0.004 C 
ENDBRANCH   7  13
ENDBRANCH  14   8
ENDBRANCH   5  14
TORSDOF 4
ENDMDL
MODEL 4
REMARK VINA RESULT:      -6.3      1.807      2.613
REMARK  Name = 11943286
REMARK  5 active torsions:
REMARK  status: ('A' for Active; 'I' for Inactive)
REMARK    1  A    between atoms: N_5  and  C_14
REMARK    2  A    between atoms: C_7  and  C_13
REMARK    3  A    between atoms: C_8  and  C_14
REMARK    4  A    between atoms: C_13  and  C_15
REMARK    5  A    between atoms: C_16  and  C_17
REMARK                            x       y       z     vdW  Elec       q    Type
REMARK                         _______ _______ _______ _____ _____    ______ ____
ROOT
ATOM      3  O   UNL     1      16.924   8.984  21.643  0.00  0.00    -0.270 OA
ATOM      5  N   UNL     1      15.644   7.079  21.767  0.00  0.00    -0.310 N 
ATOM     16  C   UNL     1      16.847   7.759  21.535  0.00  0.00    +0.244 C 
ATOM     23  H   UNL     1      15.611   6.066  21.741  0.00  0.00    +0.149 HD
ENDROOT
BRANCH  16  17
ATOM      1 CL   UNL     1      21.689   6.304  22.590  0.00  0.00    -0.081 Cl
ATOM      2  F   UNL     1      21.248   4.584  20.214  0.00  0.00    -0.204 F 
ATOM     17  C   UNL     1      18.008   6.926  21.191  0.00  0.00    +0.038 A 
ATOM     18  C   UNL     1      19.157   7.005  21.964  0.00  0.00    +0.036 A 
ATOM     19  C   UNL     1      17.935   6.073  20.099  0.00  0.00    +0.016 A 
ATOM     20  C   UNL     1      20.259   6.213  21.637  0.00  0.00    +0.077 A 
ATOM     21  C   UNL     1      19.036   5.281  19.773  0.00  0.00    +0.040 A 
ATOM     22  C   UNL     1      20.198   5.351  20.543  0.00  0.00    +0.142 A 
ENDBRANCH  16  17
BRANCH   5  14
ATOM     14  C   UNL     1      14.438   7.751  22.141  0.00  0.00    +0.123 C 
BRANCH  14   8
ATOM      4  N   UNL     1      13.672   8.906  20.049  0.00  0.00    -0.298 NA
ATOM      6  C   UNL     1      11.150   8.760  20.666  0.00  0.00    -0.004 C 
ATOM      7  C   UNL     1      11.696  10.185  20.911  0.00  0.00    +0.006 C 
ATOM      8  C   UNL     1      13.441   7.768  20.980  0.00  0.00    +0.074 C 
ATOM      9  C   UNL     1      11.979   7.749  21.479  0.00  0.00    +0.024 C 
ATOM     10  C   UNL     1      13.222  10.176  20.668  0.00  0.00    +0.088 C 
ATOM     11  C   UNL     1      11.378   8.442  19.176  0.00  0.00    +0.019 C 
ATOM     12  C   UNL     1      12.861   8.671  18.831  0.00  0.00    +0.085 C 
BRANCH   7  13
ATOM     13  C   UNL     1      11.349  10.734  22.293  0.00  0.00    +0.002 C 
ATOM     15  C   UNL     1      11.168  12.240  22.260  0.00  0.00    +0.004 C 
ENDBRANCH   7  13
ENDBRANCH  14   8
ENDBRANCH   5  14
TORSDOF 4
ENDMDL
MODEL 5
REMARK VINA RESULT:      -6.3     17.719     19.501
REMARK  Name = 11943286
REMARK  5 active torsions:
REMARK  status: ('A' for Active; 'I' for Inactive)
REMARK    1  A    between atoms: N_5  and  C_14
REMARK    2  A    between atoms: C_7  and  C_13
REMARK    3  A    between atoms: C_8  and  C_14
REMARK    4  A    between atoms: C_13  and  C_15
REMARK    5  A    between atoms: C_16  and  C_17
REMARK                            x       y       z     vdW  Elec       q    Type
REMARK                         _______ _______ _______ _____ _____    ______ ____
ROOT
ATOM      3  O   UNL     1       9.636   6.529   2.770  0.00  0.00    -0.270 OA
ATOM      5  N   UNL     1      10.547   4.547   3.496  0.00  0.00    -0.310 N 
ATOM     16  C   UNL     1       9.906   5.776   3.707  0.00  0.00    +0.244 C 
ATOM     23  H   UNL     1      10.701   3.908   4.267  0.00  0.00    +0.149 HD
ENDROOT
BRANCH  16  17
ATOM      1 CL   UNL     1       9.768   4.310   8.658  0.00  0.00    -0.081 Cl
ATOM      2  F   UNL     1       8.544   6.992   8.985  0.00  0.00    -0.204 F 
ATOM     17  C   UNL     1       9.549   6.091   5.097  0.00  0.00    +0.038 A 
ATOM     18  C   UNL     1       9.799   5.159   6.094  0.00  0.00    +0.036 A 
ATOM     19  C   UNL     1       8.968   7.317   5.390  0.00  0.00    +0.016 A 
ATOM     20  C   UNL     1       9.461   5.460   7.414  0.00  0.00    +0.077 A 
ATOM     21  C   UNL     1       8.630   7.617   6.709  0.00  0.00    +0.040 A 
ATOM     22  C   UNL     1       8.877   6.688   7.722  0.00  0.00    +0.142 A 
ENDBRANCH  16  17
BRANCH   5  14
ATOM     14  C   UNL     1      10.927   4.089   2.196  0.00  0.00    +0.123 C 
BRANCH  14   8
ATOM      4  N   UNL     1      12.504   5.554   0.907  0.00  0.00    -0.298 NA
ATOM      6  C   UNL     1      14.084   3.596   0.248  0.00  0.00    -0.004 C 
ATOM      7  C   UNL     1      13.186   4.005  -0.942  0.00  0.00    +0.006 C 
ATOM      8  C   UNL     1      12.384   4.448   1.895  0.00  0.00    +0.074 C 
ATOM      9  C   UNL     1      13.199   3.214   1.448  0.00  0.00    +0.024 C 
ATOM     10  C   UNL     1      12.174   5.066  -0.454  0.00  0.00    +0.088 C 
ATOM     11  C   UNL     1      14.887   4.847   0.653  0.00  0.00    +0.019 C 
ATOM     12  C   UNL     1      13.914   6.014   0.904  0.00  0.00    +0.085 C 
BRANCH   7  13
ATOM     13  C   UNL     1      12.485   2.820  -1.603  0.00  0.00    +0.002 C 
ATOM     15  C   UNL     1      12.584   2.891  -3.115  0.00  0.00    +0.004 C 
ENDBRANCH   7  13
ENDBRANCH  14   8
ENDBRANCH   5  14
TORSDOF 4
ENDMDL
MODEL 6
REMARK VINA RESULT:      -6.2      1.418      1.942
REMARK  Name = 11943286
REMARK  5 active torsions:
REMARK  status: ('A' for Active; 'I' for Inactive)
REMARK    1  A    between atoms: N_5  and  C_14
REMARK    2  A    between atoms: C_7  and  C_13
REMARK    3  A    between atoms: C_8  and  C_14
REMARK    4  A    between atoms: C_13  and  C_15
REMARK    5  A    between atoms: C_16  and  C_17
REMARK                            x       y       z     vdW  Elec       q    Type
REMARK                         _______ _______ _______ _____ _____    ______ ____
ROOT
ATOM      3  O   UNL     1      16.467   5.785  18.704  0.00  0.00    -0.270 OA
ATOM      5  N   UNL     1      15.414   6.788  20.484  0.00  0.00    -0.310 N 
ATOM     16  C   UNL     1      16.555   6.382  19.778  0.00  0.00    +0.244 C 
ATOM     23  H   UNL     1      15.501   7.337  21.331  0.00  0.00    +0.149 HD
ENDROOT
BRANCH  16  17
ATOM      1 CL   UNL     1      19.358   9.732  22.533  0.00  0.00    -0.081 Cl
ATOM      2  F   UNL     1      21.481   7.720  22.043  0.00  0.00    -0.204 F 
ATOM     17  C   UNL     1      17.849   6.738  20.375  0.00  0.00    +0.038 A 
ATOM     18  C   UNL     1      17.970   7.925  21.084  0.00  0.00    +0.036 A 
ATOM     19  C   UNL     1      18.930   5.882  20.222  0.00  0.00    +0.016 A 
ATOM     20  C   UNL     1      19.199   8.262  21.652  0.00  0.00    +0.077 A 
ATOM     21  C   UNL     1      20.158   6.219  20.789  0.00  0.00    +0.040 A 
ATOM     22  C   UNL     1      20.292   7.409  21.505  0.00  0.00    +0.142 A 
ENDBRANCH  16  17
BRANCH   5  14
ATOM     14  C   UNL     1      14.087   6.540  20.013  0.00  0.00    +0.123 C 
BRANCH  14   8
ATOM      4  N   UNL     1      11.834   7.626  19.818  0.00  0.00    -0.298 NA
ATOM      6  C   UNL     1      12.743  10.026  20.243  0.00  0.00    -0.004 C 
ATOM      7  C   UNL     1      12.448   9.805  18.742  0.00  0.00    +0.006 C 
ATOM      8  C   UNL     1      13.104   7.560  20.591  0.00  0.00    +0.074 C 
ATOM      9  C   UNL     1      13.742   8.960  20.729  0.00  0.00    +0.024 C 
ATOM     10  C   UNL     1      12.052   8.327  18.530  0.00  0.00    +0.088 C 
ATOM     11  C   UNL     1      11.421   9.789  20.998  0.00  0.00    +0.019 C 
ATOM     12  C   UNL     1      10.856   8.411  20.611  0.00  0.00    +0.085 C 
BRANCH   7  13
ATOM     13  C   UNL     1      13.606  10.214  17.834  0.00  0.00    +0.002 C 
ATOM     15  C   UNL     1      13.931  11.688  17.980  0.00  0.00    +0.004 C 
ENDBRANCH   7  13
ENDBRANCH  14   8
ENDBRANCH   5  14
TORSDOF 4
ENDMDL
MODEL 7
REMARK VINA RESULT:      -6.2     26.829     28.165
REMARK  Name = 11943286
REMARK  5 active torsions:
REMARK  status: ('A' for Active; 'I' for Inactive)
REMARK    1  A    between atoms: N_5  and  C_14
REMARK    2  A    between atoms: C_7  and  C_13
REMARK    3  A    between atoms: C_8  and  C_14
REMARK    4  A    between atoms: C_13  and  C_15
REMARK    5  A    between atoms: C_16  and  C_17
REMARK                            x       y       z     vdW  Elec       q    Type
REMARK                         _______ _______ _______ _____ _____    ______ ____
ROOT
ATOM      3  O   UNL     1      -2.112 -12.255  14.136  0.00  0.00    -0.270 OA
ATOM      5  N   UNL     1      -2.990 -10.423  15.211  0.00  0.00    -0.310 N 
ATOM     16  C   UNL     1      -2.626 -11.138  14.062  0.00  0.00    +0.244 C 
ATOM     23  H   UNL     1      -3.473  -9.536  15.134  0.00  0.00    +0.149 HD
ENDROOT
BRANCH  16  17
ATOM      1 CL   UNL     1      -6.164  -9.400  10.724  0.00  0.00    -0.081 Cl
ATOM      2  F   UNL     1      -3.740  -8.687   9.169  0.00  0.00    -0.204 F 
ATOM     17  C   UNL     1      -2.924 -10.494  12.776  0.00  0.00    +0.038 A 
ATOM     18  C   UNL     1      -4.245 -10.281  12.409  0.00  0.00    +0.036 A 
ATOM     19  C   UNL     1      -1.880 -10.108  11.948  0.00  0.00    +0.016 A 
ATOM     20  C   UNL     1      -4.528  -9.669  11.187  0.00  0.00    +0.077 A 
ATOM     21  C   UNL     1      -2.162  -9.496  10.727  0.00  0.00    +0.040 A 
ATOM     22  C   UNL     1      -3.486  -9.276  10.347  0.00  0.00    +0.142 A 
ENDBRANCH  16  17
BRANCH   5  14
ATOM     14  C   UNL     1      -2.791 -10.934  16.532  0.00  0.00    +0.123 C 
BRANCH  14   8
ATOM      4  N   UNL     1      -4.549 -11.969  17.992  0.00  0.00    -0.298 NA
ATOM      6  C   UNL     1      -6.502 -10.630  16.916  0.00  0.00    -0.004 C 
ATOM      7  C   UNL     1      -6.480 -12.086  16.398  0.00  0.00    +0.006 C 
ATOM      8  C   UNL     1      -4.033 -10.707  17.397  0.00  0.00    +0.074 C 
ATOM      9  C   UNL     1      -5.144  -9.964  16.622  0.00  0.00    +0.024 C 
ATOM     10  C   UNL     1      -5.222 -12.789  16.956  0.00  0.00    +0.088 C 
ATOM     11  C   UNL     1      -6.653 -10.701  18.448  0.00  0.00    +0.019 C 
ATOM     12  C   UNL     1      -5.553 -11.612  19.023  0.00  0.00    +0.085 C 
BRANCH   7  13
ATOM     13  C   UNL     1      -6.554 -12.186  14.876  0.00  0.00    +0.002 C 
ATOM     15  C   UNL     1      -5.604 -13.241  14.344  0.00  0.00    +0.004 C 
ENDBRANCH   7  13
ENDBRANCH  14   8
ENDBRANCH   5  14
TORSDOF 4
ENDMDL
MODEL 8
REMARK VINA RESULT:      -6.1      1.357      2.661
REMARK  Name = 11943286
REMARK  5 active torsions:
REMARK  status: ('A' for Active; 'I' for Inactive)
REMARK    1  A    between atoms: N_5  and  C_14
REMARK    2  A    between atoms: C_7  and  C_13
REMARK    3  A    between atoms: C_8  and  C_14
REMARK    4  A    between atoms: C_13  and  C_15
REMARK    5  A    between atoms: C_16  and  C_17
REMARK                            x       y       z     vdW  Elec       q    Type
REMARK                         _______ _______ _______ _____ _____    ______ ____
ROOT
ATOM      3  O   UNL     1      17.374   5.986  18.933  0.00  0.00    -0.270 OA
ATOM      5  N   UNL     1      15.979   6.902  20.514  0.00  0.00    -0.310 N 
ATOM     16  C   UNL     1      17.244   6.560  20.015  0.00  0.00    +0.244 C 
ATOM     23  H   UNL     1      15.890   7.434  21.372  0.00  0.00    +0.149 HD
ENDROOT
BRANCH  16  17
ATOM      1 CL   UNL     1      22.024   5.536  21.682  0.00  0.00    -0.081 Cl
ATOM      2  F   UNL     1      21.610   8.080  23.149  0.00  0.00    -0.204 F 
ATOM     17  C   UNL     1      18.395   6.956  20.839  0.00  0.00    +0.038 A 
ATOM     18  C   UNL     1      19.525   6.151  20.864  0.00  0.00    +0.036 A 
ATOM     19  C   UNL     1      18.333   8.129  21.577  0.00  0.00    +0.016 A 
ATOM     20  C   UNL     1      20.618   6.528  21.645  0.00  0.00    +0.077 A 
ATOM     21  C   UNL     1      19.426   8.505  22.358  0.00  0.00    +0.040 A 
ATOM     22  C   UNL     1      20.568   7.705  22.392  0.00  0.00    +0.142 A 
ENDBRANCH  16  17
BRANCH   5  14
ATOM     14  C   UNL     1      14.769   6.611  19.810  0.00  0.00    +0.123 C 
BRANCH  14   8
ATOM      4  N   UNL     1      14.391   9.086  19.651  0.00  0.00    -0.298 NA
ATOM      6  C   UNL     1      12.148   8.852  18.356  0.00  0.00    -0.004 C 
ATOM      7  C   UNL     1      11.894   9.198  19.841  0.00  0.00    +0.006 C 
ATOM      8  C   UNL     1      14.356   7.788  18.924  0.00  0.00    +0.074 C 
ATOM      9  C   UNL     1      12.976   7.557  18.268  0.00  0.00    +0.024 C 
ATOM     10  C   UNL     1      13.246   9.181  20.589  0.00  0.00    +0.088 C 
ATOM     11  C   UNL     1      13.011   9.986  17.773  0.00  0.00    +0.019 C 
ATOM     12  C   UNL     1      14.262  10.173  18.651  0.00  0.00    +0.085 C 
BRANCH   7  13
ATOM     13  C   UNL     1      10.871   8.281  20.508  0.00  0.00    +0.002 C 
ATOM     15  C   UNL     1      11.470   7.554  21.696  0.00  0.00    +0.004 C 
ENDBRANCH   7  13
ENDBRANCH  14   8
ENDBRANCH   5  14
TORSDOF 4
ENDMDL
MODEL 9
REMARK VINA RESULT:      -6.1      1.769      2.432
REMARK  Name = 11943286
REMARK  5 active torsions:
REMARK  status: ('A' for Active; 'I' for Inactive)
REMARK    1  A    between atoms: N_5  and  C_14
REMARK    2  A    between atoms: C_7  and  C_13
REMARK    3  A    between atoms: C_8  and  C_14
REMARK    4  A    between atoms: C_13  and  C_15
REMARK    5  A    between atoms: C_16  and  C_17
REMARK                            x       y       z     vdW  Elec       q    Type
REMARK                         _______ _______ _______ _____ _____    ______ ____
ROOT
ATOM      3  O   UNL     1      17.384   9.785  21.645  0.00  0.00    -0.270 OA
ATOM      5  N   UNL     1      15.687   8.251  21.869  0.00  0.00    -0.310 N 
ATOM     16  C   UNL     1      17.005   8.616  21.559  0.00  0.00    +0.244 C 
ATOM     23  H   UNL     1      15.407   7.277  21.860  0.00  0.00    +0.149 HD
ENDROOT
BRANCH  16  17
ATOM      1 CL   UNL     1      21.422   6.051  22.327  0.00  0.00    -0.081 Cl
ATOM      2  F   UNL     1      20.412   4.461  20.036  0.00  0.00    -0.204 F 
ATOM     17  C   UNL     1      17.904   7.525  21.161  0.00  0.00    +0.038 A 
ATOM     18  C   UNL     1      19.092   7.333  21.852  0.00  0.00    +0.036 A 
ATOM     19  C   UNL     1      17.551   6.702  20.102  0.00  0.00    +0.016 A 
ATOM     20  C   UNL     1      19.946   6.296  21.475  0.00  0.00    +0.077 A 
ATOM     21  C   UNL     1      18.404   5.665  19.725  0.00  0.00    +0.040 A 
ATOM     22  C   UNL     1      19.602   5.462  20.412  0.00  0.00    +0.142 A 
ENDBRANCH  16  17
BRANCH   5  14
ATOM     14  C   UNL     1      14.706   9.197  22.301  0.00  0.00    +0.123 C 
BRANCH  14   8
ATOM      4  N   UNL     1      13.283   7.526  21.087  0.00  0.00    -0.298 NA
ATOM      6  C   UNL     1      11.519   9.286  20.341  0.00  0.00    -0.004 C 
ATOM      7  C   UNL     1      12.455   8.911  19.170  0.00  0.00    +0.006 C 
ATOM      8  C   UNL     1      13.292   8.683  22.022  0.00  0.00    +0.074 C 
ATOM      9  C   UNL     1      12.361   9.809  21.520  0.00  0.00    +0.024 C 
ATOM     10  C   UNL     1      13.565   7.979  19.704  0.00  0.00    +0.088 C 
ATOM     11  C   UNL     1      10.843   7.982  20.808  0.00  0.00    +0.019 C 
ATOM     12  C   UNL     1      11.925   6.930  21.111  0.00  0.00    +0.085 C 
BRANCH   7  13
ATOM     13  C   UNL     1      13.037  10.127  18.451  0.00  0.00    +0.002 C 
ATOM     15  C   UNL     1      13.820   9.718  17.218  0.00  0.00    +0.004 C 
ENDBRANCH   7  13
ENDBRANCH  14   8
ENDBRANCH   5  14
TORSDOF 4
ENDMDL
MODEL 10
REMARK VINA RESULT:      -6.1     16.305     17.907
REMARK  Name = 11943286
REMARK  5 active torsions:
REMARK  status: ('A' for Active; 'I' for Inactive)
REMARK    1  A    between atoms: N_5  and  C_14
REMARK    2  A    between atoms: C_7  and  C_13
REMARK    3  A    between atoms: C_8  and  C_14
REMARK    4  A    between atoms: C_13  and  C_15
REMARK    5  A    between atoms: C_16  and  C_17
REMARK                            x       y       z     vdW  Elec       q    Type
REMARK                         _______ _______ _______ _____ _____    ______ ____
ROOT
ATOM      3  O   UNL     1       9.556   4.592   5.246  0.00  0.00    -0.270 OA
ATOM      5  N   UNL     1      11.395   5.969   5.327  0.00  0.00    -0.310 N 
ATOM     16  C   UNL     1      10.490   5.136   4.654  0.00  0.00    +0.244 C 
ATOM     23  H   UNL     1      12.117   6.464   4.816  0.00  0.00    +0.149 HD
ENDROOT
BRANCH  16  17
ATOM      1 CL   UNL     1       9.833   6.998  -0.118  0.00  0.00    -0.081 Cl
ATOM      2  F   UNL     1      11.309   4.527  -0.836  0.00  0.00    -0.204 F 
ATOM     17  C   UNL     1      10.703   4.980   3.209  0.00  0.00    +0.038 A 
ATOM     18  C   UNL     1      10.223   5.949   2.340  0.00  0.00    +0.036 A 
ATOM     19  C   UNL     1      11.382   3.866   2.736  0.00  0.00    +0.016 A 
ATOM     20  C   UNL     1      10.426   5.801   0.967  0.00  0.00    +0.077 A 
ATOM     21  C   UNL     1      11.585   3.718   1.365  0.00  0.00    +0.040 A 
ATOM     22  C   UNL     1      11.107   4.686   0.480  0.00  0.00    +0.142 A 
ENDBRANCH  16  17
BRANCH   5  14
ATOM     14  C   UNL     1      11.297   6.242   6.727  0.00  0.00    +0.123 C 
BRANCH  14   8
ATOM      4  N   UNL     1       9.674   7.846   7.770  0.00  0.00    -0.298 NA
ATOM      6  C   UNL     1       9.581   9.401   5.687  0.00  0.00    -0.004 C 
ATOM      7  C   UNL     1       8.318   8.514   5.770  0.00  0.00    +0.006 C 
ATOM      8  C   UNL     1      10.923   7.705   6.973  0.00  0.00    +0.074 C 
ATOM      9  C   UNL     1      10.833   8.504   5.654  0.00  0.00    +0.024 C 
ATOM     10  C   UNL     1       8.492   7.516   6.936  0.00  0.00    +0.088 C 
ATOM     11  C   UNL     1       9.641  10.219   6.991  0.00  0.00    +0.019 C 
ATOM     12  C   UNL     1       9.559   9.262   8.194  0.00  0.00    +0.085 C 
BRANCH   7  13
ATOM     13  C   UNL     1       7.995   7.800   4.460  0.00  0.00    +0.002 C 
ATOM     15  C   UNL     1       7.916   8.776   3.302  0.00  0.00    +0.004 C 
ENDBRANCH   7  13
ENDBRANCH  14   8
ENDBRANCH   5  14
TORSDOF 4
ENDMDL
