MODEL 1
REMARK VINA RESULT:      -7.1      0.000      0.000
REMARK  Name = 51137031
REMARK  5 active torsions:
REMARK  status: ('A' for Active; 'I' for Inactive)
REMARK    1  A    between atoms: S_1  and  C_19
REMARK    2  A    between atoms: S_1  and  C_22
REMARK    3  A    between atoms: C_9  and  C_13
REMARK    4  A    between atoms: C_14  and  C_17
REMARK    5  A    between atoms: C_22  and  C_25
REMARK                            x       y       z     vdW  Elec       q    Type
REMARK                         _______ _______ _______ _____ _____    ______ ____
ROOT
ATOM      2  O   UNL     1      15.360   6.852  18.734  0.00  0.00    -0.439 OA
ATOM      7  N   UNL     1      15.637   8.287  20.467  0.00  0.00    -0.213 NA
ATOM     13  C   UNL     1      14.876   7.892  19.469  0.00  0.00    +0.201 A 
ATOM     15  C   UNL     1      16.718   7.442  20.393  0.00  0.00    +0.111 A 
ATOM     16  C   UNL     1      16.552   6.562  19.333  0.00  0.00    +0.155 A 
ATOM     18  C   UNL     1      17.877   7.350  21.176  0.00  0.00    +0.058 A 
ATOM     19  C   UNL     1      18.819   6.364  20.845  0.00  0.00    +0.090 A 
ATOM     20  C   UNL     1      17.461   5.574  18.976  0.00  0.00    +0.050 A 
ATOM     21  C   UNL     1      18.612   5.495  19.766  0.00  0.00    +0.030 A 
ENDROOT
BRANCH  13   9
ATOM      3  O   UNL     1      10.936   8.659  22.894  0.00  0.00    -0.270 OA
ATOM      6  N   UNL     1      12.082   8.828  20.880  0.00  0.00    -0.297 N 
ATOM      9  C   UNL     1      13.530   8.444  19.032  0.00  0.00    +0.094 C 
ATOM     10  C   UNL     1      12.437   7.364  19.064  0.00  0.00    +0.033 C 
ATOM     11  C   UNL     1      12.919   9.542  19.914  0.00  0.00    +0.121 C 
ATOM     12  C   UNL     1      11.888   7.443  20.483  0.00  0.00    +0.109 C 
ATOM     14  C   UNL     1      11.575   9.317  22.075  0.00  0.00    +0.247 C 
BRANCH  14  17
ATOM      8  N   UNL     1      12.330  13.409  23.016  0.00  0.00    -0.263 NA
ATOM     17  C   UNL     1      11.836  10.727  22.398  0.00  0.00    +0.040 A 
ATOM     23  C   UNL     1      12.962  11.078  23.135  0.00  0.00    +0.033 A 
ATOM     24  C   UNL     1      10.958  11.716  21.969  0.00  0.00    +0.033 A 
ATOM     26  C   UNL     1      13.162  12.420  23.415  0.00  0.00    +0.111 A 
ATOM     27  C   UNL     1      11.247  13.030  22.301  0.00  0.00    +0.111 A 
ENDBRANCH  14  17
ENDBRANCH  13   9
BRANCH  19   1
ATOM      1  S   UNL     1      20.278   6.219  21.798  0.00  0.00    -0.003 S 
ATOM      4  O   UNL     1      19.918   6.204  23.208  0.00  0.00    -0.169 OA
ATOM      5  O   UNL     1      21.067   5.132  21.239  0.00  0.00    -0.169 OA
BRANCH   1  22
ATOM     22  C   UNL     1      21.150   7.739  21.501  0.00  0.00    +0.168 C 
ATOM     25  C   UNL     1      22.133   7.602  20.359  0.00  0.00    +0.028 C 
ENDBRANCH   1  22
ENDBRANCH  19   1
TORSDOF 4
ENDMDL
MODEL 2
REMARK VINA RESULT:      -6.6      2.397      3.747
REMARK  Name = 51137031
REMARK  5 active torsions:
REMARK  status: ('A' for Active; 'I' for Inactive)
REMARK    1  A    between atoms: S_1  and  C_19
REMARK    2  A    between atoms: S_1  and  C_22
REMARK    3  A    between atoms: C_9  and  C_13
REMARK    4  A    between atoms: C_14  and  C_17
REMARK    5  A    between atoms: C_22  and  C_25
REMARK                            x       y       z     vdW  Elec       q    Type
REMARK                         _______ _______ _______ _____ _____    ______ ____
ROOT
ATOM      2  O   UNL     1      15.977   5.972  19.505  0.00  0.00    -0.439 OA
ATOM      7  N   UNL     1      15.981   7.050  21.499  0.00  0.00    -0.213 NA
ATOM     13  C   UNL     1      15.275   6.621  20.475  0.00  0.00    +0.201 A 
ATOM     15  C   UNL     1      17.259   6.655  21.188  0.00  0.00    +0.111 A 
ATOM     16  C   UNL     1      17.261   5.995  19.968  0.00  0.00    +0.155 A 
ATOM     18  C   UNL     1      18.472   6.813  21.876  0.00  0.00    +0.058 A 
ATOM     19  C   UNL     1      19.634   6.290  21.289  0.00  0.00    +0.090 A 
ATOM     20  C   UNL     1      18.391   5.464  19.358  0.00  0.00    +0.050 A 
ATOM     21  C   UNL     1      19.591   5.630  20.055  0.00  0.00    +0.030 A 
ENDROOT
BRANCH  13   9
ATOM      3  O   UNL     1      12.997  11.311  19.668  0.00  0.00    -0.270 OA
ATOM      6  N   UNL     1      13.159   8.995  19.723  0.00  0.00    -0.297 N 
ATOM      9  C   UNL     1      13.781   6.756  20.236  0.00  0.00    +0.094 C 
ATOM     10  C   UNL     1      13.068   7.383  21.445  0.00  0.00    +0.033 C 
ATOM     11  C   UNL     1      13.349   7.687  19.094  0.00  0.00    +0.121 C 
ATOM     12  C   UNL     1      13.138   8.880  21.174  0.00  0.00    +0.109 C 
ATOM     14  C   UNL     1      13.084  10.228  19.093  0.00  0.00    +0.247 C 
BRANCH  14  17
ATOM      8  N   UNL     1      13.211  10.277  14.829  0.00  0.00    -0.263 NA
ATOM     17  C   UNL     1      13.129  10.244  17.623  0.00  0.00    +0.040 A 
ATOM     23  C   UNL     1      14.094  10.996  16.962  0.00  0.00    +0.033 A 
ATOM     24  C   UNL     1      12.206   9.508  16.889  0.00  0.00    +0.033 A 
ATOM     26  C   UNL     1      14.092  10.979  15.577  0.00  0.00    +0.111 A 
ATOM     27  C   UNL     1      12.288   9.557  15.506  0.00  0.00    +0.111 A 
ENDBRANCH  14  17
ENDBRANCH  13   9
BRANCH  19   1
ATOM      1  S   UNL     1      21.164   6.468  22.117  0.00  0.00    -0.003 S 
ATOM      4  O   UNL     1      21.216   7.788  22.728  0.00  0.00    -0.169 OA
ATOM      5  O   UNL     1      21.368   5.282  22.934  0.00  0.00    -0.169 OA
BRANCH   1  22
ATOM     22  C   UNL     1      22.373   6.452  20.813  0.00  0.00    +0.168 C 
ATOM     25  C   UNL     1      22.578   7.832  20.228  0.00  0.00    +0.028 C 
ENDBRANCH   1  22
ENDBRANCH  19   1
TORSDOF 4
ENDMDL
MODEL 3
REMARK VINA RESULT:      -6.4     27.555     29.867
REMARK  Name = 51137031
REMARK  5 active torsions:
REMARK  status: ('A' for Active; 'I' for Inactive)
REMARK    1  A    between atoms: S_1  and  C_19
REMARK    2  A    between atoms: S_1  and  C_22
REMARK    3  A    between atoms: C_9  and  C_13
REMARK    4  A    between atoms: C_14  and  C_17
REMARK    5  A    between atoms: C_22  and  C_25
REMARK                            x       y       z     vdW  Elec       q    Type
REMARK                         _______ _______ _______ _____ _____    ______ ____
ROOT
ATOM      2  O   UNL     1      -3.262 -11.163  17.102  0.00  0.00    -0.439 OA
ATOM      7  N   UNL     1      -4.880 -10.798  15.558  0.00  0.00    -0.213 NA
ATOM     13  C   UNL     1      -3.592 -10.848  15.818  0.00  0.00    +0.201 A 
ATOM     15  C   UNL     1      -5.459 -11.104  16.765  0.00  0.00    +0.111 A 
ATOM     16  C   UNL     1      -4.471 -11.328  17.714  0.00  0.00    +0.155 A 
ATOM     18  C   UNL     1      -6.803 -11.214  17.148  0.00  0.00    +0.058 A 
ATOM     19  C   UNL     1      -7.083 -11.548  18.482  0.00  0.00    +0.090 A 
ATOM     20  C   UNL     1      -4.709 -11.661  19.041  0.00  0.00    +0.050 A 
ATOM     21  C   UNL     1      -6.055 -11.766  19.407  0.00  0.00    +0.030 A 
ENDROOT
BRANCH  13   9
ATOM      3  O   UNL     1      -3.299 -13.169  11.089  0.00  0.00    -0.270 OA
ATOM      6  N   UNL     1      -2.743 -11.667  12.771  0.00  0.00    -0.297 N 
ATOM      9  C   UNL     1      -2.427 -10.601  14.874  0.00  0.00    +0.094 C 
ATOM     10  C   UNL     1      -1.508 -11.828  14.775  0.00  0.00    +0.033 C 
ATOM     11  C   UNL     1      -2.779 -10.346  13.402  0.00  0.00    +0.121 C 
ATOM     12  C   UNL     1      -2.113 -12.647  13.642  0.00  0.00    +0.109 C 
ATOM     14  C   UNL     1      -3.289 -12.029  11.549  0.00  0.00    +0.247 C 
BRANCH  14  17
ATOM      8  N   UNL     1      -5.116  -8.955   9.222  0.00  0.00    -0.263 NA
ATOM     17  C   UNL     1      -3.918 -10.970  10.745  0.00  0.00    +0.040 A 
ATOM     23  C   UNL     1      -3.147  -9.939  10.222  0.00  0.00    +0.033 A 
ATOM     24  C   UNL     1      -5.288 -10.996  10.507  0.00  0.00    +0.033 A 
ATOM     26  C   UNL     1      -3.788  -8.965   9.473  0.00  0.00    +0.111 A 
ATOM     27  C   UNL     1      -5.834  -9.974   9.746  0.00  0.00    +0.111 A 
ENDBRANCH  14  17
ENDBRANCH  13   9
BRANCH  19   1
ATOM      1  S   UNL     1      -8.748 -11.692  18.997  0.00  0.00    -0.003 S 
ATOM      4  O   UNL     1      -9.106 -13.103  19.037  0.00  0.00    -0.169 OA
ATOM      5  O   UNL     1      -8.920 -10.866  20.182  0.00  0.00    -0.169 OA
BRANCH   1  22
ATOM     22  C   UNL     1      -9.682 -10.957  17.675  0.00  0.00    +0.168 C 
ATOM     25  C   UNL     1     -10.141  -9.560  18.029  0.00  0.00    +0.028 C 
ENDBRANCH   1  22
ENDBRANCH  19   1
TORSDOF 4
ENDMDL
MODEL 4
REMARK VINA RESULT:      -6.3     27.180     30.789
REMARK  Name = 51137031
REMARK  5 active torsions:
REMARK  status: ('A' for Active; 'I' for Inactive)
REMARK    1  A    between atoms: S_1  and  C_19
REMARK    2  A    between atoms: S_1  and  C_22
REMARK    3  A    between atoms: C_9  and  C_13
REMARK    4  A    between atoms: C_14  and  C_17
REMARK    5  A    between atoms: C_22  and  C_25
REMARK                            x       y       z     vdW  Elec       q    Type
REMARK                         _______ _______ _______ _____ _____    ______ ____
ROOT
ATOM      2  O   UNL     1      -8.582 -10.352  18.682  0.00  0.00    -0.439 OA
ATOM      7  N   UNL     1      -7.495  -9.115  17.124  0.00  0.00    -0.213 NA
ATOM     13  C   UNL     1      -7.401  -9.970  18.119  0.00  0.00    +0.201 A 
ATOM     15  C   UNL     1      -8.848  -8.908  17.012  0.00  0.00    +0.111 A 
ATOM     16  C   UNL     1      -9.517  -9.663  17.964  0.00  0.00    +0.155 A 
ATOM     18  C   UNL     1      -9.594  -8.103  16.139  0.00  0.00    +0.058 A 
ATOM     19  C   UNL     1     -10.990  -8.102  16.275  0.00  0.00    +0.090 A 
ATOM     20  C   UNL     1     -10.897  -9.688  18.128  0.00  0.00    +0.050 A 
ATOM     21  C   UNL     1     -11.626  -8.880  17.250  0.00  0.00    +0.030 A 
ENDROOT
BRANCH  13   9
ATOM      3  O   UNL     1      -4.598 -13.637  15.562  0.00  0.00    -0.270 OA
ATOM      6  N   UNL     1      -5.058 -12.052  17.197  0.00  0.00    -0.297 N 
ATOM      9  C   UNL     1      -6.149 -10.586  18.720  0.00  0.00    +0.094 C 
ATOM     10  C   UNL     1      -6.384 -12.044  19.149  0.00  0.00    +0.033 C 
ATOM     11  C   UNL     1      -4.935 -10.720  17.791  0.00  0.00    +0.121 C 
ATOM     12  C   UNL     1      -6.051 -12.849  17.900  0.00  0.00    +0.109 C 
ATOM     14  C   UNL     1      -4.410 -12.533  16.069  0.00  0.00    +0.247 C 
BRANCH  14  17
ATOM      8  N   UNL     1      -1.571  -9.969  14.180  0.00  0.00    -0.263 NA
ATOM     17  C   UNL     1      -3.432 -11.647  15.418  0.00  0.00    +0.040 A 
ATOM     23  C   UNL     1      -3.601 -11.280  14.088  0.00  0.00    +0.033 A 
ATOM     24  C   UNL     1      -2.335 -11.176  16.130  0.00  0.00    +0.033 A 
ATOM     26  C   UNL     1      -2.651 -10.446  13.520  0.00  0.00    +0.111 A 
ATOM     27  C   UNL     1      -1.441 -10.346  15.471  0.00  0.00    +0.111 A 
ENDBRANCH  14  17
ENDBRANCH  13   9
BRANCH  19   1
ATOM      1  S   UNL     1     -11.953  -7.109  15.205  0.00  0.00    -0.003 S 
ATOM      4  O   UNL     1     -11.528  -5.724  15.341  0.00  0.00    -0.169 OA
ATOM      5  O   UNL     1     -11.957  -7.742  13.895  0.00  0.00    -0.169 OA
BRANCH   1  22
ATOM     22  C   UNL     1     -13.598  -7.214  15.870  0.00  0.00    +0.168 C 
ATOM     25  C   UNL     1     -14.610  -6.555  14.958  0.00  0.00    +0.028 C 
ENDBRANCH   1  22
ENDBRANCH  19   1
TORSDOF 4
ENDMDL
MODEL 5
REMARK VINA RESULT:      -6.3      2.578      3.976
REMARK  Name = 51137031
REMARK  5 active torsions:
REMARK  status: ('A' for Active; 'I' for Inactive)
REMARK    1  A    between atoms: S_1  and  C_19
REMARK    2  A    between atoms: S_1  and  C_22
REMARK    3  A    between atoms: C_9  and  C_13
REMARK    4  A    between atoms: C_14  and  C_17
REMARK    5  A    between atoms: C_22  and  C_25
REMARK                            x       y       z     vdW  Elec       q    Type
REMARK                         _______ _______ _______ _____ _____    ______ ____
ROOT
ATOM      2  O   UNL     1      18.296  10.171  21.208  0.00  0.00    -0.439 OA
ATOM      7  N   UNL     1      17.046   8.283  21.096  0.00  0.00    -0.213 NA
ATOM     13  C   UNL     1      17.063   9.598  21.118  0.00  0.00    +0.201 A 
ATOM     15  C   UNL     1      18.376   7.949  21.179  0.00  0.00    +0.111 A 
ATOM     16  C   UNL     1      19.145   9.103  21.247  0.00  0.00    +0.155 A 
ATOM     18  C   UNL     1      19.020   6.704  21.202  0.00  0.00    +0.058 A 
ATOM     19  C   UNL     1      20.419   6.688  21.294  0.00  0.00    +0.090 A 
ATOM     20  C   UNL     1      20.531   9.126  21.339  0.00  0.00    +0.050 A 
ATOM     21  C   UNL     1      21.157   7.876  21.361  0.00  0.00    +0.030 A 
ENDROOT
BRANCH  13   9
ATOM      3  O   UNL     1      12.945   8.755  17.929  0.00  0.00    -0.270 OA
ATOM      6  N   UNL     1      14.146   9.745  19.652  0.00  0.00    -0.297 N 
ATOM      9  C   UNL     1      15.887  10.558  21.055  0.00  0.00    +0.094 C 
ATOM     10  C   UNL     1      15.873  11.352  19.739  0.00  0.00    +0.033 C 
ATOM     11  C   UNL     1      14.486   9.931  21.064  0.00  0.00    +0.121 C 
ATOM     12  C   UNL     1      15.067  10.472  18.792  0.00  0.00    +0.109 C 
ATOM     14  C   UNL     1      13.149   8.937  19.127  0.00  0.00    +0.247 C 
BRANCH  14  17
ATOM      8  N   UNL     1      10.622   6.887  21.887  0.00  0.00    -0.263 NA
ATOM     17  C   UNL     1      12.277   8.230  20.077  0.00  0.00    +0.040 A 
ATOM     23  C   UNL     1      11.241   8.907  20.711  0.00  0.00    +0.033 A 
ATOM     24  C   UNL     1      12.486   6.882  20.346  0.00  0.00    +0.033 A 
ATOM     26  C   UNL     1      10.449   8.197  21.599  0.00  0.00    +0.111 A 
ATOM     27  C   UNL     1      11.638   6.262  21.251  0.00  0.00    +0.111 A 
ENDBRANCH  14  17
ENDBRANCH  13   9
BRANCH  19   1
ATOM      1  S   UNL     1      21.257   5.153  21.327  0.00  0.00    -0.003 S 
ATOM      4  O   UNL     1      21.436   4.746  22.713  0.00  0.00    -0.169 OA
ATOM      5  O   UNL     1      20.590   4.262  20.390  0.00  0.00    -0.169 OA
BRANCH   1  22
ATOM     22  C   UNL     1      22.872   5.519  20.681  0.00  0.00    +0.168 C 
ATOM     25  C   UNL     1      23.941   4.683  21.349  0.00  0.00    +0.028 C 
ENDBRANCH   1  22
ENDBRANCH  19   1
TORSDOF 4
ENDMDL
MODEL 6
REMARK VINA RESULT:      -6.1      3.701      8.558
REMARK  Name = 51137031
REMARK  5 active torsions:
REMARK  status: ('A' for Active; 'I' for Inactive)
REMARK    1  A    between atoms: S_1  and  C_19
REMARK    2  A    between atoms: S_1  and  C_22
REMARK    3  A    between atoms: C_9  and  C_13
REMARK    4  A    between atoms: C_14  and  C_17
REMARK    5  A    between atoms: C_22  and  C_25
REMARK                            x       y       z     vdW  Elec       q    Type
REMARK                         _______ _______ _______ _____ _____    ______ ____
ROOT
ATOM      2  O   UNL     1      18.513   7.241  21.469  0.00  0.00    -0.439 OA
ATOM      7  N   UNL     1      18.220   5.903  19.663  0.00  0.00    -0.213 NA
ATOM     13  C   UNL     1      19.031   6.317  20.612  0.00  0.00    +0.201 A 
ATOM     15  C   UNL     1      17.066   6.608  19.904  0.00  0.00    +0.111 A 
ATOM     16  C   UNL     1      17.241   7.428  21.010  0.00  0.00    +0.155 A 
ATOM     18  C   UNL     1      15.829   6.616  19.244  0.00  0.00    +0.058 A 
ATOM     19  C   UNL     1      14.824   7.461  19.739  0.00  0.00    +0.090 A 
ATOM     20  C   UNL     1      16.271   8.276  21.528  0.00  0.00    +0.050 A 
ATOM     21  C   UNL     1      15.043   8.273  20.858  0.00  0.00    +0.030 A 
ENDROOT
BRANCH  13   9
ATOM      3  O   UNL     1      22.152   8.998  23.915  0.00  0.00    -0.270 OA
ATOM      6  N   UNL     1      21.490   7.231  22.560  0.00  0.00    -0.297 N 
ATOM      9  C   UNL     1      20.468   5.898  20.875  0.00  0.00    +0.094 C 
ATOM     10  C   UNL     1      21.468   6.869  20.228  0.00  0.00    +0.033 C 
ATOM     11  C   UNL     1      20.926   5.899  22.340  0.00  0.00    +0.121 C 
ATOM     12  C   UNL     1      21.694   7.928  21.299  0.00  0.00    +0.109 C 
ATOM     14  C   UNL     1      21.745   7.846  23.776  0.00  0.00    +0.247 C 
BRANCH  14  17
ATOM      8  N   UNL     1      21.013   5.580  27.316  0.00  0.00    -0.263 NA
ATOM     17  C   UNL     1      21.494   7.066  24.998  0.00  0.00    +0.040 A 
ATOM     23  C   UNL     1      22.381   6.068  25.383  0.00  0.00    +0.033 A 
ATOM     24  C   UNL     1      20.367   7.323  25.770  0.00  0.00    +0.033 A 
ATOM     26  C   UNL     1      22.098   5.360  26.540  0.00  0.00    +0.111 A 
ATOM     27  C   UNL     1      20.173   6.559  26.910  0.00  0.00    +0.111 A 
ENDBRANCH  14  17
ENDBRANCH  13   9
BRANCH  19   1
ATOM      1  S   UNL     1      13.268   7.499  18.940  0.00  0.00    -0.003 S 
ATOM      4  O   UNL     1      13.481   7.600  17.504  0.00  0.00    -0.169 OA
ATOM      5  O   UNL     1      12.465   6.413  19.480  0.00  0.00    -0.169 OA
BRANCH   1  22
ATOM     22  C   UNL     1      12.542   9.034  19.467  0.00  0.00    +0.168 C 
ATOM     25  C   UNL     1      11.216   8.812  20.160  0.00  0.00    +0.028 C 
ENDBRANCH   1  22
ENDBRANCH  19   1
TORSDOF 4
ENDMDL
MODEL 7
REMARK VINA RESULT:      -6.1     28.546     31.399
REMARK  Name = 51137031
REMARK  5 active torsions:
REMARK  status: ('A' for Active; 'I' for Inactive)
REMARK    1  A    between atoms: S_1  and  C_19
REMARK    2  A    between atoms: S_1  and  C_22
REMARK    3  A    between atoms: C_9  and  C_13
REMARK    4  A    between atoms: C_14  and  C_17
REMARK    5  A    between atoms: C_22  and  C_25
REMARK                            x       y       z     vdW  Elec       q    Type
REMARK                         _______ _______ _______ _____ _____    ______ ____
ROOT
ATOM      2  O   UNL     1      -7.427  -9.833  17.793  0.00  0.00    -0.439 OA
ATOM      7  N   UNL     1      -7.593 -11.028  19.712  0.00  0.00    -0.213 NA
ATOM     13  C   UNL     1      -6.804 -10.532  18.783  0.00  0.00    +0.201 A 
ATOM     15  C   UNL     1      -8.844 -10.629  19.309  0.00  0.00    +0.111 A 
ATOM     16  C   UNL     1      -8.747  -9.897  18.135  0.00  0.00    +0.155 A 
ATOM     18  C   UNL     1     -10.111 -10.839  19.873  0.00  0.00    +0.058 A 
ATOM     19  C   UNL     1     -11.223 -10.294  19.215  0.00  0.00    +0.090 A 
ATOM     20  C   UNL     1      -9.824  -9.342  17.456  0.00  0.00    +0.050 A 
ATOM     21  C   UNL     1     -11.080  -9.561  18.031  0.00  0.00    +0.030 A 
ENDROOT
BRANCH  13   9
ATOM      3  O   UNL     1      -4.482 -13.951  15.503  0.00  0.00    -0.270 OA
ATOM      6  N   UNL     1      -4.627 -12.146  16.958  0.00  0.00    -0.297 N 
ATOM      9  C   UNL     1      -5.293 -10.637  18.673  0.00  0.00    +0.094 C 
ATOM     10  C   UNL     1      -4.768 -11.937  19.305  0.00  0.00    +0.033 C 
ATOM     11  C   UNL     1      -4.711 -10.715  17.255  0.00  0.00    +0.121 C 
ATOM     12  C   UNL     1      -4.814 -12.942  18.162  0.00  0.00    +0.109 C 
ATOM     14  C   UNL     1      -4.475 -12.740  15.715  0.00  0.00    +0.247 C 
BRANCH  14  17
ATOM      8  N   UNL     1      -3.990 -10.159  12.352  0.00  0.00    -0.263 NA
ATOM     17  C   UNL     1      -4.308 -11.852  14.554  0.00  0.00    +0.040 A 
ATOM     23  C   UNL     1      -3.042 -11.398  14.199  0.00  0.00    +0.033 A 
ATOM     24  C   UNL     1      -5.414 -11.461  13.809  0.00  0.00    +0.033 A 
ATOM     26  C   UNL     1      -2.938 -10.561  13.100  0.00  0.00    +0.111 A 
ATOM     27  C   UNL     1      -5.204 -10.621  12.726  0.00  0.00    +0.111 A 
ENDBRANCH  14  17
ENDBRANCH  13   9
BRANCH  19   1
ATOM      1  S   UNL     1     -12.820 -10.537  19.888  0.00  0.00    -0.003 S 
ATOM      4  O   UNL     1     -13.114  -9.444  20.803  0.00  0.00    -0.169 OA
ATOM      5  O   UNL     1     -13.726 -10.827  18.788  0.00  0.00    -0.169 OA
BRANCH   1  22
ATOM     22  C   UNL     1     -12.663 -12.010  20.872  0.00  0.00    +0.168 C 
ATOM     25  C   UNL     1     -13.616 -11.997  22.046  0.00  0.00    +0.028 C 
ENDBRANCH   1  22
ENDBRANCH  19   1
TORSDOF 4
ENDMDL
MODEL 8
REMARK VINA RESULT:      -5.9      3.748      8.095
REMARK  Name = 51137031
REMARK  5 active torsions:
REMARK  status: ('A' for Active; 'I' for Inactive)
REMARK    1  A    between atoms: S_1  and  C_19
REMARK    2  A    between atoms: S_1  and  C_22
REMARK    3  A    between atoms: C_9  and  C_13
REMARK    4  A    between atoms: C_14  and  C_17
REMARK    5  A    between atoms: C_22  and  C_25
REMARK                            x       y       z     vdW  Elec       q    Type
REMARK                         _______ _______ _______ _____ _____    ______ ____
ROOT
ATOM      2  O   UNL     1      18.183   7.986  21.372  0.00  0.00    -0.439 OA
ATOM      7  N   UNL     1      17.837   6.018  20.301  0.00  0.00    -0.213 NA
ATOM     13  C   UNL     1      18.638   6.741  21.053  0.00  0.00    +0.201 A 
ATOM     15  C   UNL     1      16.759   6.846  20.100  0.00  0.00    +0.111 A 
ATOM     16  C   UNL     1      16.968   8.052  20.754  0.00  0.00    +0.155 A 
ATOM     18  C   UNL     1      15.569   6.662  19.382  0.00  0.00    +0.058 A 
ATOM     19  C   UNL     1      14.642   7.714  19.362  0.00  0.00    +0.090 A 
ATOM     20  C   UNL     1      16.074   9.116  20.757  0.00  0.00    +0.050 A 
ATOM     21  C   UNL     1      14.892   8.916  20.037  0.00  0.00    +0.030 A 
ENDROOT
BRANCH  13   9
ATOM      3  O   UNL     1      22.521  10.283  21.516  0.00  0.00    -0.270 OA
ATOM      6  N   UNL     1      21.418   8.266  21.843  0.00  0.00    -0.297 N 
ATOM      9  C   UNL     1      20.001   6.369  21.612  0.00  0.00    +0.094 C 
ATOM     10  C   UNL     1      21.076   6.346  20.513  0.00  0.00    +0.033 C 
ATOM     11  C   UNL     1      20.611   7.335  22.635  0.00  0.00    +0.121 C 
ATOM     12  C   UNL     1      21.598   7.777  20.485  0.00  0.00    +0.109 C 
ATOM     14  C   UNL     1      21.908   9.501  22.240  0.00  0.00    +0.247 C 
BRANCH  14  17
ATOM      8  N   UNL     1      21.194  10.699  26.272  0.00  0.00    -0.263 NA
ATOM     17  C   UNL     1      21.663   9.915  23.629  0.00  0.00    +0.040 A 
ATOM     23  C   UNL     1      22.587   9.610  24.622  0.00  0.00    +0.033 A 
ATOM     24  C   UNL     1      20.505  10.612  23.956  0.00  0.00    +0.033 A 
ATOM     26  C   UNL     1      22.309  10.021  25.916  0.00  0.00    +0.111 A 
ATOM     27  C   UNL     1      20.319  10.977  25.280  0.00  0.00    +0.111 A 
ENDBRANCH  14  17
ENDBRANCH  13   9
BRANCH  19   1
ATOM      1  S   UNL     1      13.146   7.521  18.476  0.00  0.00    -0.003 S 
ATOM      4  O   UNL     1      13.444   7.506  17.052  0.00  0.00    -0.169 OA
ATOM      5  O   UNL     1      12.414   6.417  19.076  0.00  0.00    -0.169 OA
BRANCH   1  22
ATOM     22  C   UNL     1      12.246   9.019  18.803  0.00  0.00    +0.168 C 
ATOM     25  C   UNL     1      11.179   8.807  19.854  0.00  0.00    +0.028 C 
ENDBRANCH   1  22
ENDBRANCH  19   1
TORSDOF 4
ENDMDL
MODEL 9
REMARK VINA RESULT:      -5.7     28.059     30.792
REMARK  Name = 51137031
REMARK  5 active torsions:
REMARK  status: ('A' for Active; 'I' for Inactive)
REMARK    1  A    between atoms: S_1  and  C_19
REMARK    2  A    between atoms: S_1  and  C_22
REMARK    3  A    between atoms: C_9  and  C_13
REMARK    4  A    between atoms: C_14  and  C_17
REMARK    5  A    between atoms: C_22  and  C_25
REMARK                            x       y       z     vdW  Elec       q    Type
REMARK                         _______ _______ _______ _____ _____    ______ ____
ROOT
ATOM      2  O   UNL     1      -7.577  -9.714  18.195  0.00  0.00    -0.439 OA
ATOM      7  N   UNL     1      -7.769  -9.297  15.975  0.00  0.00    -0.213 NA
ATOM     13  C   UNL     1      -8.321  -9.218  17.167  0.00  0.00    +0.201 A 
ATOM     15  C   UNL     1      -6.559  -9.896  16.227  0.00  0.00    +0.111 A 
ATOM     16  C   UNL     1      -6.437 -10.153  17.585  0.00  0.00    +0.155 A 
ATOM     18  C   UNL     1      -5.507 -10.257  15.373  0.00  0.00    +0.058 A 
ATOM     19  C   UNL     1      -4.377 -10.864  15.939  0.00  0.00    +0.090 A 
ATOM     20  C   UNL     1      -5.335 -10.751  18.182  0.00  0.00    +0.050 A 
ATOM     21  C   UNL     1      -4.296 -11.106  17.316  0.00  0.00    +0.030 A 
ENDROOT
BRANCH  13   9
ATOM      3  O   UNL     1     -12.752 -12.054  16.763  0.00  0.00    -0.270 OA
ATOM      6  N   UNL     1     -11.402 -10.278  17.410  0.00  0.00    -0.297 N 
ATOM      9  C   UNL     1      -9.677  -8.645  17.543  0.00  0.00    +0.094 C 
ATOM     10  C   UNL     1     -10.544  -8.379  16.302  0.00  0.00    +0.033 C 
ATOM     11  C   UNL     1     -10.593  -9.545  18.385  0.00  0.00    +0.121 C 
ATOM     12  C   UNL     1     -11.280  -9.694  16.083  0.00  0.00    +0.109 C 
ATOM     14  C   UNL     1     -12.144 -11.429  17.629  0.00  0.00    +0.247 C 
BRANCH  14  17
ATOM      8  N   UNL     1     -12.290 -12.944  21.615  0.00  0.00    -0.263 NA
ATOM     17  C   UNL     1     -12.195 -11.952  19.002  0.00  0.00    +0.040 A 
ATOM     23  C   UNL     1     -13.173 -11.505  19.884  0.00  0.00    +0.033 A 
ATOM     24  C   UNL     1     -11.266 -12.896  19.425  0.00  0.00    +0.033 A 
ATOM     26  C   UNL     1     -13.177 -12.027  21.167  0.00  0.00    +0.111 A 
ATOM     27  C   UNL     1     -11.355 -13.356  20.729  0.00  0.00    +0.111 A 
ENDBRANCH  14  17
ENDBRANCH  13   9
BRANCH  19   1
ATOM      1  S   UNL     1      -3.046 -11.330  14.905  0.00  0.00    -0.003 S 
ATOM      4  O   UNL     1      -3.070 -12.775  14.732  0.00  0.00    -0.169 OA
ATOM      5  O   UNL     1      -3.064 -10.460  13.739  0.00  0.00    -0.169 OA
BRANCH   1  22
ATOM     22  C   UNL     1      -1.595 -10.945  15.856  0.00  0.00    +0.168 C 
ATOM     25  C   UNL     1      -0.926  -9.681  15.361  0.00  0.00    +0.028 C 
ENDBRANCH   1  22
ENDBRANCH  19   1
TORSDOF 4
ENDMDL
MODEL 10
REMARK VINA RESULT:      -5.7     27.553     29.865
REMARK  Name = 51137031
REMARK  5 active torsions:
REMARK  status: ('A' for Active; 'I' for Inactive)
REMARK    1  A    between atoms: S_1  and  C_19
REMARK    2  A    between atoms: S_1  and  C_22
REMARK    3  A    between atoms: C_9  and  C_13
REMARK    4  A    between atoms: C_14  and  C_17
REMARK    5  A    between atoms: C_22  and  C_25
REMARK                            x       y       z     vdW  Elec       q    Type
REMARK                         _______ _______ _______ _____ _____    ______ ____
ROOT
ATOM      2  O   UNL     1      -3.836 -11.192  11.254  0.00  0.00    -0.439 OA
ATOM      7  N   UNL     1      -5.952 -11.501  12.004  0.00  0.00    -0.213 NA
ATOM     13  C   UNL     1      -4.683 -11.832  12.107  0.00  0.00    +0.201 A 
ATOM     15  C   UNL     1      -5.954 -10.564  11.000  0.00  0.00    +0.111 A 
ATOM     16  C   UNL     1      -4.660 -10.372  10.538  0.00  0.00    +0.155 A 
ATOM     18  C   UNL     1      -6.997  -9.829  10.418  0.00  0.00    +0.058 A 
ATOM     19  C   UNL     1      -6.676  -8.930   9.391  0.00  0.00    +0.090 A 
ATOM     20  C   UNL     1      -4.304  -9.491   9.524  0.00  0.00    +0.050 A 
ATOM     21  C   UNL     1      -5.356  -8.766   8.955  0.00  0.00    +0.030 A 
ENDROOT
BRANCH  13   9
ATOM      3  O   UNL     1      -1.861 -10.296  16.292  0.00  0.00    -0.270 OA
ATOM      6  N   UNL     1      -3.020 -11.768  14.919  0.00  0.00    -0.297 N 
ATOM      9  C   UNL     1      -4.043 -12.833  13.053  0.00  0.00    +0.094 C 
ATOM     10  C   UNL     1      -2.514 -12.867  12.892  0.00  0.00    +0.033 C 
ATOM     11  C   UNL     1      -4.199 -12.556  14.555  0.00  0.00    +0.121 C 
ATOM     12  C   UNL     1      -2.022 -11.799  13.860  0.00  0.00    +0.109 C 
ATOM     14  C   UNL     1      -2.841 -11.002  16.061  0.00  0.00    +0.247 C 
BRANCH  14  17
ATOM      8  N   UNL     1      -5.951 -11.066  18.980  0.00  0.00    -0.263 NA
ATOM     17  C   UNL     1      -3.912 -11.023  17.068  0.00  0.00    +0.040 A 
ATOM     23  C   UNL     1      -3.787 -11.814  18.205  0.00  0.00    +0.033 A 
ATOM     24  C   UNL     1      -5.056 -10.254  16.887  0.00  0.00    +0.033 A 
ATOM     26  C   UNL     1      -4.825 -11.800  19.122  0.00  0.00    +0.111 A 
ATOM     27  C   UNL     1      -6.038 -10.310  17.863  0.00  0.00    +0.111 A 
ENDBRANCH  14  17
ENDBRANCH  13   9
BRANCH  19   1
ATOM      1  S   UNL     1      -7.951  -7.997   8.641  0.00  0.00    -0.003 S 
ATOM      4  O   UNL     1      -9.157  -8.118   9.446  0.00  0.00    -0.169 OA
ATOM      5  O   UNL     1      -7.415  -6.680   8.331  0.00  0.00    -0.169 OA
BRANCH   1  22
ATOM     22  C   UNL     1      -8.265  -8.836   7.106  0.00  0.00    +0.168 C 
ATOM     25  C   UNL     1      -7.802  -8.018   5.920  0.00  0.00    +0.028 C 
ENDBRANCH   1  22
ENDBRANCH  19   1
TORSDOF 4
ENDMDL
