REMARK  Name = 45783680
REMARK  8 active torsions:
REMARK  status: ('A' for Active; 'I' for Inactive)
REMARK    1  A    between atoms: O_2  and  C_17
REMARK    2  A    between atoms: O_3  and  C_23
REMARK    3  A    between atoms: O_3  and  C_28
REMARK    4  A    between atoms: N_4  and  C_14
REMARK    5  A    between atoms: N_8  and  C_27
REMARK    6  A    between atoms: C_10  and  C_15
REMARK    7  A    between atoms: C_14  and  C_16
REMARK    8  A    between atoms: C_19  and  C_22
REMARK                            x       y       z     vdW  Elec       q    Type
REMARK                         _______ _______ _______ _____ _____    ______ ____
ROOT
ATOM      4  N   UNL     1      -4.106  -0.511  -0.802  0.00  0.00    -0.287 NA
ATOM     10  C   UNL     1      -3.806  -1.470   0.280  0.00  0.00    +0.146 C 
ATOM     11  C   UNL     1      -4.270  -2.833  -0.265  0.00  0.00    +0.030 C 
ATOM     12  C   UNL     1      -4.872  -2.531  -1.630  0.00  0.00    +0.017 C 
ATOM     13  C   UNL     1      -5.241  -1.064  -1.541  0.00  0.00    +0.085 C 
ENDROOT
BRANCH  10  15
ATOM      1  O   UNL     1      -2.058  -1.827   1.951  0.00  0.00    -0.336 OA
ATOM      5  N   UNL     1      -1.292  -1.157  -0.044  0.00  0.00    -0.190 NA
ATOM      6  N   UNL     1      -0.665  -1.746   2.076  0.00  0.00    -0.056 NA
ATOM     15  C   UNL     1      -2.343  -1.465   0.673  0.00  0.00    +0.245 A 
ATOM     19  C   UNL     1      -0.286  -1.345   0.859  0.00  0.00    +0.204 A 
BRANCH  19  22
ATOM      7  N   UNL     1       3.412  -1.125   1.181  0.00  0.00    -0.237 NA
ATOM     22  C   UNL     1       1.088  -1.124   0.513  0.00  0.00    +0.041 A 
ATOM     24  C   UNL     1       1.448  -0.708  -0.764  0.00  0.00    +0.017 A 
ATOM     25  C   UNL     1       2.099  -1.317   1.441  0.00  0.00    +0.124 A 
ATOM     26  C   UNL     1       2.788  -0.500  -1.070  0.00  0.00    +0.047 A 
ATOM     27  C   UNL     1       3.723  -0.721  -0.071  0.00  0.00    +0.139 A 
BRANCH  27   8
ATOM      8  N   UNL     1       5.061  -0.515  -0.371  0.00  0.00    -0.290 N 
ATOM      9  N   UNL     1       7.262  -0.408  -0.097  0.00  0.00    -0.244 NA
ATOM     29  C   UNL     1       5.568  -0.109  -1.573  0.00  0.00    +0.114 A 
ATOM     30  C   UNL     1       6.115  -0.682   0.484  0.00  0.00    +0.205 A 
ATOM     31  C   UNL     1       6.928  -0.050  -1.379  0.00  0.00    +0.130 A 
ENDBRANCH  27   8
ENDBRANCH  19  22
ENDBRANCH  10  15
BRANCH   4  14
ATOM     14  C   UNL     1      -4.372   0.837  -0.317  0.00  0.00    +0.124 C 
BRANCH  14  16
ATOM     16  C   UNL     1      -3.102   1.579   0.003  0.00  0.00    +0.008 A 
ATOM     17  C   UNL     1      -2.131   1.785  -0.978  0.00  0.00    +0.125 A 
ATOM     18  C   UNL     1      -2.902   2.063   1.295  0.00  0.00    +0.012 A 
ATOM     20  C   UNL     1      -0.960   2.475  -0.664  0.00  0.00    +0.091 A 
ATOM     21  C   UNL     1      -1.730   2.753   1.608  0.00  0.00    +0.046 A 
ATOM     23  C   UNL     1      -0.759   2.959   0.628  0.00  0.00    +0.124 A 
BRANCH  17   2
ATOM      2  O   UNL     1      -2.311   1.319  -2.245  0.00  0.00    -0.506 OA
ATOM     32  H   UNL     1      -1.534   1.546  -2.784  0.00  0.00    +0.292 HD
ENDBRANCH  17   2
BRANCH  23   3
ATOM      3  O   UNL     1       0.383   3.632   0.934  0.00  0.00    -0.495 OA
ATOM     28  C   UNL     1       1.334   3.808  -0.116  0.00  0.00    +0.277 C 
ENDBRANCH  23   3
ENDBRANCH  14  16
ENDBRANCH   4  14
TORSDOF 7
