REMARK  Name = 11941662
REMARK  7 active torsions:
REMARK  status: ('A' for Active; 'I' for Inactive)
REMARK    1  A    between atoms: O_4  and  C_24
REMARK    2  A    between atoms: O_4  and  C_29
REMARK    3  A    between atoms: N_5  and  C_12
REMARK    4  A    between atoms: N_6  and  C_13
REMARK    5  A    between atoms: N_7  and  C_18
REMARK    6  A    between atoms: C_18  and  C_23
REMARK    7  A    between atoms: C_19  and  C_22
REMARK                            x       y       z     vdW  Elec       q    Type
REMARK                         _______ _______ _______ _____ _____    ______ ____
ROOT
ATOM      5  N   UNL     1       0.245  -2.405   0.392  0.00  0.00    -0.306 N 
ATOM      8  N   UNL     1       2.104  -0.980   0.248  0.00  0.00    -0.214 NA
ATOM      9  N   UNL     1       1.750  -2.361   2.191  0.00  0.00    -0.223 NA
ATOM     16  C   UNL     1       1.401  -1.900   0.961  0.00  0.00    +0.216 A 
ATOM     19  C   UNL     1       3.225  -0.509   0.833  0.00  0.00    +0.080 A 
ATOM     20  C   UNL     1       2.882  -1.847   2.716  0.00  0.00    +0.116 A 
ATOM     21  C   UNL     1       3.668  -0.910   2.077  0.00  0.00    +0.048 A 
ATOM     30  H   UNL     1      -0.299  -3.050   0.953  0.00  0.00    +0.149 HD
ENDROOT
BRANCH   5  12
ATOM      1  O   UNL     1      -2.541  -2.622  -0.939  0.00  0.00    -0.370 OA
ATOM      2  O   UNL     1      -1.139  -0.062  -2.043  0.00  0.00    -0.370 OA
ATOM     10  C   UNL     1      -1.080  -0.751  -0.782  0.00  0.00    +0.171 C 
ATOM     11  C   UNL     1      -2.476  -1.261  -0.483  0.00  0.00    +0.171 C 
ATOM     12  C   UNL     1      -0.247  -2.005  -0.909  0.00  0.00    +0.130 C 
ATOM     13  C   UNL     1      -3.376  -0.382  -1.321  0.00  0.00    +0.131 C 
ATOM     14  C   UNL     1      -1.250  -3.019  -1.425  0.00  0.00    +0.185 C 
ATOM     15  C   UNL     1      -2.495  -0.057  -2.513  0.00  0.00    +0.185 C 
BRANCH  13   6
ATOM      3  O   UNL     1      -5.771   0.035   0.235  0.00  0.00    -0.253 OA
ATOM      6  N   UNL     1      -3.751   0.814  -0.605  0.00  0.00    -0.292 N 
ATOM      7  N   UNL     1      -5.044   2.186   0.713  0.00  0.00    -0.300 N 
ATOM     17  C   UNL     1      -4.933   0.929   0.124  0.00  0.00    +0.300 C 
ATOM     31  H   UNL     1      -3.094   1.587  -0.578  0.00  0.00    +0.151 HD
ATOM     32  H   UNL     1      -4.302   2.863   0.566  0.00  0.00    +0.150 HD
BRANCH   7  18
ATOM     18  C   UNL     1      -6.174   2.573   1.525  0.00  0.00    +0.102 C 
ATOM     23  C   UNL     1      -7.185   1.451   1.640  0.00  0.00    +0.024 C 
ENDBRANCH   7  18
ENDBRANCH  13   6
ENDBRANCH   5  12
BRANCH  19  22
ATOM     22  C   UNL     1       3.956   0.467   0.060  0.00  0.00    +0.042 A 
ATOM     24  C   UNL     1       3.687   1.833   0.183  0.00  0.00    +0.129 A 
ATOM     25  C   UNL     1       4.949   0.036  -0.824  0.00  0.00    +0.013 A 
ATOM     26  C   UNL     1       4.404   2.760  -0.572  0.00  0.00    +0.046 A 
ATOM     27  C   UNL     1       5.667   0.964  -1.579  0.00  0.00    +0.001 A 
ATOM     28  C   UNL     1       5.394   2.325  -1.453  0.00  0.00    +0.004 A 
BRANCH  24   4
ATOM      4  O   UNL     1       2.724   2.286   1.037  0.00  0.00    -0.494 OA
ATOM     29  C   UNL     1       1.404   2.413   0.514  0.00  0.00    +0.277 C 
ENDBRANCH  24   4
ENDBRANCH  19  22
TORSDOF 5
