REMARK  Name = 51136866
REMARK  11 active torsions:
REMARK  status: ('A' for Active; 'I' for Inactive)
REMARK    1  A    between atoms: O_2  and  C_27
REMARK    2  A    between atoms: O_2  and  C_28
REMARK    3  A    between atoms: O_3  and  C_29
REMARK    4  A    between atoms: O_3  and  C_30
REMARK    5  A    between atoms: N_4  and  C_12
REMARK    6  A    between atoms: C_8  and  C_13
REMARK    7  A    between atoms: C_12  and  C_14
REMARK    8  A    between atoms: C_14  and  C_15
REMARK    9  A    between atoms: C_15  and  C_16
REMARK   10  A    between atoms: C_17  and  C_20
REMARK   11  A    between atoms: C_28  and  C_29
REMARK                            x       y       z     vdW  Elec       q    Type
REMARK                         _______ _______ _______ _____ _____    ______ ____
ROOT
ATOM      1  O   UNL     1      -0.721  -3.723   0.935  0.00  0.00    -0.336 OA
ATOM      5  N   UNL     1      -0.589  -1.749  -0.114  0.00  0.00    -0.190 NA
ATOM      6  N   UNL     1       0.610  -3.305   1.058  0.00  0.00    -0.056 NA
ATOM     13  C   UNL     1      -1.357  -2.750   0.231  0.00  0.00    +0.245 A 
ATOM     17  C   UNL     1       0.609  -2.134   0.415  0.00  0.00    +0.204 A 
ENDROOT
BRANCH  17  20
ATOM      7  N   UNL     1       4.140  -1.012   0.737  0.00  0.00    -0.221 NA
ATOM     20  C   UNL     1       1.786  -1.325   0.282  0.00  0.00    +0.041 A 
ATOM     23  C   UNL     1       1.748  -0.112  -0.396  0.00  0.00    +0.018 A 
ATOM     25  C   UNL     1       2.995  -1.727   0.826  0.00  0.00    +0.126 A 
ATOM     26  C   UNL     1       2.905   0.652  -0.508  0.00  0.00    +0.068 A 
ATOM     27  C   UNL     1       4.064   0.161   0.071  0.00  0.00    +0.215 A 
BRANCH  27   2
ATOM      2  O   UNL     1       5.218   0.895  -0.026  0.00  0.00    -0.474 OA
BRANCH   2  28
ATOM     28  C   UNL     1       6.379   0.346   0.586  0.00  0.00    +0.258 C 
BRANCH  28  29
ATOM     29  C   UNL     1       7.550   1.282   0.354  0.00  0.00    +0.200 C 
BRANCH  29   3
ATOM      3  O   UNL     1       7.774   1.408  -1.045  0.00  0.00    -0.380 OA
ATOM     30  C   UNL     1       8.849   2.294  -1.322  0.00  0.00    +0.194 C 
ENDBRANCH  29   3
ENDBRANCH  28  29
ENDBRANCH   2  28
ENDBRANCH  27   2
ENDBRANCH  17  20
BRANCH  13   8
ATOM      4  N   UNL     1      -3.572  -1.700  -0.198  0.00  0.00    -0.291 NA
ATOM      8  C   UNL     1      -2.831  -2.968  -0.039  0.00  0.00    +0.146 C 
ATOM      9  C   UNL     1      -3.088  -3.737  -1.348  0.00  0.00    +0.030 C 
ATOM     10  C   UNL     1      -4.690  -1.985  -1.099  0.00  0.00    +0.085 C 
ATOM     11  C   UNL     1      -4.030  -2.853  -2.152  0.00  0.00    +0.017 C 
BRANCH   4  12
ATOM     12  C   UNL     1      -4.019  -1.133   1.068  0.00  0.00    +0.085 C 
BRANCH  12  14
ATOM     14  C   UNL     1      -4.343   0.350   0.899  0.00  0.00    +0.020 C 
BRANCH  14  15
ATOM     15  C   UNL     1      -3.109   1.137   0.452  0.00  0.00    +0.036 C 
BRANCH  15  16
ATOM     16  C   UNL     1      -3.423   2.597   0.246  0.00  0.00    -0.047 A 
ATOM     18  C   UNL     1      -3.844   3.050  -1.004  0.00  0.00    +0.003 A 
ATOM     19  C   UNL     1      -3.291   3.495   1.305  0.00  0.00    +0.003 A 
ATOM     21  C   UNL     1      -4.134   4.401  -1.195  0.00  0.00    +0.000 A 
ATOM     22  C   UNL     1      -3.582   4.846   1.115  0.00  0.00    +0.000 A 
ATOM     24  C   UNL     1      -4.003   5.299  -0.136  0.00  0.00    +0.000 A 
ENDBRANCH  15  16
ENDBRANCH  14  15
ENDBRANCH  12  14
ENDBRANCH   4  12
ENDBRANCH  13   8
TORSDOF 10
