MODEL 1
REMARK VINA RESULT:      -6.2      0.000      0.000
REMARK  Name = 45783546
REMARK  10 active torsions:
REMARK  status: ('A' for Active; 'I' for Inactive)
REMARK    1  A    between atoms: O_2  and  C_27
REMARK    2  A    between atoms: O_2  and  C_28
REMARK    3  A    between atoms: O_3  and  C_29
REMARK    4  A    between atoms: O_3  and  C_30
REMARK    5  A    between atoms: N_4  and  C_13
REMARK    6  A    between atoms: C_9  and  C_14
REMARK    7  A    between atoms: C_13  and  C_15
REMARK    8  A    between atoms: C_18  and  C_21
REMARK    9  A    between atoms: C_22  and  C_26
REMARK   10  A    between atoms: C_28  and  C_29
REMARK                            x       y       z     vdW  Elec       q    Type
REMARK                         _______ _______ _______ _____ _____    ______ ____
ROOT
ATOM      1  O   UNL     1      15.159   9.976  14.382  0.00  0.00    -0.336 OA
ATOM      5  N   UNL     1      14.769  10.623  16.490  0.00  0.00    -0.190 NA
ATOM      6  N   UNL     1      14.515   8.901  15.006  0.00  0.00    -0.056 NA
ATOM     14  C   UNL     1      15.268  10.948  15.325  0.00  0.00    +0.245 A 
ATOM     18  C   UNL     1      14.319   9.358  16.246  0.00  0.00    +0.204 A 
ENDROOT
BRANCH  18  21
ATOM      7  N   UNL     1      11.627   7.803  18.286  0.00  0.00    -0.221 NA
ATOM     21  C   UNL     1      13.676   8.577  17.264  0.00  0.00    +0.041 A 
ATOM     23  C   UNL     1      14.420   7.859  18.192  0.00  0.00    +0.018 A 
ATOM     24  C   UNL     1      12.294   8.517  17.352  0.00  0.00    +0.126 A 
ATOM     25  C   UNL     1      13.769   7.112  19.167  0.00  0.00    +0.068 A 
ATOM     27  C   UNL     1      12.384   7.117  19.172  0.00  0.00    +0.215 A 
BRANCH  27   2
ATOM      2  O   UNL     1      11.719   6.388  20.124  0.00  0.00    -0.474 OA
BRANCH   2  28
ATOM     28  C   UNL     1      11.851   6.825  21.471  0.00  0.00    +0.258 C 
BRANCH  28  29
ATOM     29  C   UNL     1      10.528   7.404  21.935  0.00  0.00    +0.200 C 
BRANCH  29   3
ATOM      3  O   UNL     1      10.589   8.823  21.856  0.00  0.00    -0.380 OA
ATOM     30  C   UNL     1      11.886   9.307  22.178  0.00  0.00    +0.194 C 
ENDBRANCH  29   3
ENDBRANCH  28  29
ENDBRANCH   2  28
ENDBRANCH  27   2
ENDBRANCH  18  21
BRANCH  14   9
ATOM      4  N   UNL     1      15.028  13.126  14.145  0.00  0.00    -0.287 NA
ATOM      9  C   UNL     1      15.939  12.235  14.893  0.00  0.00    +0.146 C 
ATOM     10  C   UNL     1      16.423  13.082  16.084  0.00  0.00    +0.030 C 
ATOM     11  C   UNL     1      15.782  14.449  15.887  0.00  0.00    +0.017 C 
ATOM     12  C   UNL     1      15.484  14.492  14.403  0.00  0.00    +0.085 C 
BRANCH   4  13
ATOM     13  C   UNL     1      14.974  12.826  12.720  0.00  0.00    +0.120 C 
BRANCH  13  15
ATOM     15  C   UNL     1      13.568  12.546  12.260  0.00  0.00    -0.033 A 
ATOM     16  C   UNL     1      12.560  12.319  13.198  0.00  0.00    +0.006 A 
ATOM     17  C   UNL     1      13.274  12.512  10.897  0.00  0.00    +0.006 A 
ATOM     19  C   UNL     1      11.257  12.061  12.771  0.00  0.00    +0.019 A 
ATOM     20  C   UNL     1      11.971  12.252  10.471  0.00  0.00    +0.019 A 
ATOM     22  C   UNL     1      10.962  12.027  11.408  0.00  0.00    +0.052 A 
BRANCH  22  26
ATOM      8  N   UNL     1       8.546  11.544  10.614  0.00  0.00    -0.191 NA
ATOM     26  C   UNL     1       9.629  11.761  10.971  0.00  0.00    +0.099 C 
ENDBRANCH  22  26
ENDBRANCH  13  15
ENDBRANCH   4  13
ENDBRANCH  14   9
TORSDOF 9
ENDMDL
MODEL 2
REMARK VINA RESULT:      -6.0      9.363     13.220
REMARK  Name = 45783546
REMARK  10 active torsions:
REMARK  status: ('A' for Active; 'I' for Inactive)
REMARK    1  A    between atoms: O_2  and  C_27
REMARK    2  A    between atoms: O_2  and  C_28
REMARK    3  A    between atoms: O_3  and  C_29
REMARK    4  A    between atoms: O_3  and  C_30
REMARK    5  A    between atoms: N_4  and  C_13
REMARK    6  A    between atoms: C_9  and  C_14
REMARK    7  A    between atoms: C_13  and  C_15
REMARK    8  A    between atoms: C_18  and  C_21
REMARK    9  A    between atoms: C_22  and  C_26
REMARK   10  A    between atoms: C_28  and  C_29
REMARK                            x       y       z     vdW  Elec       q    Type
REMARK                         _______ _______ _______ _____ _____    ______ ____
ROOT
ATOM      1  O   UNL     1      21.027   4.641  20.708  0.00  0.00    -0.336 OA
ATOM      5  N   UNL     1      20.048   6.546  21.360  0.00  0.00    -0.190 NA
ATOM      6  N   UNL     1      19.794   4.691  20.046  0.00  0.00    -0.056 NA
ATOM     14  C   UNL     1      21.097   5.771  21.459  0.00  0.00    +0.245 A 
ATOM     18  C   UNL     1      19.275   5.842  20.482  0.00  0.00    +0.204 A 
ENDROOT
BRANCH  18  21
ATOM      7  N   UNL     1      16.087   6.097  18.586  0.00  0.00    -0.221 NA
ATOM     21  C   UNL     1      17.989   6.318  20.061  0.00  0.00    +0.041 A 
ATOM     23  C   UNL     1      17.396   7.416  20.674  0.00  0.00    +0.018 A 
ATOM     24  C   UNL     1      17.300   5.698  19.031  0.00  0.00    +0.126 A 
ATOM     25  C   UNL     1      16.149   7.854  20.244  0.00  0.00    +0.068 A 
ATOM     27  C   UNL     1      15.541   7.166  19.206  0.00  0.00    +0.215 A 
BRANCH  27   2
ATOM      2  O   UNL     1      14.311   7.580  18.764  0.00  0.00    -0.474 OA
BRANCH   2  28
ATOM     28  C   UNL     1      13.374   7.977  19.758  0.00  0.00    +0.258 C 
BRANCH  28  29
ATOM     29  C   UNL     1      12.528   6.780  20.146  0.00  0.00    +0.200 C 
BRANCH  29   3
ATOM      3  O   UNL     1      11.201   7.216  20.413  0.00  0.00    -0.380 OA
ATOM     30  C   UNL     1      11.019   8.580  20.058  0.00  0.00    +0.194 C 
ENDBRANCH  29   3
ENDBRANCH  28  29
ENDBRANCH   2  28
ENDBRANCH  27   2
ENDBRANCH  18  21
BRANCH  14   9
ATOM      4  N   UNL     1      23.263   4.796  22.202  0.00  0.00    -0.287 NA
ATOM      9  C   UNL     1      22.355   5.958  22.282  0.00  0.00    +0.146 C 
ATOM     10  C   UNL     1      23.203   7.151  21.808  0.00  0.00    +0.030 C 
ATOM     11  C   UNL     1      24.588   6.575  21.544  0.00  0.00    +0.017 C 
ATOM     12  C   UNL     1      24.618   5.318  22.387  0.00  0.00    +0.085 C 
BRANCH   4  13
ATOM     13  C   UNL     1      22.942   3.749  23.164  0.00  0.00    +0.120 C 
BRANCH  13  15
ATOM     15  C   UNL     1      23.804   2.529  22.972  0.00  0.00    -0.033 A 
ATOM     16  C   UNL     1      24.505   1.993  24.054  0.00  0.00    +0.006 A 
ATOM     17  C   UNL     1      23.902   1.935  21.714  0.00  0.00    +0.006 A 
ATOM     19  C   UNL     1      25.302   0.863  23.876  0.00  0.00    +0.019 A 
ATOM     20  C   UNL     1      24.701   0.805  21.537  0.00  0.00    +0.019 A 
ATOM     22  C   UNL     1      25.400   0.268  22.618  0.00  0.00    +0.052 A 
BRANCH  22  26
ATOM      8  N   UNL     1      26.883  -1.828  22.287  0.00  0.00    -0.191 NA
ATOM     26  C   UNL     1      26.218  -0.889  22.436  0.00  0.00    +0.099 C 
ENDBRANCH  22  26
ENDBRANCH  13  15
ENDBRANCH   4  13
ENDBRANCH  14   9
TORSDOF 9
ENDMDL
MODEL 3
REMARK VINA RESULT:      -6.0     26.484     31.273
REMARK  Name = 45783546
REMARK  10 active torsions:
REMARK  status: ('A' for Active; 'I' for Inactive)
REMARK    1  A    between atoms: O_2  and  C_27
REMARK    2  A    between atoms: O_2  and  C_28
REMARK    3  A    between atoms: O_3  and  C_29
REMARK    4  A    between atoms: O_3  and  C_30
REMARK    5  A    between atoms: N_4  and  C_13
REMARK    6  A    between atoms: C_9  and  C_14
REMARK    7  A    between atoms: C_13  and  C_15
REMARK    8  A    between atoms: C_18  and  C_21
REMARK    9  A    between atoms: C_22  and  C_26
REMARK   10  A    between atoms: C_28  and  C_29
REMARK                            x       y       z     vdW  Elec       q    Type
REMARK                         _______ _______ _______ _____ _____    ______ ____
ROOT
ATOM      1  O   UNL     1     -15.036   3.877  24.289  0.00  0.00    -0.336 OA
ATOM      5  N   UNL     1     -15.753   4.448  22.246  0.00  0.00    -0.190 NA
ATOM      6  N   UNL     1     -14.101   4.791  23.790  0.00  0.00    -0.056 NA
ATOM     14  C   UNL     1     -15.975   3.731  23.318  0.00  0.00    +0.245 A 
ATOM     18  C   UNL     1     -14.592   5.082  22.582  0.00  0.00    +0.204 A 
ENDROOT
BRANCH  18  21
ATOM      7  N   UNL     1     -14.142   7.790  20.074  0.00  0.00    -0.221 NA
ATOM     21  C   UNL     1     -13.948   6.000  21.687  0.00  0.00    +0.041 A 
ATOM     23  C   UNL     1     -12.565   6.013  21.547  0.00  0.00    +0.018 A 
ATOM     24  C   UNL     1     -14.685   6.900  20.935  0.00  0.00    +0.126 A 
ATOM     25  C   UNL     1     -11.969   6.914  20.672  0.00  0.00    +0.068 A 
ATOM     27  C   UNL     1     -12.795   7.774  19.965  0.00  0.00    +0.215 A 
BRANCH  27   2
ATOM      2  O   UNL     1     -12.231   8.671  19.095  0.00  0.00    -0.474 OA
BRANCH   2  28
ATOM     28  C   UNL     1     -12.029   8.226  17.758  0.00  0.00    +0.258 C 
BRANCH  28  29
ATOM     29  C   UNL     1     -10.555   8.332  17.420  0.00  0.00    +0.200 C 
BRANCH  29   3
ATOM      3  O   UNL     1     -10.349   7.869  16.091  0.00  0.00    -0.380 OA
ATOM     30  C   UNL     1     -10.848   8.793  15.134  0.00  0.00    +0.194 C 
ENDBRANCH  29   3
ENDBRANCH  28  29
ENDBRANCH   2  28
ENDBRANCH  27   2
ENDBRANCH  18  21
BRANCH  14   9
ATOM      4  N   UNL     1     -17.428   2.706  25.059  0.00  0.00    -0.287 NA
ATOM      9  C   UNL     1     -17.114   2.780  23.617  0.00  0.00    +0.146 C 
ATOM     10  C   UNL     1     -18.435   3.206  22.951  0.00  0.00    +0.030 C 
ATOM     11  C   UNL     1     -19.446   3.286  24.087  0.00  0.00    +0.017 C 
ATOM     12  C   UNL     1     -18.854   2.391  25.155  0.00  0.00    +0.085 C 
BRANCH   4  13
ATOM     13  C   UNL     1     -16.604   1.742  25.776  0.00  0.00    +0.120 C 
BRANCH  13  15
ATOM     15  C   UNL     1     -16.408   2.136  27.217  0.00  0.00    -0.033 A 
ATOM     16  C   UNL     1     -16.163   3.469  27.548  0.00  0.00    +0.006 A 
ATOM     17  C   UNL     1     -16.470   1.168  28.219  0.00  0.00    +0.006 A 
ATOM     19  C   UNL     1     -15.983   3.833  28.882  0.00  0.00    +0.019 A 
ATOM     20  C   UNL     1     -16.288   1.533  29.553  0.00  0.00    +0.019 A 
ATOM     22  C   UNL     1     -16.045   2.866  29.885  0.00  0.00    +0.052 A 
BRANCH  22  26
ATOM      8  N   UNL     1     -15.705   3.541  32.361  0.00  0.00    -0.191 NA
ATOM     26  C   UNL     1     -15.858   3.239  31.251  0.00  0.00    +0.099 C 
ENDBRANCH  22  26
ENDBRANCH  13  15
ENDBRANCH   4  13
ENDBRANCH  14   9
TORSDOF 9
ENDMDL
MODEL 4
REMARK VINA RESULT:      -6.0     25.890     28.363
REMARK  Name = 45783546
REMARK  10 active torsions:
REMARK  status: ('A' for Active; 'I' for Inactive)
REMARK    1  A    between atoms: O_2  and  C_27
REMARK    2  A    between atoms: O_2  and  C_28
REMARK    3  A    between atoms: O_3  and  C_29
REMARK    4  A    between atoms: O_3  and  C_30
REMARK    5  A    between atoms: N_4  and  C_13
REMARK    6  A    between atoms: C_9  and  C_14
REMARK    7  A    between atoms: C_13  and  C_15
REMARK    8  A    between atoms: C_18  and  C_21
REMARK    9  A    between atoms: C_22  and  C_26
REMARK   10  A    between atoms: C_28  and  C_29
REMARK                            x       y       z     vdW  Elec       q    Type
REMARK                         _______ _______ _______ _____ _____    ______ ____
ROOT
ATOM      1  O   UNL     1      -5.142 -12.255  15.884  0.00  0.00    -0.336 OA
ATOM      5  N   UNL     1      -5.346 -10.101  15.306  0.00  0.00    -0.190 NA
ATOM      6  N   UNL     1      -6.462 -11.896  16.180  0.00  0.00    -0.056 NA
ATOM     14  C   UNL     1      -4.554 -11.141  15.374  0.00  0.00    +0.245 A 
ATOM     18  C   UNL     1      -6.505 -10.612  15.813  0.00  0.00    +0.204 A 
ENDROOT
BRANCH  18  21
ATOM      7  N   UNL     1      -9.088  -8.392  17.305  0.00  0.00    -0.221 NA
ATOM     21  C   UNL     1      -7.690  -9.813  15.937  0.00  0.00    +0.041 A 
ATOM     23  C   UNL     1      -8.573  -9.671  14.873  0.00  0.00    +0.018 A 
ATOM     24  C   UNL     1      -7.990  -9.159  17.121  0.00  0.00    +0.126 A 
ATOM     25  C   UNL     1      -9.713  -8.889  15.023  0.00  0.00    +0.068 A 
ATOM     27  C   UNL     1      -9.923  -8.277  16.248  0.00  0.00    +0.215 A 
BRANCH  27   2
ATOM      2  O   UNL     1     -11.041  -7.502  16.422  0.00  0.00    -0.474 OA
BRANCH   2  28
ATOM     28  C   UNL     1     -11.002  -6.191  15.870  0.00  0.00    +0.258 C 
BRANCH  28  29
ATOM     29  C   UNL     1     -12.334  -5.894  15.209  0.00  0.00    +0.200 C 
BRANCH  29   3
ATOM      3  O   UNL     1     -12.114  -5.067  14.072  0.00  0.00    -0.380 OA
ATOM     30  C   UNL     1     -13.327  -4.796  13.383  0.00  0.00    +0.194 C 
ENDBRANCH  29   3
ENDBRANCH  28  29
ENDBRANCH   2  28
ENDBRANCH  27   2
ENDBRANCH  18  21
BRANCH  14   9
ATOM      4  N   UNL     1      -2.772 -10.463  13.775  0.00  0.00    -0.287 NA
ATOM      9  C   UNL     1      -3.101 -11.270  14.967  0.00  0.00    +0.146 C 
ATOM     10  C   UNL     1      -2.133 -10.771  16.056  0.00  0.00    +0.030 C 
ATOM     11  C   UNL     1      -1.260  -9.732  15.367  0.00  0.00    +0.017 C 
ATOM     12  C   UNL     1      -1.360 -10.098  13.901  0.00  0.00    +0.085 C 
BRANCH   4  13
ATOM     13  C   UNL     1      -3.050 -11.151  12.522  0.00  0.00    +0.120 C 
BRANCH  13  15
ATOM     15  C   UNL     1      -3.986 -10.361  11.644  0.00  0.00    -0.033 A 
ATOM     16  C   UNL     1      -5.358 -10.373  11.901  0.00  0.00    +0.006 A 
ATOM     17  C   UNL     1      -3.482  -9.620  10.577  0.00  0.00    +0.006 A 
ATOM     19  C   UNL     1      -6.224  -9.641  11.089  0.00  0.00    +0.019 A 
ATOM     20  C   UNL     1      -4.349  -8.888   9.764  0.00  0.00    +0.019 A 
ATOM     22  C   UNL     1      -5.720  -8.898  10.021  0.00  0.00    +0.052 A 
BRANCH  22  26
ATOM      8  N   UNL     1      -7.327  -7.540   8.513  0.00  0.00    -0.191 NA
ATOM     26  C   UNL     1      -6.607  -8.150   9.189  0.00  0.00    +0.099 C 
ENDBRANCH  22  26
ENDBRANCH  13  15
ENDBRANCH   4  13
ENDBRANCH  14   9
TORSDOF 9
ENDMDL
MODEL 5
REMARK VINA RESULT:      -5.9     26.722     28.464
REMARK  Name = 45783546
REMARK  10 active torsions:
REMARK  status: ('A' for Active; 'I' for Inactive)
REMARK    1  A    between atoms: O_2  and  C_27
REMARK    2  A    between atoms: O_2  and  C_28
REMARK    3  A    between atoms: O_3  and  C_29
REMARK    4  A    between atoms: O_3  and  C_30
REMARK    5  A    between atoms: N_4  and  C_13
REMARK    6  A    between atoms: C_9  and  C_14
REMARK    7  A    between atoms: C_13  and  C_15
REMARK    8  A    between atoms: C_18  and  C_21
REMARK    9  A    between atoms: C_22  and  C_26
REMARK   10  A    between atoms: C_28  and  C_29
REMARK                            x       y       z     vdW  Elec       q    Type
REMARK                         _______ _______ _______ _____ _____    ______ ____
ROOT
ATOM      1  O   UNL     1      -8.027  -9.725  11.347  0.00  0.00    -0.336 OA
ATOM      5  N   UNL     1      -5.980  -9.138  12.039  0.00  0.00    -0.190 NA
ATOM      6  N   UNL     1      -7.944 -10.115  12.689  0.00  0.00    -0.056 NA
ATOM     14  C   UNL     1      -6.830  -9.159  11.044  0.00  0.00    +0.245 A 
ATOM     18  C   UNL     1      -6.708  -9.736  13.027  0.00  0.00    +0.204 A 
ENDROOT
BRANCH  18  21
ATOM      7  N   UNL     1      -6.456  -9.788  16.736  0.00  0.00    -0.221 NA
ATOM     21  C   UNL     1      -6.169  -9.940  14.341  0.00  0.00    +0.041 A 
ATOM     23  C   UNL     1      -4.893 -10.461  14.519  0.00  0.00    +0.018 A 
ATOM     24  C   UNL     1      -6.905  -9.622  15.472  0.00  0.00    +0.126 A 
ATOM     25  C   UNL     1      -4.398 -10.647  15.805  0.00  0.00    +0.068 A 
ATOM     27  C   UNL     1      -5.212 -10.298  16.871  0.00  0.00    +0.215 A 
BRANCH  27   2
ATOM      2  O   UNL     1      -4.746 -10.471  18.148  0.00  0.00    -0.474 OA
BRANCH   2  28
ATOM     28  C   UNL     1      -5.645 -11.056  19.083  0.00  0.00    +0.258 C 
BRANCH  28  29
ATOM     29  C   UNL     1      -5.879 -12.505  18.703  0.00  0.00    +0.200 C 
BRANCH  29   3
ATOM      3  O   UNL     1      -7.245 -12.830  18.932  0.00  0.00    -0.380 OA
ATOM     30  C   UNL     1      -7.969 -11.715  19.435  0.00  0.00    +0.194 C 
ENDBRANCH  29   3
ENDBRANCH  28  29
ENDBRANCH   2  28
ENDBRANCH  27   2
ENDBRANCH  18  21
BRANCH  14   9
ATOM      4  N   UNL     1      -5.798  -9.516   8.808  0.00  0.00    -0.287 NA
ATOM      9  C   UNL     1      -6.665  -8.646   9.629  0.00  0.00    +0.146 C 
ATOM     10  C   UNL     1      -7.997  -8.584   8.860  0.00  0.00    +0.030 C 
ATOM     11  C   UNL     1      -7.763  -9.396   7.593  0.00  0.00    +0.017 C 
ATOM     12  C   UNL     1      -6.258  -9.372   7.427  0.00  0.00    +0.085 C 
BRANCH   4  13
ATOM     13  C   UNL     1      -4.381  -9.210   8.949  0.00  0.00    +0.120 C 
BRANCH  13  15
ATOM     15  C   UNL     1      -3.721 -10.078   9.989  0.00  0.00    -0.033 A 
ATOM     16  C   UNL     1      -4.077 -11.422  10.102  0.00  0.00    +0.006 A 
ATOM     17  C   UNL     1      -2.755  -9.537  10.837  0.00  0.00    +0.006 A 
ATOM     19  C   UNL     1      -3.465 -12.226  11.064  0.00  0.00    +0.019 A 
ATOM     20  C   UNL     1      -2.144 -10.341  11.800  0.00  0.00    +0.019 A 
ATOM     22  C   UNL     1      -2.499 -11.686  11.913  0.00  0.00    +0.052 A 
BRANCH  22  26
ATOM      8  N   UNL     1      -1.367 -13.176  13.702  0.00  0.00    -0.191 NA
ATOM     26  C   UNL     1      -1.873 -12.508  12.900  0.00  0.00    +0.099 C 
ENDBRANCH  22  26
ENDBRANCH  13  15
ENDBRANCH   4  13
ENDBRANCH  14   9
TORSDOF 9
ENDMDL
MODEL 6
REMARK VINA RESULT:      -5.9     26.936     29.100
REMARK  Name = 45783546
REMARK  10 active torsions:
REMARK  status: ('A' for Active; 'I' for Inactive)
REMARK    1  A    between atoms: O_2  and  C_27
REMARK    2  A    between atoms: O_2  and  C_28
REMARK    3  A    between atoms: O_3  and  C_29
REMARK    4  A    between atoms: O_3  and  C_30
REMARK    5  A    between atoms: N_4  and  C_13
REMARK    6  A    between atoms: C_9  and  C_14
REMARK    7  A    between atoms: C_13  and  C_15
REMARK    8  A    between atoms: C_18  and  C_21
REMARK    9  A    between atoms: C_22  and  C_26
REMARK   10  A    between atoms: C_28  and  C_29
REMARK                            x       y       z     vdW  Elec       q    Type
REMARK                         _______ _______ _______ _____ _____    ______ ____
ROOT
ATOM      1  O   UNL     1      -5.192 -11.227  13.331  0.00  0.00    -0.336 OA
ATOM      5  N   UNL     1      -4.579  -9.755  11.758  0.00  0.00    -0.190 NA
ATOM      6  N   UNL     1      -6.364 -10.872  12.653  0.00  0.00    -0.056 NA
ATOM     14  C   UNL     1      -4.189 -10.525  12.742  0.00  0.00    +0.245 A 
ATOM     18  C   UNL     1      -5.921 -10.002  11.741  0.00  0.00    +0.204 A 
ENDROOT
BRANCH  18  21
ATOM      7  N   UNL     1      -7.050  -7.931   8.866  0.00  0.00    -0.221 NA
ATOM     21  C   UNL     1      -6.793  -9.361  10.798  0.00  0.00    +0.041 A 
ATOM     23  C   UNL     1      -8.171  -9.520  10.873  0.00  0.00    +0.018 A 
ATOM     24  C   UNL     1      -6.285  -8.564   9.784  0.00  0.00    +0.126 A 
ATOM     25  C   UNL     1      -8.990  -8.887   9.945  0.00  0.00    +0.068 A 
ATOM     27  C   UNL     1      -8.385  -8.110   8.970  0.00  0.00    +0.215 A 
BRANCH  27   2
ATOM      2  O   UNL     1      -9.172  -7.475   8.044  0.00  0.00    -0.474 OA
BRANCH   2  28
ATOM     28  C   UNL     1      -9.091  -6.055   8.003  0.00  0.00    +0.258 C 
BRANCH  28  29
ATOM     29  C   UNL     1     -10.221  -5.472   8.830  0.00  0.00    +0.200 C 
BRANCH  29   3
ATOM      3  O   UNL     1     -10.023  -4.070   8.963  0.00  0.00    -0.380 OA
ATOM     30  C   UNL     1     -11.197  -3.421   9.435  0.00  0.00    +0.194 C 
ENDBRANCH  29   3
ENDBRANCH  28  29
ENDBRANCH   2  28
ENDBRANCH  27   2
ENDBRANCH  18  21
BRANCH  14   9
ATOM      4  N   UNL     1      -2.816 -11.271  14.680  0.00  0.00    -0.287 NA
ATOM      9  C   UNL     1      -2.798 -10.736  13.303  0.00  0.00    +0.146 C 
ATOM     10  C   UNL     1      -1.981 -11.761  12.496  0.00  0.00    +0.030 C 
ATOM     11  C   UNL     1      -1.531 -12.801  13.513  0.00  0.00    +0.017 C 
ATOM     12  C   UNL     1      -1.593 -12.059  14.832  0.00  0.00    +0.085 C 
BRANCH   4  13
ATOM     13  C   UNL     1      -2.929 -10.233  15.696  0.00  0.00    +0.120 C 
BRANCH  13  15
ATOM     15  C   UNL     1      -4.109 -10.465  16.604  0.00  0.00    -0.033 A 
ATOM     16  C   UNL     1      -5.317  -9.810  16.358  0.00  0.00    +0.006 A 
ATOM     17  C   UNL     1      -3.994 -11.333  17.689  0.00  0.00    +0.006 A 
ATOM     19  C   UNL     1      -6.409 -10.026  17.198  0.00  0.00    +0.019 A 
ATOM     20  C   UNL     1      -5.087 -11.548  18.529  0.00  0.00    +0.019 A 
ATOM     22  C   UNL     1      -6.295 -10.894  18.283  0.00  0.00    +0.052 A 
BRANCH  22  26
ATOM      8  N   UNL     1      -8.323 -11.291  19.843  0.00  0.00    -0.191 NA
ATOM     26  C   UNL     1      -7.413 -11.114  19.145  0.00  0.00    +0.099 C 
ENDBRANCH  22  26
ENDBRANCH  13  15
ENDBRANCH   4  13
ENDBRANCH  14   9
TORSDOF 9
ENDMDL
MODEL 7
REMARK VINA RESULT:      -5.8      7.942     11.985
REMARK  Name = 45783546
REMARK  10 active torsions:
REMARK  status: ('A' for Active; 'I' for Inactive)
REMARK    1  A    between atoms: O_2  and  C_27
REMARK    2  A    between atoms: O_2  and  C_28
REMARK    3  A    between atoms: O_3  and  C_29
REMARK    4  A    between atoms: O_3  and  C_30
REMARK    5  A    between atoms: N_4  and  C_13
REMARK    6  A    between atoms: C_9  and  C_14
REMARK    7  A    between atoms: C_13  and  C_15
REMARK    8  A    between atoms: C_18  and  C_21
REMARK    9  A    between atoms: C_22  and  C_26
REMARK   10  A    between atoms: C_28  and  C_29
REMARK                            x       y       z     vdW  Elec       q    Type
REMARK                         _______ _______ _______ _____ _____    ______ ____
ROOT
ATOM      1  O   UNL     1      18.825   5.345  19.662  0.00  0.00    -0.336 OA
ATOM      5  N   UNL     1      18.277   7.120  20.913  0.00  0.00    -0.190 NA
ATOM      6  N   UNL     1      17.532   5.713  19.271  0.00  0.00    -0.056 NA
ATOM     14  C   UNL     1      19.189   6.224  20.632  0.00  0.00    +0.245 A 
ATOM     18  C   UNL     1      17.278   6.766  20.053  0.00  0.00    +0.204 A 
ENDROOT
BRANCH  18  21
ATOM      7  N   UNL     1      13.943   7.911  18.874  0.00  0.00    -0.221 NA
ATOM     21  C   UNL     1      16.038   7.487  20.001  0.00  0.00    +0.041 A 
ATOM     23  C   UNL     1      15.716   8.427  20.973  0.00  0.00    +0.018 A 
ATOM     24  C   UNL     1      15.126   7.266  18.982  0.00  0.00    +0.126 A 
ATOM     25  C   UNL     1      14.507   9.110  20.896  0.00  0.00    +0.068 A 
ATOM     27  C   UNL     1      13.663   8.818  19.836  0.00  0.00    +0.215 A 
BRANCH  27   2
ATOM      2  O   UNL     1      12.466   9.479  19.738  0.00  0.00    -0.474 OA
BRANCH   2  28
ATOM     28  C   UNL     1      11.310   8.679  19.517  0.00  0.00    +0.258 C 
BRANCH  28  29
ATOM     29  C   UNL     1      11.011   7.885  20.774  0.00  0.00    +0.200 C 
BRANCH  29   3
ATOM      3  O   UNL     1      11.348   6.521  20.553  0.00  0.00    -0.380 OA
ATOM     30  C   UNL     1      11.037   5.718  21.684  0.00  0.00    +0.194 C 
ENDBRANCH  29   3
ENDBRANCH  28  29
ENDBRANCH   2  28
ENDBRANCH  27   2
ENDBRANCH  18  21
BRANCH  14   9
ATOM      4  N   UNL     1      21.383   5.060  20.479  0.00  0.00    -0.287 NA
ATOM      9  C   UNL     1      20.568   6.038  21.228  0.00  0.00    +0.146 C 
ATOM     10  C   UNL     1      21.401   7.333  21.216  0.00  0.00    +0.030 C 
ATOM     11  C   UNL     1      22.691   6.969  20.493  0.00  0.00    +0.017 C 
ATOM     12  C   UNL     1      22.778   5.466  20.654  0.00  0.00    +0.085 C 
BRANCH   4  13
ATOM     13  C   UNL     1      21.156   3.684  20.897  0.00  0.00    +0.120 C 
BRANCH  13  15
ATOM     15  C   UNL     1      22.356   3.108  21.604  0.00  0.00    -0.033 A 
ATOM     16  C   UNL     1      23.272   2.327  20.899  0.00  0.00    +0.006 A 
ATOM     17  C   UNL     1      22.549   3.355  22.963  0.00  0.00    +0.006 A 
ATOM     19  C   UNL     1      24.383   1.795  21.554  0.00  0.00    +0.019 A 
ATOM     20  C   UNL     1      23.659   2.821  23.618  0.00  0.00    +0.019 A 
ATOM     22  C   UNL     1      24.577   2.042  22.913  0.00  0.00    +0.052 A 
BRANCH  22  26
ATOM      8  N   UNL     1      26.637   1.051  24.127  0.00  0.00    -0.191 NA
ATOM     26  C   UNL     1      25.713   1.496  23.584  0.00  0.00    +0.099 C 
ENDBRANCH  22  26
ENDBRANCH  13  15
ENDBRANCH   4  13
ENDBRANCH  14   9
TORSDOF 9
ENDMDL
MODEL 8
REMARK VINA RESULT:      -5.7     11.314     15.816
REMARK  Name = 45783546
REMARK  10 active torsions:
REMARK  status: ('A' for Active; 'I' for Inactive)
REMARK    1  A    between atoms: O_2  and  C_27
REMARK    2  A    between atoms: O_2  and  C_28
REMARK    3  A    between atoms: O_3  and  C_29
REMARK    4  A    between atoms: O_3  and  C_30
REMARK    5  A    between atoms: N_4  and  C_13
REMARK    6  A    between atoms: C_9  and  C_14
REMARK    7  A    between atoms: C_13  and  C_15
REMARK    8  A    between atoms: C_18  and  C_21
REMARK    9  A    between atoms: C_22  and  C_26
REMARK   10  A    between atoms: C_28  and  C_29
REMARK                            x       y       z     vdW  Elec       q    Type
REMARK                         _______ _______ _______ _____ _____    ______ ____
ROOT
ATOM      1  O   UNL     1      10.005   4.580   5.535  0.00  0.00    -0.336 OA
ATOM      5  N   UNL     1      11.152   5.915   4.150  0.00  0.00    -0.190 NA
ATOM      6  N   UNL     1      10.218   3.838   4.367  0.00  0.00    -0.056 NA
ATOM     14  C   UNL     1      10.586   5.790   5.324  0.00  0.00    +0.245 A 
ATOM     18  C   UNL     1      10.900   4.692   3.599  0.00  0.00    +0.204 A 
ENDROOT
BRANCH  18  21
ATOM      7  N   UNL     1      12.965   3.258   0.859  0.00  0.00    -0.221 NA
ATOM     21  C   UNL     1      11.344   4.356   2.276  0.00  0.00    +0.041 A 
ATOM     23  C   UNL     1      10.634   4.773   1.155  0.00  0.00    +0.018 A 
ATOM     24  C   UNL     1      12.492   3.607   2.077  0.00  0.00    +0.126 A 
ATOM     25  C   UNL     1      11.089   4.432  -0.113  0.00  0.00    +0.068 A 
ATOM     27  C   UNL     1      12.250   3.680  -0.207  0.00  0.00    +0.215 A 
BRANCH  27   2
ATOM      2  O   UNL     1      12.719   3.332  -1.447  0.00  0.00    -0.474 OA
BRANCH   2  28
ATOM     28  C   UNL     1      12.034   3.881  -2.567  0.00  0.00    +0.258 C 
BRANCH  28  29
ATOM     29  C   UNL     1      11.492   2.749  -3.417  0.00  0.00    +0.200 C 
BRANCH  29   3
ATOM      3  O   UNL     1      10.172   2.436  -2.987  0.00  0.00    -0.380 OA
ATOM     30  C   UNL     1       9.212   2.742  -3.988  0.00  0.00    +0.194 C 
ENDBRANCH  29   3
ENDBRANCH  28  29
ENDBRANCH   2  28
ENDBRANCH  27   2
ENDBRANCH  18  21
BRANCH  14   9
ATOM      4  N   UNL     1       9.374   7.738   6.287  0.00  0.00    -0.287 NA
ATOM      9  C   UNL     1      10.494   6.790   6.457  0.00  0.00    +0.146 C 
ATOM     10  C   UNL     1      10.239   6.122   7.820  0.00  0.00    +0.030 C 
ATOM     11  C   UNL     1       8.991   6.801   8.368  0.00  0.00    +0.017 C 
ATOM     12  C   UNL     1       8.954   8.126   7.634  0.00  0.00    +0.085 C 
BRANCH   4  13
ATOM     13  C   UNL     1       9.717   8.891   5.466  0.00  0.00    +0.120 C 
BRANCH  13  15
ATOM     15  C   UNL     1       8.741   9.085   4.336  0.00  0.00    -0.033 A 
ATOM     16  C   UNL     1       7.521   9.721   4.570  0.00  0.00    +0.006 A 
ATOM     17  C   UNL     1       9.056   8.628   3.057  0.00  0.00    +0.006 A 
ATOM     19  C   UNL     1       6.618   9.901   3.522  0.00  0.00    +0.019 A 
ATOM     20  C   UNL     1       8.151   8.808   2.009  0.00  0.00    +0.019 A 
ATOM     22  C   UNL     1       6.932   9.445   2.243  0.00  0.00    +0.052 A 
BRANCH  22  26
ATOM      8  N   UNL     1       5.255   9.776   0.298  0.00  0.00    -0.191 NA
ATOM     26  C   UNL     1       6.006   9.628   1.170  0.00  0.00    +0.099 C 
ENDBRANCH  22  26
ENDBRANCH  13  15
ENDBRANCH   4  13
ENDBRANCH  14   9
TORSDOF 9
ENDMDL
MODEL 9
REMARK VINA RESULT:      -5.7     25.792     28.675
REMARK  Name = 45783546
REMARK  10 active torsions:
REMARK  status: ('A' for Active; 'I' for Inactive)
REMARK    1  A    between atoms: O_2  and  C_27
REMARK    2  A    between atoms: O_2  and  C_28
REMARK    3  A    between atoms: O_3  and  C_29
REMARK    4  A    between atoms: O_3  and  C_30
REMARK    5  A    between atoms: N_4  and  C_13
REMARK    6  A    between atoms: C_9  and  C_14
REMARK    7  A    between atoms: C_13  and  C_15
REMARK    8  A    between atoms: C_18  and  C_21
REMARK    9  A    between atoms: C_22  and  C_26
REMARK   10  A    between atoms: C_28  and  C_29
REMARK                            x       y       z     vdW  Elec       q    Type
REMARK                         _______ _______ _______ _____ _____    ______ ____
ROOT
ATOM      1  O   UNL     1      -4.255 -13.148  15.336  0.00  0.00    -0.336 OA
ATOM      5  N   UNL     1      -4.433 -11.252  16.514  0.00  0.00    -0.190 NA
ATOM      6  N   UNL     1      -5.446 -13.253  16.064  0.00  0.00    -0.056 NA
ATOM     14  C   UNL     1      -3.722 -11.941  15.659  0.00  0.00    +0.245 A 
ATOM     18  C   UNL     1      -5.482 -12.098  16.735  0.00  0.00    +0.204 A 
ENDROOT
BRANCH  18  21
ATOM      7  N   UNL     1      -8.343 -10.252  18.228  0.00  0.00    -0.221 NA
ATOM     21  C   UNL     1      -6.549 -11.757  17.632  0.00  0.00    +0.041 A 
ATOM     23  C   UNL     1      -6.834 -12.549  18.738  0.00  0.00    +0.018 A 
ATOM     24  C   UNL     1      -7.325 -10.629  17.422  0.00  0.00    +0.126 A 
ATOM     25  C   UNL     1      -7.875 -12.194  19.589  0.00  0.00    +0.068 A 
ATOM     27  C   UNL     1      -8.592 -11.046  19.293  0.00  0.00    +0.215 A 
BRANCH  27   2
ATOM      2  O   UNL     1      -9.622 -10.674  20.118  0.00  0.00    -0.474 OA
BRANCH   2  28
ATOM     28  C   UNL     1     -10.792 -11.483  20.086  0.00  0.00    +0.258 C 
BRANCH  28  29
ATOM     29  C   UNL     1     -12.013 -10.586  20.084  0.00  0.00    +0.200 C 
BRANCH  29   3
ATOM      3  O   UNL     1     -11.830  -9.553  19.123  0.00  0.00    -0.380 OA
ATOM     30  C   UNL     1     -12.119 -10.008  17.808  0.00  0.00    +0.194 C 
ENDBRANCH  29   3
ENDBRANCH  28  29
ENDBRANCH   2  28
ENDBRANCH  27   2
ENDBRANCH  18  21
BRANCH  14   9
ATOM      4  N   UNL     1      -2.588 -10.663  13.848  0.00  0.00    -0.287 NA
ATOM      9  C   UNL     1      -2.411 -11.582  14.991  0.00  0.00    +0.146 C 
ATOM     10  C   UNL     1      -1.444 -10.847  15.937  0.00  0.00    +0.030 C 
ATOM     11  C   UNL     1      -1.086  -9.555  15.215  0.00  0.00    +0.017 C 
ATOM     12  C   UNL     1      -1.360  -9.873  13.760  0.00  0.00    +0.085 C 
BRANCH   4  13
ATOM     13  C   UNL     1      -2.888 -11.352  12.600  0.00  0.00    +0.120 C 
BRANCH  13  15
ATOM     15  C   UNL     1      -3.811 -10.547  11.724  0.00  0.00    -0.033 A 
ATOM     16  C   UNL     1      -5.136 -10.340  12.111  0.00  0.00    +0.006 A 
ATOM     17  C   UNL     1      -3.343 -10.009  10.526  0.00  0.00    +0.006 A 
ATOM     19  C   UNL     1      -5.990  -9.594  11.300  0.00  0.00    +0.019 A 
ATOM     20  C   UNL     1      -4.198  -9.263   9.714  0.00  0.00    +0.019 A 
ATOM     22  C   UNL     1      -5.522  -9.055  10.102  0.00  0.00    +0.052 A 
BRANCH  22  26
ATOM      8  N   UNL     1      -7.108  -7.670   8.595  0.00  0.00    -0.191 NA
ATOM     26  C   UNL     1      -6.397  -8.292   9.270  0.00  0.00    +0.099 C 
ENDBRANCH  22  26
ENDBRANCH  13  15
ENDBRANCH   4  13
ENDBRANCH  14   9
TORSDOF 9
ENDMDL
MODEL 10
REMARK VINA RESULT:      -5.7     12.791     15.943
REMARK  Name = 45783546
REMARK  10 active torsions:
REMARK  status: ('A' for Active; 'I' for Inactive)
REMARK    1  A    between atoms: O_2  and  C_27
REMARK    2  A    between atoms: O_2  and  C_28
REMARK    3  A    between atoms: O_3  and  C_29
REMARK    4  A    between atoms: O_3  and  C_30
REMARK    5  A    between atoms: N_4  and  C_13
REMARK    6  A    between atoms: C_9  and  C_14
REMARK    7  A    between atoms: C_13  and  C_15
REMARK    8  A    between atoms: C_18  and  C_21
REMARK    9  A    between atoms: C_22  and  C_26
REMARK   10  A    between atoms: C_28  and  C_29
REMARK                            x       y       z     vdW  Elec       q    Type
REMARK                         _______ _______ _______ _____ _____    ______ ____
ROOT
ATOM      1  O   UNL     1      13.586   6.119   0.808  0.00  0.00    -0.336 OA
ATOM      5  N   UNL     1      12.394   4.467   1.738  0.00  0.00    -0.190 NA
ATOM      6  N   UNL     1      12.966   6.673   1.934  0.00  0.00    -0.056 NA
ATOM     14  C   UNL     1      13.197   4.818   0.766  0.00  0.00    +0.245 A 
ATOM     18  C   UNL     1      12.281   5.639   2.429  0.00  0.00    +0.204 A 
ENDROOT
BRANCH  18  21
ATOM      7  N   UNL     1       9.547   4.997   4.867  0.00  0.00    -0.221 NA
ATOM     21  C   UNL     1      11.474   5.741   3.612  0.00  0.00    +0.041 A 
ATOM     23  C   UNL     1      11.797   6.638   4.624  0.00  0.00    +0.018 A 
ATOM     24  C   UNL     1      10.350   4.949   3.780  0.00  0.00    +0.126 A 
ATOM     25  C   UNL     1      10.997   6.714   5.758  0.00  0.00    +0.068 A 
ATOM     27  C   UNL     1       9.893   5.880   5.830  0.00  0.00    +0.215 A 
BRANCH  27   2
ATOM      2  O   UNL     1       9.088   5.937   6.938  0.00  0.00    -0.474 OA
BRANCH   2  28
ATOM     28  C   UNL     1       9.729   5.811   8.202  0.00  0.00    +0.258 C 
BRANCH  28  29
ATOM     29  C   UNL     1       9.847   4.340   8.552  0.00  0.00    +0.200 C 
BRANCH  29   3
ATOM      3  O   UNL     1       9.854   4.198   9.967  0.00  0.00    -0.380 OA
ATOM     30  C   UNL     1       8.633   4.642  10.541  0.00  0.00    +0.194 C 
ENDBRANCH  29   3
ENDBRANCH  28  29
ENDBRANCH   2  28
ENDBRANCH  27   2
ENDBRANCH  18  21
BRANCH  14   9
ATOM      4  N   UNL     1      12.937   4.120  -1.609  0.00  0.00    -0.287 NA
ATOM      9  C   UNL     1      13.741   3.987  -0.377  0.00  0.00    +0.146 C 
ATOM     10  C   UNL     1      15.164   4.405  -0.791  0.00  0.00    +0.030 C 
ATOM     11  C   UNL     1      15.075   4.695  -2.283  0.00  0.00    +0.017 C 
ATOM     12  C   UNL     1      13.858   3.911  -2.727  0.00  0.00    +0.085 C 
BRANCH   4  13
ATOM     13  C   UNL     1      11.802   3.208  -1.655  0.00  0.00    +0.120 C 
BRANCH  13  15
ATOM     15  C   UNL     1      10.631   3.808  -2.389  0.00  0.00    -0.033 A 
ATOM     16  C   UNL     1      10.147   3.195  -3.546  0.00  0.00    +0.006 A 
ATOM     17  C   UNL     1      10.033   4.973  -1.914  0.00  0.00    +0.006 A 
ATOM     19  C   UNL     1       9.063   3.750  -4.225  0.00  0.00    +0.019 A 
ATOM     20  C   UNL     1       8.948   5.528  -2.594  0.00  0.00    +0.019 A 
ATOM     22  C   UNL     1       8.463   4.916  -3.750  0.00  0.00    +0.052 A 
BRANCH  22  26
ATOM      8  N   UNL     1       6.453   5.947  -5.014  0.00  0.00    -0.191 NA
ATOM     26  C   UNL     1       7.353   5.484  -4.447  0.00  0.00    +0.099 C 
ENDBRANCH  22  26
ENDBRANCH  13  15
ENDBRANCH   4  13
ENDBRANCH  14   9
TORSDOF 9
ENDMDL
