MODEL 1
REMARK VINA RESULT:      -5.8      0.000      0.000
REMARK  Name = 75536893
REMARK  3 active torsions:
REMARK  status: ('A' for Active; 'I' for Inactive)
REMARK    1  A    between atoms: O_3  and  C_12
REMARK    2  A    between atoms: O_3  and  C_15
REMARK    3  A    between atoms: C_6  and  C_9
REMARK                            x       y       z     vdW  Elec       q    Type
REMARK                         _______ _______ _______ _____ _____    ______ ____
ROOT
ATOM      1  O   UNL     1      14.779   8.138  21.004  0.00  0.00    -0.375 OA
ATOM      2  O   UNL     1      10.345   8.742  18.469  0.00  0.00    -0.275 OA
ATOM      4  N   UNL     1      12.290   7.771  19.325  0.00  0.00    -0.295 N 
ATOM      9  C   UNL     1      11.476   8.293  18.305  0.00  0.00    +0.219 C 
ATOM     10  C   UNL     1      11.785   7.773  20.700  0.00  0.00    +0.154 C 
ATOM     11  C   UNL     1      13.636   7.249  19.060  0.00  0.00    +0.136 C 
ATOM     12  C   UNL     1      12.481   8.826  21.564  0.00  0.00    +0.216 C 
ATOM     13  C   UNL     1      14.500   6.947  20.276  0.00  0.00    +0.179 C 
ATOM     14  C   UNL     1      13.857   8.389  22.057  0.00  0.00    +0.206 C 
ENDROOT
BRANCH   9   6
ATOM      6  C   UNL     1      12.047   8.319  16.921  0.00  0.00    +0.075 C 
ATOM      7  C   UNL     1      12.628   9.597  16.421  0.00  0.00    +0.013 C 
ATOM      8  C   UNL     1      11.326   9.095  15.873  0.00  0.00    +0.013 C 
ENDBRANCH   9   6
BRANCH  12   3
ATOM      3  O   UNL     1      11.652   9.079  22.697  0.00  0.00    -0.483 OA
BRANCH   3  15
ATOM      5  N   UNL     1      10.544  12.072  24.483  0.00  0.00    -0.260 NA
ATOM     15  C   UNL     1      11.317  10.385  22.932  0.00  0.00    +0.139 A 
ATOM     16  C   UNL     1      11.396  11.338  21.924  0.00  0.00    +0.049 A 
ATOM     17  C   UNL     1      10.889  10.799  24.184  0.00  0.00    +0.156 A 
ATOM     18  C   UNL     1      11.049  12.657  22.192  0.00  0.00    +0.023 A 
ATOM     19  C   UNL     1      10.633  12.970  23.476  0.00  0.00    +0.111 A 
ENDBRANCH   3  15
ENDBRANCH  12   3
TORSDOF 3
ENDMDL
MODEL 2
REMARK VINA RESULT:      -5.7      2.060      6.186
REMARK  Name = 75536893
REMARK  3 active torsions:
REMARK  status: ('A' for Active; 'I' for Inactive)
REMARK    1  A    between atoms: O_3  and  C_12
REMARK    2  A    between atoms: O_3  and  C_15
REMARK    3  A    between atoms: C_6  and  C_9
REMARK                            x       y       z     vdW  Elec       q    Type
REMARK                         _______ _______ _______ _____ _____    ______ ____
ROOT
ATOM      1  O   UNL     1      10.835   7.341  20.494  0.00  0.00    -0.375 OA
ATOM      2  O   UNL     1      13.165  11.402  22.625  0.00  0.00    -0.275 OA
ATOM      4  N   UNL     1      12.121   9.326  22.380  0.00  0.00    -0.295 N 
ATOM      9  C   UNL     1      12.198  10.665  22.799  0.00  0.00    +0.219 C 
ATOM     10  C   UNL     1      13.256   8.747  21.659  0.00  0.00    +0.154 C 
ATOM     11  C   UNL     1      10.932   8.500  22.622  0.00  0.00    +0.136 C 
ATOM     12  C   UNL     1      12.953   8.558  20.172  0.00  0.00    +0.216 C 
ATOM     13  C   UNL     1      10.879   7.157  21.906  0.00  0.00    +0.179 C 
ATOM     14  C   UNL     1      12.116   7.315  19.879  0.00  0.00    +0.206 C 
ENDROOT
BRANCH   9   6
ATOM      6  C   UNL     1      10.999  11.236  23.490  0.00  0.00    +0.075 C 
ATOM      7  C   UNL     1      11.048  12.658  23.933  0.00  0.00    +0.013 C 
ATOM      8  C   UNL     1      11.102  11.550  24.942  0.00  0.00    +0.013 C 
ENDBRANCH   9   6
BRANCH  12   3
ATOM      3  O   UNL     1      14.197   8.441  19.483  0.00  0.00    -0.483 OA
BRANCH   3  15
ATOM      5  N   UNL     1      14.049   8.403  15.830  0.00  0.00    -0.260 NA
ATOM     15  C   UNL     1      14.227   8.891  18.192  0.00  0.00    +0.139 A 
ATOM     16  C   UNL     1      14.457  10.231  17.905  0.00  0.00    +0.049 A 
ATOM     17  C   UNL     1      14.030   8.025  17.128  0.00  0.00    +0.156 A 
ATOM     18  C   UNL     1      14.482  10.660  16.582  0.00  0.00    +0.023 A 
ATOM     19  C   UNL     1      14.275   9.715  15.591  0.00  0.00    +0.111 A 
ENDBRANCH   3  15
ENDBRANCH  12   3
TORSDOF 3
ENDMDL
MODEL 3
REMARK VINA RESULT:      -5.6      2.849      6.204
REMARK  Name = 75536893
REMARK  3 active torsions:
REMARK  status: ('A' for Active; 'I' for Inactive)
REMARK    1  A    between atoms: O_3  and  C_12
REMARK    2  A    between atoms: O_3  and  C_15
REMARK    3  A    between atoms: C_6  and  C_9
REMARK                            x       y       z     vdW  Elec       q    Type
REMARK                         _______ _______ _______ _____ _____    ______ ____
ROOT
ATOM      1  O   UNL     1      13.759   8.032  17.277  0.00  0.00    -0.375 OA
ATOM      2  O   UNL     1      13.051   8.618  22.338  0.00  0.00    -0.275 OA
ATOM      4  N   UNL     1      12.645   8.139  20.088  0.00  0.00    -0.295 N 
ATOM      9  C   UNL     1      12.513   8.889  21.269  0.00  0.00    +0.219 C 
ATOM     10  C   UNL     1      13.504   6.953  20.098  0.00  0.00    +0.154 C 
ATOM     11  C   UNL     1      11.971   8.521  18.841  0.00  0.00    +0.136 C 
ATOM     12  C   UNL     1      14.810   7.184  19.338  0.00  0.00    +0.216 C 
ATOM     13  C   UNL     1      12.393   7.773  17.583  0.00  0.00    +0.179 C 
ATOM     14  C   UNL     1      14.655   7.073  17.823  0.00  0.00    +0.206 C 
ENDROOT
BRANCH   9   6
ATOM      6  C   UNL     1      11.666  10.122  21.204  0.00  0.00    +0.075 C 
ATOM      7  C   UNL     1      12.230  11.395  21.734  0.00  0.00    +0.013 C 
ATOM      8  C   UNL     1      11.139  10.686  22.478  0.00  0.00    +0.013 C 
ENDBRANCH   9   6
BRANCH  12   3
ATOM      3  O   UNL     1      15.749   6.203  19.772  0.00  0.00    -0.483 OA
BRANCH   3  15
ATOM      5  N   UNL     1      19.333   6.432  20.464  0.00  0.00    -0.260 NA
ATOM     15  C   UNL     1      16.933   6.667  20.276  0.00  0.00    +0.139 A 
ATOM     16  C   UNL     1      16.974   7.797  21.085  0.00  0.00    +0.049 A 
ATOM     17  C   UNL     1      18.130   6.026  19.998  0.00  0.00    +0.156 A 
ATOM     18  C   UNL     1      18.191   8.246  21.584  0.00  0.00    +0.023 A 
ATOM     19  C   UNL     1      19.331   7.534  21.247  0.00  0.00    +0.111 A 
ENDBRANCH   3  15
ENDBRANCH  12   3
TORSDOF 3
ENDMDL
MODEL 4
REMARK VINA RESULT:      -5.4      2.262      3.512
REMARK  Name = 75536893
REMARK  3 active torsions:
REMARK  status: ('A' for Active; 'I' for Inactive)
REMARK    1  A    between atoms: O_3  and  C_12
REMARK    2  A    between atoms: O_3  and  C_15
REMARK    3  A    between atoms: C_6  and  C_9
REMARK                            x       y       z     vdW  Elec       q    Type
REMARK                         _______ _______ _______ _____ _____    ______ ____
ROOT
ATOM      1  O   UNL     1      10.900   7.725  22.567  0.00  0.00    -0.375 OA
ATOM      2  O   UNL     1      15.004   8.840  19.673  0.00  0.00    -0.275 OA
ATOM      4  N   UNL     1      13.028   7.841  20.420  0.00  0.00    -0.295 N 
ATOM      9  C   UNL     1      14.404   7.873  20.133  0.00  0.00    +0.219 C 
ATOM     10  C   UNL     1      12.231   9.046  20.185  0.00  0.00    +0.154 C 
ATOM     11  C   UNL     1      12.373   6.648  20.970  0.00  0.00    +0.136 C 
ATOM     12  C   UNL     1      11.835   9.735  21.491  0.00  0.00    +0.216 C 
ATOM     13  C   UNL     1      10.945   6.824  21.465  0.00  0.00    +0.179 C 
ATOM     14  C   UNL     1      10.650   9.072  22.188  0.00  0.00    +0.206 C 
ENDROOT
BRANCH   9   6
ATOM      6  C   UNL     1      15.194   6.637  20.434  0.00  0.00    +0.075 C 
ATOM      7  C   UNL     1      16.615   6.792  20.854  0.00  0.00    +0.013 C 
ATOM      8  C   UNL     1      16.285   6.249  19.496  0.00  0.00    +0.013 C 
ENDBRANCH   9   6
BRANCH  12   3
ATOM      3  O   UNL     1      11.487  11.084  21.186  0.00  0.00    -0.483 OA
BRANCH   3  15
ATOM      5  N   UNL     1      12.927  12.704  24.131  0.00  0.00    -0.260 NA
ATOM     15  C   UNL     1      11.686  12.007  22.176  0.00  0.00    +0.139 A 
ATOM     16  C   UNL     1      10.898  13.149  22.260  0.00  0.00    +0.049 A 
ATOM     17  C   UNL     1      12.678  11.833  23.128  0.00  0.00    +0.156 A 
ATOM     18  C   UNL     1      11.123  14.070  23.277  0.00  0.00    +0.023 A 
ATOM     19  C   UNL     1      12.140  13.803  24.180  0.00  0.00    +0.111 A 
ENDBRANCH   3  15
ENDBRANCH  12   3
TORSDOF 3
ENDMDL
MODEL 5
REMARK VINA RESULT:      -5.4      2.241      6.203
REMARK  Name = 75536893
REMARK  3 active torsions:
REMARK  status: ('A' for Active; 'I' for Inactive)
REMARK    1  A    between atoms: O_3  and  C_12
REMARK    2  A    between atoms: O_3  and  C_15
REMARK    3  A    between atoms: C_6  and  C_9
REMARK                            x       y       z     vdW  Elec       q    Type
REMARK                         _______ _______ _______ _____ _____    ______ ____
ROOT
ATOM      1  O   UNL     1      10.733   7.821  20.301  0.00  0.00    -0.375 OA
ATOM      2  O   UNL     1      12.909  11.689  22.901  0.00  0.00    -0.275 OA
ATOM      4  N   UNL     1      12.022   9.589  22.390  0.00  0.00    -0.295 N 
ATOM      9  C   UNL     1      12.027  10.844  23.022  0.00  0.00    +0.219 C 
ATOM     10  C   UNL     1      13.128   9.248  21.493  0.00  0.00    +0.154 C 
ATOM     11  C   UNL     1      10.933   8.623  22.581  0.00  0.00    +0.136 C 
ATOM     12  C   UNL     1      12.703   9.274  20.024  0.00  0.00    +0.216 C 
ATOM     13  C   UNL     1      10.925   7.416  21.653  0.00  0.00    +0.179 C 
ATOM     14  C   UNL     1      11.949   8.020  19.591  0.00  0.00    +0.206 C 
ENDROOT
BRANCH   9   6
ATOM      6  C   UNL     1      10.854  11.175  23.893  0.00  0.00    +0.075 C 
ATOM      7  C   UNL     1      10.545  12.611  24.144  0.00  0.00    +0.013 C 
ATOM      8  C   UNL     1      11.115  11.760  25.238  0.00  0.00    +0.013 C 
ENDBRANCH   9   6
BRANCH  12   3
ATOM      3  O   UNL     1      13.882   9.392  19.230  0.00  0.00    -0.483 OA
BRANCH   3  15
ATOM      5  N   UNL     1      17.024   8.188  20.662  0.00  0.00    -0.260 NA
ATOM     15  C   UNL     1      14.914   8.548  19.536  0.00  0.00    +0.139 A 
ATOM     16  C   UNL     1      14.934   7.241  19.066  0.00  0.00    +0.049 A 
ATOM     17  C   UNL     1      15.974   8.970  20.323  0.00  0.00    +0.156 A 
ATOM     18  C   UNL     1      15.996   6.405  19.392  0.00  0.00    +0.023 A 
ATOM     19  C   UNL     1      17.008   6.923  20.185  0.00  0.00    +0.111 A 
ENDBRANCH   3  15
ENDBRANCH  12   3
TORSDOF 3
ENDMDL
MODEL 6
REMARK VINA RESULT:      -5.2     13.753     17.468
REMARK  Name = 75536893
REMARK  3 active torsions:
REMARK  status: ('A' for Active; 'I' for Inactive)
REMARK    1  A    between atoms: O_3  and  C_12
REMARK    2  A    between atoms: O_3  and  C_15
REMARK    3  A    between atoms: C_6  and  C_9
REMARK                            x       y       z     vdW  Elec       q    Type
REMARK                         _______ _______ _______ _____ _____    ______ ____
ROOT
ATOM      1  O   UNL     1      13.065   8.529   5.580  0.00  0.00    -0.375 OA
ATOM      2  O   UNL     1       9.818   4.564   6.021  0.00  0.00    -0.275 OA
ATOM      4  N   UNL     1      10.695   6.727   6.118  0.00  0.00    -0.295 N 
ATOM      9  C   UNL     1      10.244   5.516   6.669  0.00  0.00    +0.219 C 
ATOM     10  C   UNL     1      10.689   6.885   4.662  0.00  0.00    +0.154 C 
ATOM     11  C   UNL     1      11.193   7.827   6.953  0.00  0.00    +0.136 C 
ATOM     12  C   UNL     1      12.100   6.834   4.074  0.00  0.00    +0.216 C 
ATOM     13  C   UNL     1      11.877   8.977   6.226  0.00  0.00    +0.179 C 
ATOM     14  C   UNL     1      12.864   8.146   4.225  0.00  0.00    +0.206 C 
ENDROOT
BRANCH   9   6
ATOM      6  C   UNL     1      10.312   5.375   8.158  0.00  0.00    +0.075 C 
ATOM      7  C   UNL     1       9.631   4.209   8.790  0.00  0.00    +0.013 C 
ATOM      8  C   UNL     1       9.067   5.589   8.947  0.00  0.00    +0.013 C 
ENDBRANCH   9   6
BRANCH  12   3
ATOM      3  O   UNL     1      11.984   6.532   2.685  0.00  0.00    -0.483 OA
BRANCH   3  15
ATOM      5  N   UNL     1      14.894   4.718   1.416  0.00  0.00    -0.260 NA
ATOM     15  C   UNL     1      12.751   5.501   2.216  0.00  0.00    +0.139 A 
ATOM     16  C   UNL     1      12.218   4.227   2.056  0.00  0.00    +0.049 A 
ATOM     17  C   UNL     1      14.083   5.693   1.884  0.00  0.00    +0.156 A 
ATOM     18  C   UNL     1      13.021   3.198   1.577  0.00  0.00    +0.023 A 
ATOM     19  C   UNL     1      14.340   3.493   1.274  0.00  0.00    +0.111 A 
ENDBRANCH   3  15
ENDBRANCH  12   3
TORSDOF 3
ENDMDL
MODEL 7
REMARK VINA RESULT:      -5.1     22.727     23.903
REMARK  Name = 75536893
REMARK  3 active torsions:
REMARK  status: ('A' for Active; 'I' for Inactive)
REMARK    1  A    between atoms: O_3  and  C_12
REMARK    2  A    between atoms: O_3  and  C_15
REMARK    3  A    between atoms: C_6  and  C_9
REMARK                            x       y       z     vdW  Elec       q    Type
REMARK                         _______ _______ _______ _____ _____    ______ ____
ROOT
ATOM      1  O   UNL     1     -11.764  12.557  17.603  0.00  0.00    -0.375 OA
ATOM      2  O   UNL     1     -10.401   7.705  16.570  0.00  0.00    -0.275 OA
ATOM      4  N   UNL     1     -10.369  10.040  16.670  0.00  0.00    -0.295 N 
ATOM      9  C   UNL     1     -10.497   8.799  16.022  0.00  0.00    +0.219 C 
ATOM     10  C   UNL     1     -10.125  10.058  18.114  0.00  0.00    +0.154 C 
ATOM     11  C   UNL     1     -10.496  11.313  15.951  0.00  0.00    +0.136 C 
ATOM     12  C   UNL     1     -11.361  10.500  18.898  0.00  0.00    +0.216 C 
ATOM     13  C   UNL     1     -10.583  12.570  16.806  0.00  0.00    +0.179 C 
ATOM     14  C   UNL     1     -11.565  12.012  18.901  0.00  0.00    +0.206 C 
ENDROOT
BRANCH   9   6
ATOM      6  C   UNL     1     -10.795   8.823  14.554  0.00  0.00    +0.075 C 
ATOM      7  C   UNL     1     -11.889   7.951  14.042  0.00  0.00    +0.013 C 
ATOM      8  C   UNL     1     -10.458   7.619  13.744  0.00  0.00    +0.013 C 
ENDBRANCH   9   6
BRANCH  12   3
ATOM      3  O   UNL     1     -11.205  10.060  20.246  0.00  0.00    -0.483 OA
BRANCH   3  15
ATOM      5  N   UNL     1     -13.978   8.056  21.536  0.00  0.00    -0.260 NA
ATOM     15  C   UNL     1     -11.932   8.963  20.620  0.00  0.00    +0.139 A 
ATOM     16  C   UNL     1     -11.415   7.680  20.487  0.00  0.00    +0.049 A 
ATOM     17  C   UNL     1     -13.208   9.097  21.146  0.00  0.00    +0.156 A 
ATOM     18  C   UNL     1     -12.177   6.584  20.877  0.00  0.00    +0.023 A 
ATOM     19  C   UNL     1     -13.441   6.824  21.392  0.00  0.00    +0.111 A 
ENDBRANCH   3  15
ENDBRANCH  12   3
TORSDOF 3
ENDMDL
MODEL 8
REMARK VINA RESULT:      -5.0     26.468     27.671
REMARK  Name = 75536893
REMARK  3 active torsions:
REMARK  status: ('A' for Active; 'I' for Inactive)
REMARK    1  A    between atoms: O_3  and  C_12
REMARK    2  A    between atoms: O_3  and  C_15
REMARK    3  A    between atoms: C_6  and  C_9
REMARK                            x       y       z     vdW  Elec       q    Type
REMARK                         _______ _______ _______ _____ _____    ______ ____
ROOT
ATOM      1  O   UNL     1      -4.833 -13.877  13.376  0.00  0.00    -0.375 OA
ATOM      2  O   UNL     1      -3.905 -10.062  16.699  0.00  0.00    -0.275 OA
ATOM      4  N   UNL     1      -3.915 -12.176  15.703  0.00  0.00    -0.295 N 
ATOM      9  C   UNL     1      -4.277 -11.232  16.680  0.00  0.00    +0.219 C 
ATOM     10  C   UNL     1      -3.051 -11.752  14.600  0.00  0.00    +0.154 C 
ATOM     11  C   UNL     1      -4.397 -13.562  15.741  0.00  0.00    +0.136 C 
ATOM     12  C   UNL     1      -3.818 -11.634  13.282  0.00  0.00    +0.216 C 
ATOM     13  C   UNL     1      -4.137 -14.406  14.501  0.00  0.00    +0.179 C 
ATOM     14  C   UNL     1      -4.054 -12.978  12.598  0.00  0.00    +0.206 C 
ENDROOT
BRANCH   9   6
ATOM      6  C   UNL     1      -5.202 -11.691  17.764  0.00  0.00    +0.075 C 
ATOM      7  C   UNL     1      -5.543 -10.733  18.854  0.00  0.00    +0.013 C 
ATOM      8  C   UNL     1      -4.643 -11.901  19.129  0.00  0.00    +0.013 C 
ENDBRANCH   9   6
BRANCH  12   3
ATOM      3  O   UNL     1      -3.058 -10.805  12.406  0.00  0.00    -0.483 OA
BRANCH   3  15
ATOM      5  N   UNL     1      -5.763  -8.750  11.052  0.00  0.00    -0.260 NA
ATOM     15  C   UNL     1      -3.766 -10.027  11.531  0.00  0.00    +0.139 A 
ATOM     16  C   UNL     1      -3.258  -9.717  10.275  0.00  0.00    +0.049 A 
ATOM     17  C   UNL     1      -5.012  -9.523  11.869  0.00  0.00    +0.156 A 
ATOM     18  C   UNL     1      -4.000  -8.925   9.406  0.00  0.00    +0.023 A 
ATOM     19  C   UNL     1      -5.236  -8.471   9.839  0.00  0.00    +0.111 A 
ENDBRANCH   3  15
ENDBRANCH  12   3
TORSDOF 3
ENDMDL
MODEL 9
REMARK VINA RESULT:      -5.0     26.354     28.084
REMARK  Name = 75536893
REMARK  3 active torsions:
REMARK  status: ('A' for Active; 'I' for Inactive)
REMARK    1  A    between atoms: O_3  and  C_12
REMARK    2  A    between atoms: O_3  and  C_15
REMARK    3  A    between atoms: C_6  and  C_9
REMARK                            x       y       z     vdW  Elec       q    Type
REMARK                         _______ _______ _______ _____ _____    ______ ____
ROOT
ATOM      1  O   UNL     1      -6.883 -13.305  18.178  0.00  0.00    -0.375 OA
ATOM      2  O   UNL     1      -8.444  -8.524  17.097  0.00  0.00    -0.275 OA
ATOM      4  N   UNL     1      -8.129 -10.548  18.221  0.00  0.00    -0.295 N 
ATOM      9  C   UNL     1      -8.881  -9.591  17.519  0.00  0.00    +0.219 C 
ATOM     10  C   UNL     1      -6.707 -10.291  18.458  0.00  0.00    +0.154 C 
ATOM     11  C   UNL     1      -8.716 -11.806  18.699  0.00  0.00    +0.136 C 
ATOM     12  C   UNL     1      -5.811 -11.167  17.582  0.00  0.00    +0.216 C 
ATOM     13  C   UNL     1      -7.745 -12.856  19.219  0.00  0.00    +0.179 C 
ATOM     14  C   UNL     1      -5.655 -12.590  18.111  0.00  0.00    +0.206 C 
ENDROOT
BRANCH   9   6
ATOM      6  C   UNL     1     -10.319  -9.913  17.253  0.00  0.00    +0.075 C 
ATOM      7  C   UNL     1     -11.182  -8.852  16.660  0.00  0.00    +0.013 C 
ATOM      8  C   UNL     1     -11.359  -9.255  18.093  0.00  0.00    +0.013 C 
ENDBRANCH   9   6
BRANCH  12   3
ATOM      3  O   UNL     1      -4.523 -10.558  17.527  0.00  0.00    -0.483 OA
BRANCH   3  15
ATOM      5  N   UNL     1      -4.040 -10.605  13.902  0.00  0.00    -0.260 NA
ATOM     15  C   UNL     1      -3.887 -10.579  16.316  0.00  0.00    +0.139 A 
ATOM     16  C   UNL     1      -2.500 -10.596  16.235  0.00  0.00    +0.049 A 
ATOM     17  C   UNL     1      -4.605 -10.584  15.130  0.00  0.00    +0.156 A 
ATOM     18  C   UNL     1      -1.880 -10.617  14.990  0.00  0.00    +0.023 A 
ATOM     19  C   UNL     1      -2.688 -10.621  13.864  0.00  0.00    +0.111 A 
ENDBRANCH   3  15
ENDBRANCH  12   3
TORSDOF 3
ENDMDL
MODEL 10
REMARK VINA RESULT:      -4.9     25.575     26.822
REMARK  Name = 75536893
REMARK  3 active torsions:
REMARK  status: ('A' for Active; 'I' for Inactive)
REMARK    1  A    between atoms: O_3  and  C_12
REMARK    2  A    between atoms: O_3  and  C_15
REMARK    3  A    between atoms: C_6  and  C_9
REMARK                            x       y       z     vdW  Elec       q    Type
REMARK                         _______ _______ _______ _____ _____    ______ ____
ROOT
ATOM      1  O   UNL     1      -2.074 -10.309  15.160  0.00  0.00    -0.375 OA
ATOM      2  O   UNL     1      -5.871 -10.477  11.694  0.00  0.00    -0.275 OA
ATOM      4  N   UNL     1      -3.783 -10.758  12.704  0.00  0.00    -0.295 N 
ATOM      9  C   UNL     1      -4.679 -10.194  11.780  0.00  0.00    +0.219 C 
ATOM     10  C   UNL     1      -4.287 -11.743  13.664  0.00  0.00    +0.154 C 
ATOM     11  C   UNL     1      -2.367 -10.373  12.753  0.00  0.00    +0.136 C 
ATOM     12  C   UNL     1      -4.381 -11.169  15.078  0.00  0.00    +0.216 C 
ATOM     13  C   UNL     1      -1.569 -10.869  13.951  0.00  0.00    +0.179 C 
ATOM     14  C   UNL     1      -3.040 -11.129  15.804  0.00  0.00    +0.206 C 
ENDROOT
BRANCH   9   6
ATOM      6  C   UNL     1      -4.136  -9.155  10.849  0.00  0.00    +0.075 C 
ATOM      7  C   UNL     1      -5.096  -8.407   9.988  0.00  0.00    +0.013 C 
ATOM      8  C   UNL     1      -4.177  -9.427   9.385  0.00  0.00    +0.013 C 
ENDBRANCH   9   6
BRANCH  12   3
ATOM      3  O   UNL     1      -5.279 -11.989  15.824  0.00  0.00    -0.483 OA
BRANCH   3  15
ATOM      5  N   UNL     1      -7.006  -9.887  18.267  0.00  0.00    -0.260 NA
ATOM     15  C   UNL     1      -5.695 -11.500  17.032  0.00  0.00    +0.139 A 
ATOM     16  C   UNL     1      -5.264 -12.072  18.223  0.00  0.00    +0.049 A 
ATOM     17  C   UNL     1      -6.558 -10.418  17.108  0.00  0.00    +0.156 A 
ATOM     18  C   UNL     1      -5.703 -11.555  19.437  0.00  0.00    +0.023 A 
ATOM     19  C   UNL     1      -6.565 -10.470  19.405  0.00  0.00    +0.111 A 
ENDBRANCH   3  15
ENDBRANCH  12   3
TORSDOF 3
ENDMDL
