REMARK  Name = 25389057
REMARK  6 active torsions:
REMARK  status: ('A' for Active; 'I' for Inactive)
REMARK    1  A    between atoms: N_4  and  C_23
REMARK    2  A    between atoms: N_5  and  C_15
REMARK    3  A    between atoms: C_8  and  C_14
REMARK    4  A    between atoms: C_9  and  C_15
REMARK    5  A    between atoms: C_17  and  C_18
REMARK    6  A    between atoms: C_24  and  C_25
REMARK                            x       y       z     vdW  Elec       q    Type
REMARK                         _______ _______ _______ _____ _____    ______ ____
ROOT
ATOM      3  N   UNL     1       0.481   3.117   0.550  0.00  0.00    -0.297 NA
ATOM      7  C   UNL     1      -0.628   2.017  -1.534  0.00  0.00    +0.002 C 
ATOM      8  C   UNL     1      -1.668   2.190  -0.393  0.00  0.00    +0.055 C 
ATOM      9  C   UNL     1       1.303   1.970   0.082  0.00  0.00    +0.074 C 
ATOM     10  C   UNL     1       0.562   1.181  -1.018  0.00  0.00    +0.024 C 
ATOM     11  C   UNL     1      -0.894   2.659   0.872  0.00  0.00    +0.094 C 
ATOM     12  C   UNL     1      -0.086   3.426  -1.859  0.00  0.00    +0.019 C 
ATOM     13  C   UNL     1       0.394   4.096  -0.560  0.00  0.00    +0.085 C 
ENDROOT
BRANCH   8  14
ATOM      4  N   UNL     1      -3.875   1.204   0.383  0.00  0.00    -0.271 N 
ATOM      6  N   UNL     1      -4.544   0.055   0.577  0.00  0.00    -0.176 NA
ATOM     14  C   UNL     1      -2.610   1.031  -0.097  0.00  0.00    +0.044 A 
ATOM     16  C   UNL     1      -2.439  -0.326  -0.225  0.00  0.00    +0.048 A 
ATOM     18  C   UNL     1      -3.662  -0.876   0.204  0.00  0.00    +0.066 A 
ATOM     23  C   UNL     1      -4.524   2.458   0.687  0.00  0.00    +0.172 C 
BRANCH  18  17
ATOM     17  C   UNL     1      -4.039  -2.339   0.273  0.00  0.00    +0.040 C 
ATOM     19  C   UNL     1      -3.991  -3.026  -1.103  0.00  0.00    +0.010 C 
ATOM     20  C   UNL     1      -3.140  -3.188   1.195  0.00  0.00    +0.010 C 
ATOM     21  C   UNL     1      -3.502  -4.437  -0.814  0.00  0.00    +0.001 C 
ATOM     22  C   UNL     1      -2.484  -4.227   0.292  0.00  0.00    +0.001 C 
ENDBRANCH  18  17
ENDBRANCH   8  14
BRANCH   9  15
ATOM     15  C   UNL     1       1.748   1.064   1.232  0.00  0.00    +0.123 C 
BRANCH  15   5
ATOM      1  O   UNL     1       4.610   1.215   1.059  0.00  0.00    -0.267 OA
ATOM      5  N   UNL     1       2.630   0.041   0.764  0.00  0.00    -0.307 N 
ATOM     24  C   UNL     1       4.014   0.198   0.713  0.00  0.00    +0.279 C 
ATOM     29  H   UNL     1       2.224  -0.835   0.447  0.00  0.00    +0.149 HD
BRANCH  24  25
ATOM      2  O   UNL     1       4.101  -2.052  -0.221  0.00  0.00    -0.458 OA
ATOM     25  C   UNL     1       4.790  -0.950   0.176  0.00  0.00    +0.189 A 
ATOM     26  C   UNL     1       6.140  -1.131  -0.011  0.00  0.00    +0.054 A 
ATOM     27  C   UNL     1       6.291  -2.427  -0.559  0.00  0.00    +0.042 A 
ATOM     28  C   UNL     1       5.022  -2.946  -0.667  0.00  0.00    +0.196 A 
ENDBRANCH  24  25
ENDBRANCH  15   5
ENDBRANCH   9  15
TORSDOF 5
