REMARK  Name = 11867216
REMARK  4 active torsions:
REMARK  status: ('A' for Active; 'I' for Inactive)
REMARK    1  A    between atoms: S_1  and  N_9
REMARK    2  A    between atoms: S_1  and  C_25
REMARK    3  A    between atoms: N_9  and  C_20
REMARK    4  A    between atoms: C_19  and  C_22
REMARK                            x       y       z     vdW  Elec       q    Type
REMARK                         _______ _______ _______ _____ _____    ______ ____
ROOT
ATOM      3  O   UNL     1      -0.195   3.110  -1.056  0.00  0.00    -0.266 OA
ATOM      4  O   UNL     1       2.774  -0.863  -2.556  0.00  0.00    -0.270 OA
ATOM      7  N   UNL     1       3.540  -0.156  -0.461  0.00  0.00    -0.297 N 
ATOM      8  N   UNL     1       1.467   2.130   0.273  0.00  0.00    -0.310 N 
ATOM     10  C   UNL     1       3.964   2.290  -0.271  0.00  0.00    +0.027 C 
ATOM     11  C   UNL     1       3.220   1.020   1.703  0.00  0.00    +0.054 C 
ATOM     12  C   UNL     1       4.157   2.132   1.233  0.00  0.00    +0.018 C 
ATOM     13  C   UNL     1       4.298   0.974  -0.997  0.00  0.00    +0.113 C 
ATOM     14  C   UNL     1       2.525   2.747  -0.539  0.00  0.00    +0.130 C 
ATOM     15  C   UNL     1       3.595  -0.302   1.003  0.00  0.00    +0.117 C 
ATOM     16  C   UNL     1       1.773   1.363   1.405  0.00  0.00    +0.027 A 
ATOM     17  C   UNL     1       0.791   0.901   2.202  0.00  0.00    +0.024 A 
ATOM     18  C   UNL     1       0.136   2.431  -0.085  0.00  0.00    +0.274 A 
ATOM     19  C   UNL     1       2.824  -0.979  -1.332  0.00  0.00    +0.247 C 
ATOM     20  C   UNL     1      -0.902   1.873   0.817  0.00  0.00    +0.112 A 
ATOM     21  C   UNL     1      -0.591   1.161   1.901  0.00  0.00    +0.031 A 
ENDROOT
BRANCH  19  22
ATOM      2  F   UNL     1      -0.163  -5.159   0.875  0.00  0.00    -0.205 F 
ATOM     22  C   UNL     1       2.040  -2.075  -0.753  0.00  0.00    +0.037 A 
ATOM     23  C   UNL     1       0.714  -1.861  -0.387  0.00  0.00    +0.016 A 
ATOM     24  C   UNL     1       2.626  -3.326  -0.573  0.00  0.00    +0.016 A 
ATOM     26  C   UNL     1      -0.031  -2.904   0.164  0.00  0.00    +0.039 A 
ATOM     27  C   UNL     1       1.881  -4.369  -0.023  0.00  0.00    +0.039 A 
ATOM     28  C   UNL     1       0.552  -4.158   0.346  0.00  0.00    +0.123 A 
ENDBRANCH  19  22
BRANCH  20   9
ATOM      9  N   UNL     1      -2.265   2.095   0.551  0.00  0.00    -0.211 N 
ATOM     34  H   UNL     1      -2.866   1.911   1.367  0.00  0.00    +0.174 HD
BRANCH   9   1
ATOM      1  S   UNL     1      -2.869   1.508  -0.916  0.00  0.00    +0.072 S 
ATOM      5  O   UNL     1      -3.547   2.575  -1.628  0.00  0.00    -0.150 OA
ATOM      6  O   UNL     1      -1.851   0.717  -1.582  0.00  0.00    -0.150 OA
BRANCH   1  25
ATOM     25  C   UNL     1      -4.111   0.390  -0.337  0.00  0.00    +0.108 A 
ATOM     29  C   UNL     1      -5.399   0.856  -0.138  0.00  0.00    +0.029 A 
ATOM     30  C   UNL     1      -3.771  -0.929  -0.093  0.00  0.00    +0.029 A 
ATOM     31  C   UNL     1      -6.378  -0.025   0.320  0.00  0.00    +0.002 A 
ATOM     32  C   UNL     1      -4.751  -1.810   0.364  0.00  0.00    +0.002 A 
ATOM     33  C   UNL     1      -6.054  -1.359   0.571  0.00  0.00    +0.000 A 
ENDBRANCH   1  25
ENDBRANCH   9   1
ENDBRANCH  20   9
TORSDOF 4
