REMARK  Name = 44716314
REMARK  7 active torsions:
REMARK  status: ('A' for Active; 'I' for Inactive)
REMARK    1  A    between atoms: N_4  and  C_16
REMARK    2  A    between atoms: N_5  and  C_19
REMARK    3  A    between atoms: N_8  and  C_30
REMARK    4  A    between atoms: C_10  and  C_16
REMARK    5  A    between atoms: C_11  and  C_17
REMARK    6  A    between atoms: C_19  and  C_21
REMARK    7  A    between atoms: C_20  and  C_22
REMARK                            x       y       z     vdW  Elec       q    Type
REMARK                         _______ _______ _______ _____ _____    ______ ____
ROOT
ATOM      3  N   UNL     1       2.205   2.984  -1.331  0.00  0.00    -0.297 NA
ATOM      9  C   UNL     1       2.195   2.983   1.271  0.00  0.00    +0.005 C 
ATOM     10  C   UNL     1       0.833   2.706  -0.829  0.00  0.00    +0.078 C 
ATOM     11  C   UNL     1       3.286   2.047   0.717  0.00  0.00    +0.092 C 
ATOM     12  C   UNL     1       0.827   2.549   0.707  0.00  0.00    +0.025 C 
ATOM     13  C   UNL     1       2.493   4.388   0.719  0.00  0.00    +0.020 C 
ATOM     14  C   UNL     1       3.157   1.970  -0.814  0.00  0.00    +0.097 C 
ATOM     15  C   UNL     1       2.619   4.312  -0.814  0.00  0.00    +0.085 C 
ENDROOT
BRANCH  11  17
ATOM      2  O   UNL     1       2.361   0.395   2.172  0.00  0.00    -0.275 OA
ATOM      5  N   UNL     1       4.226  -0.150   0.890  0.00  0.00    -0.311 N 
ATOM     17  C   UNL     1       3.219   0.685   1.343  0.00  0.00    +0.218 C 
ATOM     33  H   UNL     1       4.888   0.195   0.200  0.00  0.00    +0.149 HD
BRANCH   5  19
ATOM     19  C   UNL     1       4.396  -1.508   1.354  0.00  0.00    +0.139 C 
BRANCH  19  21
ATOM      1  F   UNL     1       1.518  -5.185  -1.792  0.00  0.00    -0.205 F 
ATOM     21  C   UNL     1       3.629  -2.488   0.515  0.00  0.00    -0.030 A 
ATOM     23  C   UNL     1       2.315  -2.815   0.851  0.00  0.00    +0.008 A 
ATOM     24  C   UNL     1       4.230  -3.072  -0.600  0.00  0.00    +0.008 A 
ATOM     27  C   UNL     1       1.602  -3.726   0.072  0.00  0.00    +0.038 A 
ATOM     28  C   UNL     1       3.517  -3.983  -1.379  0.00  0.00    +0.038 A 
ATOM     29  C   UNL     1       2.203  -4.311  -1.043  0.00  0.00    +0.123 A 
ENDBRANCH  19  21
ENDBRANCH   5  19
ENDBRANCH  11  17
BRANCH  10  16
ATOM     16  C   UNL     1       0.188   1.506  -1.527  0.00  0.00    +0.164 C 
BRANCH  16   4
ATOM      4  N   UNL     1      -1.256   1.355  -1.140  0.00  0.00    -0.250 N 
ATOM      6  N   UNL     1      -2.133   2.348  -1.360  0.00  0.00    -0.065 NA
ATOM      7  N   UNL     1      -3.317   1.934  -0.922  0.00  0.00    -0.130 NA
ATOM     18  C   UNL     1      -1.853   0.279  -0.557  0.00  0.00    +0.138 A 
ATOM     20  C   UNL     1      -3.162   0.669  -0.427  0.00  0.00    +0.113 A 
BRANCH  20  22
ATOM     22  C   UNL     1      -4.212  -0.118   0.137  0.00  0.00    +0.005 A 
ATOM     25  C   UNL     1      -5.524   0.048  -0.307  0.00  0.00    +0.032 A 
ATOM     26  C   UNL     1      -3.925  -1.052   1.132  0.00  0.00    +0.010 A 
ATOM     30  C   UNL     1      -6.549  -0.721   0.244  0.00  0.00    +0.025 A 
ATOM     31  C   UNL     1      -4.950  -1.821   1.683  0.00  0.00    +0.002 A 
ATOM     32  C   UNL     1      -6.262  -1.655   1.239  0.00  0.00    +0.023 A 
BRANCH  30   8
ATOM      8  N   UNL     1      -7.876  -0.553  -0.204  0.00  0.00    -0.358 N 
ATOM     34  H   UNL     1      -8.085   0.123  -0.927  0.00  0.00    +0.142 HD
ATOM     35  H   UNL     1      -8.619  -1.112   0.194  0.00  0.00    +0.142 HD
ENDBRANCH  30   8
ENDBRANCH  20  22
ENDBRANCH  16   4
ENDBRANCH  10  16
TORSDOF 7
