REMARK  Name = 44716137
REMARK  10 active torsions:
REMARK  status: ('A' for Active; 'I' for Inactive)
REMARK    1  A    between atoms: O_2  and  C_26
REMARK    2  A    between atoms: O_3  and  C_27
REMARK    3  A    between atoms: O_3  and  C_34
REMARK    4  A    between atoms: N_6  and  C_17
REMARK    5  A    between atoms: N_7  and  C_25
REMARK    6  A    between atoms: C_11  and  C_18
REMARK    7  A    between atoms: C_12  and  C_17
REMARK    8  A    between atoms: C_24  and  C_26
REMARK    9  A    between atoms: C_26  and  C_29
REMARK   10  A    between atoms: C_26  and  C_30
REMARK                            x       y       z     vdW  Elec       q    Type
REMARK                         _______ _______ _______ _____ _____    ______ ____
ROOT
ATOM      4  N   UNL     1      -2.443   3.025   0.522  0.00  0.00    -0.297 NA
ATOM     10  C   UNL     1      -1.066   1.464  -1.039  0.00  0.00    +0.005 C 
ATOM     11  C   UNL     1      -0.246   1.887   0.196  0.00  0.00    +0.092 C 
ATOM     12  C   UNL     1      -3.027   1.656   0.521  0.00  0.00    +0.078 C 
ATOM     13  C   UNL     1      -2.332   0.752  -0.525  0.00  0.00    +0.025 C 
ATOM     14  C   UNL     1      -1.546   2.719  -1.789  0.00  0.00    +0.020 C 
ATOM     15  C   UNL     1      -1.039   2.934   1.001  0.00  0.00    +0.097 C 
ATOM     16  C   UNL     1      -2.409   3.577  -0.851  0.00  0.00    +0.085 C 
ENDROOT
BRANCH  11  18
ATOM      1  O   UNL     1       1.267   3.617  -0.400  0.00  0.00    -0.275 OA
ATOM      5  N   UNL     1       2.132   1.462  -0.300  0.00  0.00    -0.298 N 
ATOM      7  N   UNL     1       4.362  -0.384  -0.339  0.00  0.00    -0.324 N 
ATOM     18  C   UNL     1       1.114   2.410  -0.194  0.00  0.00    +0.220 C 
ATOM     19  C   UNL     1       1.949   0.030  -0.055  0.00  0.00    +0.126 C 
ATOM     20  C   UNL     1       3.480   1.891  -0.668  0.00  0.00    +0.126 C 
ATOM     21  C   UNL     1       3.021  -0.828  -0.728  0.00  0.00    +0.124 C 
ATOM     22  C   UNL     1       4.553   1.030  -0.005  0.00  0.00    +0.124 C 
BRANCH   7  25
ATOM     25  C   UNL     1       5.435  -1.271  -0.320  0.00  0.00    +0.072 A 
ATOM     27  C   UNL     1       6.490  -1.091   0.575  0.00  0.00    +0.141 A 
ATOM     28  C   UNL     1       5.450  -2.347  -1.208  0.00  0.00    +0.027 A 
ATOM     31  C   UNL     1       7.559  -1.987   0.583  0.00  0.00    +0.047 A 
ATOM     32  C   UNL     1       6.520  -3.243  -1.200  0.00  0.00    +0.002 A 
ATOM     33  C   UNL     1       7.574  -3.063  -0.305  0.00  0.00    +0.004 A 
BRANCH  27   3
ATOM      3  O   UNL     1       6.494  -0.046   1.450  0.00  0.00    -0.493 OA
ATOM     34  C   UNL     1       7.613   0.058   2.328  0.00  0.00    +0.277 C 
ENDBRANCH  27   3
ENDBRANCH   7  25
ENDBRANCH  11  18
BRANCH  12  17
ATOM     17  C   UNL     1      -4.545   1.675   0.332  0.00  0.00    +0.164 C 
BRANCH  17   6
ATOM      6  N   UNL     1      -5.141   0.308   0.516  0.00  0.00    -0.250 N 
ATOM      8  N   UNL     1      -4.977  -0.363   1.667  0.00  0.00    -0.065 NA
ATOM      9  N   UNL     1      -5.603  -1.528   1.537  0.00  0.00    -0.132 NA
ATOM     23  C   UNL     1      -5.874  -0.406  -0.381  0.00  0.00    +0.136 A 
ATOM     24  C   UNL     1      -6.157  -1.570   0.288  0.00  0.00    +0.114 A 
BRANCH  24  26
ATOM     26  C   UNL     1      -6.921  -2.738  -0.168  0.00  0.00    +0.105 C 
ATOM     29  C   UNL     1      -8.212  -2.982   0.667  0.00  0.00    +0.048 C 
ATOM     30  C   UNL     1      -6.083  -4.050  -0.169  0.00  0.00    +0.048 C 
BRANCH  26   2
ATOM      2  O   UNL     1      -7.389  -2.598  -1.538  0.00  0.00    -0.383 OA
ATOM     35  H   UNL     1      -7.885  -3.401  -1.774  0.00  0.00    +0.211 HD
ENDBRANCH  26   2
ENDBRANCH  24  26
ENDBRANCH  17   6
ENDBRANCH  12  17
TORSDOF 7
