MODEL 1
REMARK VINA RESULT:      -7.7      0.000      0.000
REMARK  Name = 11866256
REMARK  5 active torsions:
REMARK  status: ('A' for Active; 'I' for Inactive)
REMARK    1  A    between atoms: S_4  and  N_10
REMARK    2  A    between atoms: S_4  and  C_27
REMARK    3  A    between atoms: C_12  and  C_20
REMARK    4  A    between atoms: C_17  and  C_24
REMARK    5  A    between atoms: C_19  and  C_25
REMARK                            x       y       z     vdW  Elec       q    Type
REMARK                         _______ _______ _______ _____ _____    ______ ____
ROOT
ATOM      3  S   UNL     1      -6.438 -10.660  19.330  0.00  0.00    -0.056 S 
ATOM      5  O   UNL     1      -4.882 -10.188  12.618  0.00  0.00    -0.461 OA
ATOM      6  O   UNL     1      -4.261  -9.730  10.451  0.00  0.00    -0.251 OA
ATOM      9  N   UNL     1      -7.942 -10.787  17.230  0.00  0.00    -0.228 NA
ATOM     10  N   UNL     1      -9.212 -10.748  19.295  0.00  0.00    -0.194 N 
ATOM     11  C   UNL     1      -4.759 -10.512  15.114  0.00  0.00    +0.045 C 
ATOM     12  C   UNL     1      -3.835 -11.223  16.195  0.00  0.00    -0.021 C 
ATOM     13  C   UNL     1      -4.245 -10.857  13.705  0.00  0.00    +0.184 C 
ATOM     14  C   UNL     1      -2.806 -10.408  13.547  0.00  0.00    +0.044 C 
ATOM     15  C   UNL     1      -2.332 -10.902  15.931  0.00  0.00    +0.008 C 
ATOM     16  C   UNL     1      -1.882 -11.159  14.486  0.00  0.00    +0.008 C 
ATOM     17  C   UNL     1      -6.286 -10.813  15.330  0.00  0.00    +0.043 C 
ATOM     18  C   UNL     1      -4.205 -10.688  17.613  0.00  0.00    +0.051 C 
ATOM     19  C   UNL     1      -2.621 -10.585  12.053  0.00  0.00    +0.101 C 
ATOM     20  C   UNL     1      -4.003 -12.766  16.186  0.00  0.00    +0.012 C 
ATOM     21  C   UNL     1      -6.629 -10.748  16.797  0.00  0.00    +0.057 A 
ATOM     22  C   UNL     1      -5.683 -10.702  17.804  0.00  0.00    +0.015 A 
ATOM     23  C   UNL     1      -3.982 -10.113  11.576  0.00  0.00    +0.311 C 
ATOM     24  C   UNL     1      -7.190  -9.865  14.530  0.00  0.00    +0.014 C 
ATOM     25  C   UNL     1      -1.484  -9.756  11.486  0.00  0.00    +0.019 C 
ATOM     26  C   UNL     1      -7.962 -10.737  18.544  0.00  0.00    +0.178 A 
ATOM     33  H   UNL     1      -9.106 -10.668  20.313  0.00  0.00    +0.176 HD
ENDROOT
BRANCH  10   4
ATOM      4  S   UNL     1     -10.439 -11.801  18.695  0.00  0.00    +0.077 S 
ATOM      7  O   UNL     1     -10.129 -13.165  19.076  0.00  0.00    -0.150 OA
ATOM      8  O   UNL     1     -10.736 -11.474  17.312  0.00  0.00    -0.150 OA
BRANCH   4  27
ATOM      1 CL   UNL     1     -11.934  -9.044  18.072  0.00  0.00    -0.081 Cl
ATOM      2 CL   UNL     1     -11.543 -13.582  21.110  0.00  0.00    -0.081 Cl
ATOM     27  C   UNL     1     -11.830 -11.278  19.655  0.00  0.00    +0.145 A 
ATOM     28  C   UNL     1     -12.457 -10.073  19.358  0.00  0.00    +0.069 A 
ATOM     29  C   UNL     1     -12.285 -12.077  20.698  0.00  0.00    +0.069 A 
ATOM     30  C   UNL     1     -13.554  -9.661  20.114  0.00  0.00    +0.022 A 
ATOM     31  C   UNL     1     -13.382 -11.665  21.455  0.00  0.00    +0.022 A 
ATOM     32  C   UNL     1     -14.017 -10.457  21.163  0.00  0.00    +0.003 A 
ENDBRANCH   4  27
ENDBRANCH  10   4
TORSDOF 2
ENDMDL
MODEL 2
REMARK VINA RESULT:      -7.7      3.015      9.915
REMARK  Name = 11866256
REMARK  5 active torsions:
REMARK  status: ('A' for Active; 'I' for Inactive)
REMARK    1  A    between atoms: S_4  and  N_10
REMARK    2  A    between atoms: S_4  and  C_27
REMARK    3  A    between atoms: C_12  and  C_20
REMARK    4  A    between atoms: C_17  and  C_24
REMARK    5  A    between atoms: C_19  and  C_25
REMARK                            x       y       z     vdW  Elec       q    Type
REMARK                         _______ _______ _______ _____ _____    ______ ____
ROOT
ATOM      3  S   UNL     1      -8.782  -8.515  16.671  0.00  0.00    -0.056 S 
ATOM      5  O   UNL     1     -10.887 -13.240  21.248  0.00  0.00    -0.461 OA
ATOM      6  O   UNL     1     -11.537 -14.585  22.997  0.00  0.00    -0.251 OA
ATOM      9  N   UNL     1      -7.799 -10.825  17.295  0.00  0.00    -0.228 NA
ATOM     10  N   UNL     1      -6.368  -9.570  15.793  0.00  0.00    -0.194 N 
ATOM     11  C   UNL     1     -10.791 -11.301  19.641  0.00  0.00    +0.045 C 
ATOM     12  C   UNL     1     -11.774 -10.410  18.763  0.00  0.00    -0.021 C 
ATOM     13  C   UNL     1     -11.596 -12.427  20.313  0.00  0.00    +0.184 C 
ATOM     14  C   UNL     1     -12.694 -11.842  21.180  0.00  0.00    +0.044 C 
ATOM     15  C   UNL     1     -13.000  -9.947  19.609  0.00  0.00    +0.008 C 
ATOM     16  C   UNL     1     -13.714 -11.086  20.351  0.00  0.00    +0.008 C 
ATOM     17  C   UNL     1      -9.543 -11.803  18.831  0.00  0.00    +0.043 C 
ATOM     18  C   UNL     1     -11.011  -9.140  18.275  0.00  0.00    +0.051 C 
ATOM     19  C   UNL     1     -13.145 -13.079  21.932  0.00  0.00    +0.101 C 
ATOM     20  C   UNL     1     -12.309 -11.176  17.524  0.00  0.00    +0.012 C 
ATOM     21  C   UNL     1      -9.005 -10.695  17.960  0.00  0.00    +0.057 A 
ATOM     22  C   UNL     1      -9.682  -9.515  17.716  0.00  0.00    +0.015 A 
ATOM     23  C   UNL     1     -11.797 -13.739  22.157  0.00  0.00    +0.311 C 
ATOM     24  C   UNL     1      -8.434 -12.349  19.741  0.00  0.00    +0.014 C 
ATOM     25  C   UNL     1     -13.864 -12.764  23.230  0.00  0.00    +0.019 C 
ATOM     26  C   UNL     1      -7.576  -9.734  16.595  0.00  0.00    +0.178 A 
ATOM     33  H   UNL     1      -6.284  -8.663  15.319  0.00  0.00    +0.176 HD
ENDROOT
BRANCH  10   4
ATOM      4  S   UNL     1      -5.832 -10.973  14.946  0.00  0.00    +0.077 S 
ATOM      7  O   UNL     1      -6.226 -10.873  13.555  0.00  0.00    -0.150 OA
ATOM      8  O   UNL     1      -6.146 -12.163  15.716  0.00  0.00    -0.150 OA
BRANCH   4  27
ATOM      1 CL   UNL     1      -4.273 -11.110  17.734  0.00  0.00    -0.081 Cl
ATOM      2 CL   UNL     1      -4.113 -10.443  12.302  0.00  0.00    -0.081 Cl
ATOM     27  C   UNL     1      -4.077 -10.762  15.024  0.00  0.00    +0.145 A 
ATOM     28  C   UNL     1      -3.429 -10.826  16.252  0.00  0.00    +0.069 A 
ATOM     29  C   UNL     1      -3.359 -10.534  13.855  0.00  0.00    +0.069 A 
ATOM     30  C   UNL     1      -2.046 -10.661  16.314  0.00  0.00    +0.022 A 
ATOM     31  C   UNL     1      -1.976 -10.367  13.916  0.00  0.00    +0.022 A 
ATOM     32  C   UNL     1      -1.319 -10.431  15.146  0.00  0.00    +0.003 A 
ENDBRANCH   4  27
ENDBRANCH  10   4
TORSDOF 2
ENDMDL
MODEL 3
REMARK VINA RESULT:      -7.6     29.131     31.879
REMARK  Name = 11866256
REMARK  5 active torsions:
REMARK  status: ('A' for Active; 'I' for Inactive)
REMARK    1  A    between atoms: S_4  and  N_10
REMARK    2  A    between atoms: S_4  and  C_27
REMARK    3  A    between atoms: C_12  and  C_20
REMARK    4  A    between atoms: C_17  and  C_24
REMARK    5  A    between atoms: C_19  and  C_25
REMARK                            x       y       z     vdW  Elec       q    Type
REMARK                         _______ _______ _______ _____ _____    ______ ____
ROOT
ATOM      3  S   UNL     1      18.248   9.576  21.449  0.00  0.00    -0.056 S 
ATOM      5  O   UNL     1      22.310   4.006  21.024  0.00  0.00    -0.461 OA
ATOM      6  O   UNL     1      23.820   2.312  20.649  0.00  0.00    -0.251 OA
ATOM      9  N   UNL     1      17.702   7.125  20.831  0.00  0.00    -0.228 NA
ATOM     10  N   UNL     1      15.823   8.619  20.497  0.00  0.00    -0.194 N 
ATOM     11  C   UNL     1      21.362   6.274  21.579  0.00  0.00    +0.045 C 
ATOM     12  C   UNL     1      21.530   7.418  22.672  0.00  0.00    -0.021 C 
ATOM     13  C   UNL     1      22.238   5.071  21.972  0.00  0.00    +0.184 C 
ATOM     14  C   UNL     1      23.691   5.491  22.078  0.00  0.00    +0.044 C 
ATOM     15  C   UNL     1      23.038   7.734  22.911  0.00  0.00    +0.008 C 
ATOM     16  C   UNL     1      23.900   6.495  23.194  0.00  0.00    +0.008 C 
ATOM     17  C   UNL     1      19.858   5.910  21.310  0.00  0.00    +0.043 C 
ATOM     18  C   UNL     1      20.835   8.718  22.159  0.00  0.00    +0.051 C 
ATOM     19  C   UNL     1      24.366   4.138  22.184  0.00  0.00    +0.101 C 
ATOM     20  C   UNL     1      20.902   7.023  24.035  0.00  0.00    +0.012 C 
ATOM     21  C   UNL     1      19.021   7.163  21.246  0.00  0.00    +0.057 A 
ATOM     22  C   UNL     1      19.473   8.408  21.639  0.00  0.00    +0.015 A 
ATOM     23  C   UNL     1      23.513   3.356  21.201  0.00  0.00    +0.311 C 
ATOM     24  C   UNL     1      19.676   5.082  20.030  0.00  0.00    +0.014 C 
ATOM     25  C   UNL     1      25.832   4.165  21.792  0.00  0.00    +0.019 C 
ATOM     26  C   UNL     1      17.199   8.338  20.887  0.00  0.00    +0.178 A 
ATOM     33  H   UNL     1      15.551   9.608  20.547  0.00  0.00    +0.176 HD
ENDROOT
BRANCH  10   4
ATOM      4  S   UNL     1      14.654   7.440  20.964  0.00  0.00    +0.077 S 
ATOM      7  O   UNL     1      14.264   7.671  22.341  0.00  0.00    -0.150 OA
ATOM      8  O   UNL     1      15.083   6.123  20.532  0.00  0.00    -0.150 OA
BRANCH   4  27
ATOM      1 CL   UNL     1      14.872   7.323  17.776  0.00  0.00    -0.081 Cl
ATOM      2 CL   UNL     1      11.883   8.407  22.233  0.00  0.00    -0.081 Cl
ATOM     27  C   UNL     1      13.287   7.896  19.937  0.00  0.00    +0.145 A 
ATOM     28  C   UNL     1      13.415   7.834  18.554  0.00  0.00    +0.069 A 
ATOM     29  C   UNL     1      12.096   8.311  20.521  0.00  0.00    +0.069 A 
ATOM     30  C   UNL     1      12.338   8.192  17.744  0.00  0.00    +0.022 A 
ATOM     31  C   UNL     1      11.018   8.670  19.711  0.00  0.00    +0.022 A 
ATOM     32  C   UNL     1      11.140   8.610  18.322  0.00  0.00    +0.003 A 
ENDBRANCH   4  27
ENDBRANCH  10   4
TORSDOF 2
ENDMDL
MODEL 4
REMARK VINA RESULT:      -7.4     30.147     33.205
REMARK  Name = 11866256
REMARK  5 active torsions:
REMARK  status: ('A' for Active; 'I' for Inactive)
REMARK    1  A    between atoms: S_4  and  N_10
REMARK    2  A    between atoms: S_4  and  C_27
REMARK    3  A    between atoms: C_12  and  C_20
REMARK    4  A    between atoms: C_17  and  C_24
REMARK    5  A    between atoms: C_19  and  C_25
REMARK                            x       y       z     vdW  Elec       q    Type
REMARK                         _______ _______ _______ _____ _____    ______ ____
ROOT
ATOM      3  S   UNL     1      18.112   5.812  19.592  0.00  0.00    -0.056 S 
ATOM      5  O   UNL     1      15.312  11.757  21.717  0.00  0.00    -0.461 OA
ATOM      6  O   UNL     1      14.364  13.815  22.110  0.00  0.00    -0.251 OA
ATOM      9  N   UNL     1      19.067   7.695  21.085  0.00  0.00    -0.228 NA
ATOM     10  N   UNL     1      20.722   6.020  20.513  0.00  0.00    -0.194 N 
ATOM     11  C   UNL     1      15.653   9.419  20.842  0.00  0.00    +0.045 C 
ATOM     12  C   UNL     1      14.844   8.059  20.684  0.00  0.00    -0.021 C 
ATOM     13  C   UNL     1      14.787  10.435  21.607  0.00  0.00    +0.184 C 
ATOM     14  C   UNL     1      13.485  10.678  20.867  0.00  0.00    +0.044 C 
ATOM     15  C   UNL     1      13.431   8.326  20.080  0.00  0.00    +0.008 C 
ATOM     16  C   UNL     1      12.638   9.422  20.806  0.00  0.00    +0.008 C 
ATOM     17  C   UNL     1      17.082   9.205  21.458  0.00  0.00    +0.043 C 
ATOM     18  C   UNL     1      15.618   7.115  19.712  0.00  0.00    +0.051 C 
ATOM     19  C   UNL     1      12.952  11.876  21.627  0.00  0.00    +0.101 C 
ATOM     20  C   UNL     1      14.654   7.328  22.040  0.00  0.00    +0.012 C 
ATOM     21  C   UNL     1      17.735   7.987  20.851  0.00  0.00    +0.057 A 
ATOM     22  C   UNL     1      17.061   7.059  20.081  0.00  0.00    +0.015 A 
ATOM     23  C   UNL     1      14.251  12.629  21.849  0.00  0.00    +0.311 C 
ATOM     24  C   UNL     1      17.985  10.434  21.285  0.00  0.00    +0.014 C 
ATOM     25  C   UNL     1      11.937  12.683  20.839  0.00  0.00    +0.019 C 
ATOM     26  C   UNL     1      19.377   6.579  20.464  0.00  0.00    +0.178 A 
ATOM     33  H   UNL     1      20.857   5.165  19.960  0.00  0.00    +0.176 HD
ENDROOT
BRANCH  10   4
ATOM      4  S   UNL     1      21.524   6.125  22.037  0.00  0.00    +0.077 S 
ATOM      7  O   UNL     1      20.668   5.574  23.069  0.00  0.00    -0.150 OA
ATOM      8  O   UNL     1      22.110   7.444  22.194  0.00  0.00    -0.150 OA
BRANCH   4  27
ATOM      1 CL   UNL     1      24.527   6.937  22.777  0.00  0.00    -0.081 Cl
ATOM      2 CL   UNL     1      21.022   3.203  20.839  0.00  0.00    -0.081 Cl
ATOM     27  C   UNL     1      22.863   4.996  21.791  0.00  0.00    +0.145 A 
ATOM     28  C   UNL     1      24.158   5.380  22.123  0.00  0.00    +0.069 A 
ATOM     29  C   UNL     1      22.611   3.732  21.269  0.00  0.00    +0.069 A 
ATOM     30  C   UNL     1      25.213   4.489  21.930  0.00  0.00    +0.022 A 
ATOM     31  C   UNL     1      23.666   2.841  21.076  0.00  0.00    +0.022 A 
ATOM     32  C   UNL     1      24.968   3.220  21.407  0.00  0.00    +0.003 A 
ENDBRANCH   4  27
ENDBRANCH  10   4
TORSDOF 2
ENDMDL
MODEL 5
REMARK VINA RESULT:      -7.3      4.009      6.177
REMARK  Name = 11866256
REMARK  5 active torsions:
REMARK  status: ('A' for Active; 'I' for Inactive)
REMARK    1  A    between atoms: S_4  and  N_10
REMARK    2  A    between atoms: S_4  and  C_27
REMARK    3  A    between atoms: C_12  and  C_20
REMARK    4  A    between atoms: C_17  and  C_24
REMARK    5  A    between atoms: C_19  and  C_25
REMARK                            x       y       z     vdW  Elec       q    Type
REMARK                         _______ _______ _______ _____ _____    ______ ____
ROOT
ATOM      3  S   UNL     1      -2.693 -11.468  13.629  0.00  0.00    -0.056 S 
ATOM      5  O   UNL     1      -8.147  -8.798  10.338  0.00  0.00    -0.461 OA
ATOM      6  O   UNL     1      -9.811  -7.624   9.270  0.00  0.00    -0.251 OA
ATOM      9  N   UNL     1      -5.191 -11.378  14.289  0.00  0.00    -0.228 NA
ATOM     10  N   UNL     1      -3.779 -12.222  16.069  0.00  0.00    -0.194 N 
ATOM     11  C   UNL     1      -5.882  -9.756  10.887  0.00  0.00    +0.045 C 
ATOM     12  C   UNL     1      -4.671 -10.487  10.158  0.00  0.00    -0.021 C 
ATOM     13  C   UNL     1      -7.032  -9.563   9.883  0.00  0.00    +0.184 C 
ATOM     14  C   UNL     1      -6.560  -8.748   8.694  0.00  0.00    +0.044 C 
ATOM     15  C   UNL     1      -4.294  -9.747   8.839  0.00  0.00    +0.008 C 
ATOM     16  C   UNL     1      -5.487  -9.477   7.910  0.00  0.00    +0.008 C 
ATOM     17  C   UNL     1      -6.308 -10.472  12.218  0.00  0.00    +0.043 C 
ATOM     18  C   UNL     1      -3.426 -10.472  11.098  0.00  0.00    +0.051 C 
ATOM     19  C   UNL     1      -7.883  -8.456   8.014  0.00  0.00    +0.101 C 
ATOM     20  C   UNL     1      -5.006 -11.960   9.801  0.00  0.00    +0.012 C 
ATOM     21  C   UNL     1      -5.087 -10.899  12.995  0.00  0.00    +0.057 A 
ATOM     22  C   UNL     1      -3.808 -10.901  12.473  0.00  0.00    +0.015 A 
ATOM     23  C   UNL     1      -8.747  -8.220   9.239  0.00  0.00    +0.311 C 
ATOM     24  C   UNL     1      -7.214  -9.593  13.092  0.00  0.00    +0.014 C 
ATOM     25  C   UNL     1      -7.832  -7.249   7.095  0.00  0.00    +0.019 C 
ATOM     26  C   UNL     1      -3.993 -11.698  14.725  0.00  0.00    +0.178 A 
ATOM     33  H   UNL     1      -2.798 -12.402  16.313  0.00  0.00    +0.176 HD
ENDROOT
BRANCH  10   4
ATOM      4  S   UNL     1      -4.965 -13.338  16.637  0.00  0.00    +0.077 S 
ATOM      7  O   UNL     1      -4.322 -14.347  17.455  0.00  0.00    -0.150 OA
ATOM      8  O   UNL     1      -5.841 -13.724  15.546  0.00  0.00    -0.150 OA
BRANCH   4  27
ATOM      1 CL   UNL     1      -3.712 -12.172  19.338  0.00  0.00    -0.081 Cl
ATOM      2 CL   UNL     1      -7.990 -12.567  15.944  0.00  0.00    -0.081 Cl
ATOM     27  C   UNL     1      -5.914 -12.301  17.712  0.00  0.00    +0.145 A 
ATOM     28  C   UNL     1      -5.339 -11.811  18.880  0.00  0.00    +0.069 A 
ATOM     29  C   UNL     1      -7.226 -11.984  17.381  0.00  0.00    +0.069 A 
ATOM     30  C   UNL     1      -6.086 -10.993  19.727  0.00  0.00    +0.022 A 
ATOM     31  C   UNL     1      -7.974 -11.166  18.228  0.00  0.00    +0.022 A 
ATOM     32  C   UNL     1      -7.404 -10.670  19.401  0.00  0.00    +0.003 A 
ENDBRANCH   4  27
ENDBRANCH  10   4
TORSDOF 2
ENDMDL
MODEL 6
REMARK VINA RESULT:      -7.3     29.740     31.412
REMARK  Name = 11866256
REMARK  5 active torsions:
REMARK  status: ('A' for Active; 'I' for Inactive)
REMARK    1  A    between atoms: S_4  and  N_10
REMARK    2  A    between atoms: S_4  and  C_27
REMARK    3  A    between atoms: C_12  and  C_20
REMARK    4  A    between atoms: C_17  and  C_24
REMARK    5  A    between atoms: C_19  and  C_25
REMARK                            x       y       z     vdW  Elec       q    Type
REMARK                         _______ _______ _______ _____ _____    ______ ____
ROOT
ATOM      3  S   UNL     1      -0.330   8.372  37.043  0.00  0.00    -0.056 S 
ATOM      5  O   UNL     1      -5.129   6.832  41.765  0.00  0.00    -0.461 OA
ATOM      6  O   UNL     1      -6.799   6.065  43.148  0.00  0.00    -0.251 OA
ATOM      9  N   UNL     1      -2.405   9.693  37.842  0.00  0.00    -0.228 NA
ATOM     10  N   UNL     1      -1.315  10.719  35.935  0.00  0.00    -0.194 N 
ATOM     11  C   UNL     1      -3.011   6.907  40.403  0.00  0.00    +0.045 C 
ATOM     12  C   UNL     1      -1.470   6.538  40.544  0.00  0.00    -0.021 C 
ATOM     13  C   UNL     1      -3.710   6.678  41.754  0.00  0.00    +0.184 C 
ATOM     14  C   UNL     1      -3.551   5.234  42.189  0.00  0.00    +0.044 C 
ATOM     15  C   UNL     1      -1.299   5.114  41.156  0.00  0.00    +0.008 C 
ATOM     16  C   UNL     1      -2.098   4.888  42.448  0.00  0.00    +0.008 C 
ATOM     17  C   UNL     1      -3.237   8.340  39.800  0.00  0.00    +0.043 C 
ATOM     18  C   UNL     1      -0.812   6.542  39.129  0.00  0.00    +0.051 C 
ATOM     19  C   UNL     1      -4.526   5.183  43.349  0.00  0.00    +0.101 C 
ATOM     20  C   UNL     1      -0.708   7.543  41.450  0.00  0.00    +0.012 C 
ATOM     21  C   UNL     1      -2.280   8.584  38.660  0.00  0.00    +0.057 A 
ATOM     22  C   UNL     1      -1.195   7.774  38.382  0.00  0.00    +0.015 A 
ATOM     23  C   UNL     1      -5.636   6.047  42.779  0.00  0.00    +0.311 C 
ATOM     24  C   UNL     1      -4.684   8.558  39.335  0.00  0.00    +0.014 C 
ATOM     25  C   UNL     1      -4.991   3.778  43.681  0.00  0.00    +0.019 C 
ATOM     26  C   UNL     1      -1.440   9.679  36.950  0.00  0.00    +0.178 A 
ATOM     33  H   UNL     1      -0.545  10.585  35.269  0.00  0.00    +0.176 HD
ENDROOT
BRANCH  10   4
ATOM      4  S   UNL     1      -1.650  12.327  36.463  0.00  0.00    +0.077 S 
ATOM      7  O   UNL     1      -0.915  12.594  37.683  0.00  0.00    -0.150 OA
ATOM      8  O   UNL     1      -3.078  12.580  36.394  0.00  0.00    -0.150 OA
BRANCH   4  27
ATOM      1 CL   UNL     1      -3.251  13.018  33.783  0.00  0.00    -0.081 Cl
ATOM      2 CL   UNL     1       1.352  13.396  36.723  0.00  0.00    -0.081 Cl
ATOM     27  C   UNL     1      -0.900  13.269  35.167  0.00  0.00    +0.145 A 
ATOM     28  C   UNL     1      -1.623  13.552  34.014  0.00  0.00    +0.069 A 
ATOM     29  C   UNL     1       0.407  13.720  35.312  0.00  0.00    +0.069 A 
ATOM     30  C   UNL     1      -1.032  14.295  32.992  0.00  0.00    +0.022 A 
ATOM     31  C   UNL     1       0.999  14.463  34.291  0.00  0.00    +0.022 A 
ATOM     32  C   UNL     1       0.279  14.751  33.131  0.00  0.00    +0.003 A 
ENDBRANCH   4  27
ENDBRANCH  10   4
TORSDOF 2
ENDMDL
MODEL 7
REMARK VINA RESULT:      -7.3      7.499     10.867
REMARK  Name = 11866256
REMARK  5 active torsions:
REMARK  status: ('A' for Active; 'I' for Inactive)
REMARK    1  A    between atoms: S_4  and  N_10
REMARK    2  A    between atoms: S_4  and  C_27
REMARK    3  A    between atoms: C_12  and  C_20
REMARK    4  A    between atoms: C_17  and  C_24
REMARK    5  A    between atoms: C_19  and  C_25
REMARK                            x       y       z     vdW  Elec       q    Type
REMARK                         _______ _______ _______ _____ _____    ______ ____
ROOT
ATOM      3  S   UNL     1      -8.816  -9.943  10.001  0.00  0.00    -0.056 S 
ATOM      5  O   UNL     1      -7.660  -8.372   3.376  0.00  0.00    -0.461 OA
ATOM      6  O   UNL     1      -7.453  -8.112   1.100  0.00  0.00    -0.251 OA
ATOM      9  N   UNL     1      -6.612  -9.792   8.656  0.00  0.00    -0.228 NA
ATOM     10  N   UNL     1      -6.291 -10.683  10.888  0.00  0.00    -0.194 N 
ATOM     11  C   UNL     1      -8.692  -8.610   5.662  0.00  0.00    +0.045 C 
ATOM     12  C   UNL     1      -9.812  -7.923   6.560  0.00  0.00    -0.021 C 
ATOM     13  C   UNL     1      -8.533  -7.812   4.357  0.00  0.00    +0.184 C 
ATOM     14  C   UNL     1      -9.851  -7.761   3.608  0.00  0.00    +0.044 C 
ATOM     15  C   UNL     1     -11.120  -7.710   5.739  0.00  0.00    +0.008 C 
ATOM     16  C   UNL     1     -10.906  -7.006   4.391  0.00  0.00    +0.008 C 
ATOM     17  C   UNL     1      -7.347  -8.836   6.442  0.00  0.00    +0.043 C 
ATOM     18  C   UNL     1     -10.141  -8.855   7.767  0.00  0.00    +0.051 C 
ATOM     19  C   UNL     1      -9.394  -7.198   2.277  0.00  0.00    +0.101 C 
ATOM     20  C   UNL     1      -9.360  -6.542   7.106  0.00  0.00    +0.012 C 
ATOM     21  C   UNL     1      -7.630  -9.337   7.837  0.00  0.00    +0.057 A 
ATOM     22  C   UNL     1      -8.884  -9.328   8.415  0.00  0.00    +0.015 A 
ATOM     23  C   UNL     1      -8.073  -7.933   2.136  0.00  0.00    +0.311 C 
ATOM     24  C   UNL     1      -6.402  -9.800   5.712  0.00  0.00    +0.014 C 
ATOM     25  C   UNL     1     -10.352  -7.496   1.139  0.00  0.00    +0.019 C 
ATOM     26  C   UNL     1      -7.121 -10.147   9.815  0.00  0.00    +0.178 A 
ATOM     33  H   UNL     1      -6.803 -10.960  11.734  0.00  0.00    +0.176 HD
ENDROOT
BRANCH  10   4
ATOM      4  S   UNL     1      -4.749  -9.936  11.089  0.00  0.00    +0.077 S 
ATOM      7  O   UNL     1      -4.888  -8.501  10.935  0.00  0.00    -0.150 OA
ATOM      8  O   UNL     1      -3.748 -10.664  10.332  0.00  0.00    -0.150 OA
BRANCH   4  27
ATOM      1 CL   UNL     1      -1.874 -10.918  12.085  0.00  0.00    -0.081 Cl
ATOM      2 CL   UNL     1      -7.042  -9.566  13.287  0.00  0.00    -0.081 Cl
ATOM     27  C   UNL     1      -4.437 -10.265  12.799  0.00  0.00    +0.145 A 
ATOM     28  C   UNL     1      -3.176 -10.691  13.199  0.00  0.00    +0.069 A 
ATOM     29  C   UNL     1      -5.456 -10.093  13.730  0.00  0.00    +0.069 A 
ATOM     30  C   UNL     1      -2.929 -10.949  14.547  0.00  0.00    +0.022 A 
ATOM     31  C   UNL     1      -5.210 -10.352  15.078  0.00  0.00    +0.022 A 
ATOM     32  C   UNL     1      -3.946 -10.779  15.487  0.00  0.00    +0.003 A 
ENDBRANCH   4  27
ENDBRANCH  10   4
TORSDOF 2
ENDMDL
MODEL 8
REMARK VINA RESULT:      -7.2      3.214     10.157
REMARK  Name = 11866256
REMARK  5 active torsions:
REMARK  status: ('A' for Active; 'I' for Inactive)
REMARK    1  A    between atoms: S_4  and  N_10
REMARK    2  A    between atoms: S_4  and  C_27
REMARK    3  A    between atoms: C_12  and  C_20
REMARK    4  A    between atoms: C_17  and  C_24
REMARK    5  A    between atoms: C_19  and  C_25
REMARK                            x       y       z     vdW  Elec       q    Type
REMARK                         _______ _______ _______ _____ _____    ______ ____
ROOT
ATOM      3  S   UNL     1      -9.200  -8.459  15.880  0.00  0.00    -0.056 S 
ATOM      5  O   UNL     1     -12.864 -11.292  21.004  0.00  0.00    -0.461 OA
ATOM      6  O   UNL     1     -14.078 -11.940  22.846  0.00  0.00    -0.251 OA
ATOM      9  N   UNL     1      -8.619 -10.372  17.520  0.00  0.00    -0.228 NA
ATOM     10  N   UNL     1      -6.733  -9.702  16.153  0.00  0.00    -0.194 N 
ATOM     11  C   UNL     1     -12.170 -10.050  18.924  0.00  0.00    +0.045 C 
ATOM     12  C   UNL     1     -12.797  -9.552  17.549  0.00  0.00    -0.021 C 
ATOM     13  C   UNL     1     -13.219 -10.881  19.684  0.00  0.00    +0.184 C 
ATOM     14  C   UNL     1     -14.462 -10.051  19.941  0.00  0.00    +0.044 C 
ATOM     15  C   UNL     1     -14.166  -8.846  17.792  0.00  0.00    +0.008 C 
ATOM     16  C   UNL     1     -15.148  -9.662  18.646  0.00  0.00    +0.008 C 
ATOM     17  C   UNL     1     -10.792 -10.779  18.732  0.00  0.00    +0.043 C 
ATOM     18  C   UNL     1     -11.828  -8.521  16.891  0.00  0.00    +0.051 C 
ATOM     19  C   UNL     1     -15.201 -10.949  20.912  0.00  0.00    +0.101 C 
ATOM     20  C   UNL     1     -13.031 -10.721  16.555  0.00  0.00    +0.012 C 
ATOM     21  C   UNL     1      -9.947 -10.041  17.723  0.00  0.00    +0.057 A 
ATOM     22  C   UNL     1     -10.431  -9.041  16.902  0.00  0.00    +0.015 A 
ATOM     23  C   UNL     1     -14.026 -11.455  21.728  0.00  0.00    +0.311 C 
ATOM     24  C   UNL     1     -10.026 -10.941  20.052  0.00  0.00    +0.014 C 
ATOM     25  C   UNL     1     -16.222 -10.208  21.756  0.00  0.00    +0.019 C 
ATOM     26  C   UNL     1      -8.123  -9.598  16.581  0.00  0.00    +0.178 A 
ATOM     33  H   UNL     1      -6.447  -9.022  15.439  0.00  0.00    +0.176 HD
ENDROOT
BRANCH  10   4
ATOM      4  S   UNL     1      -6.101 -11.302  16.037  0.00  0.00    +0.077 S 
ATOM      7  O   UNL     1      -6.781 -12.011  14.971  0.00  0.00    -0.150 OA
ATOM      8  O   UNL     1      -5.998 -11.888  17.361  0.00  0.00    -0.150 OA
BRANCH   4  27
ATOM      1 CL   UNL     1      -3.646 -11.355  18.086  0.00  0.00    -0.081 Cl
ATOM      2 CL   UNL     1      -5.471 -10.635  12.974  0.00  0.00    -0.081 Cl
ATOM     27  C   UNL     1      -4.449 -10.973  15.494  0.00  0.00    +0.145 A 
ATOM     28  C   UNL     1      -3.404 -11.003  16.411  0.00  0.00    +0.069 A 
ATOM     29  C   UNL     1      -4.210 -10.687  14.155  0.00  0.00    +0.069 A 
ATOM     30  C   UNL     1      -2.102 -10.744  15.983  0.00  0.00    +0.022 A 
ATOM     31  C   UNL     1      -2.908 -10.427  13.726  0.00  0.00    +0.022 A 
ATOM     32  C   UNL     1      -1.854 -10.456  14.640  0.00  0.00    +0.003 A 
ENDBRANCH   4  27
ENDBRANCH  10   4
TORSDOF 2
ENDMDL
MODEL 9
REMARK VINA RESULT:      -7.2     27.189     29.418
REMARK  Name = 11866256
REMARK  5 active torsions:
REMARK  status: ('A' for Active; 'I' for Inactive)
REMARK    1  A    between atoms: S_4  and  N_10
REMARK    2  A    between atoms: S_4  and  C_27
REMARK    3  A    between atoms: C_12  and  C_20
REMARK    4  A    between atoms: C_17  and  C_24
REMARK    5  A    between atoms: C_19  and  C_25
REMARK                            x       y       z     vdW  Elec       q    Type
REMARK                         _______ _______ _______ _____ _____    ______ ____
ROOT
ATOM      3  S   UNL     1      13.649   7.582   3.616  0.00  0.00    -0.056 S 
ATOM      5  O   UNL     1      10.036   5.165  -1.751  0.00  0.00    -0.461 OA
ATOM      6  O   UNL     1       9.060   4.499  -3.725  0.00  0.00    -0.251 OA
ATOM      9  N   UNL     1      11.230   8.071   2.845  0.00  0.00    -0.228 NA
ATOM     10  N   UNL     1      11.942   9.502   4.667  0.00  0.00    -0.194 N 
ATOM     11  C   UNL     1      11.738   5.464   0.083  0.00  0.00    +0.045 C 
ATOM     12  C   UNL     1      12.769   4.596   0.927  0.00  0.00    -0.021 C 
ATOM     13  C   UNL     1      10.918   4.531  -0.824  0.00  0.00    +0.184 C 
ATOM     14  C   UNL     1      11.837   3.756  -1.749  0.00  0.00    +0.044 C 
ATOM     15  C   UNL     1      13.601   3.666  -0.008  0.00  0.00    +0.008 C 
ATOM     16  C   UNL     1      12.752   2.828  -0.975  0.00  0.00    +0.008 C 
ATOM     17  C   UNL     1      10.866   6.411   0.983  0.00  0.00    +0.043 C 
ATOM     18  C   UNL     1      13.756   5.552   1.666  0.00  0.00    +0.051 C 
ATOM     19  C   UNL     1      10.826   3.149  -2.702  0.00  0.00    +0.101 C 
ATOM     20  C   UNL     1      12.059   3.703   1.980  0.00  0.00    +0.012 C 
ATOM     21  C   UNL     1      11.720   7.052   2.048  0.00  0.00    +0.057 A 
ATOM     22  C   UNL     1      13.007   6.647   2.346  0.00  0.00    +0.015 A 
ATOM     23  C   UNL     1       9.867   4.319  -2.827  0.00  0.00    +0.311 C 
ATOM     24  C   UNL     1      10.137   7.488   0.166  0.00  0.00    +0.014 C 
ATOM     25  C   UNL     1      11.427   2.742  -4.035  0.00  0.00    +0.019 C 
ATOM     26  C   UNL     1      12.161   8.434   3.699  0.00  0.00    +0.178 A 
ATOM     33  H   UNL     1      12.753   9.724   5.258  0.00  0.00    +0.176 HD
ENDROOT
BRANCH  10   4
ATOM      4  S   UNL     1      10.380   9.547   5.396  0.00  0.00    +0.077 S 
ATOM      7  O   UNL     1       9.370   9.634   4.361  0.00  0.00    -0.150 OA
ATOM      8  O   UNL     1      10.381  10.484   6.505  0.00  0.00    -0.150 OA
BRANCH   4  27
ATOM      1 CL   UNL     1      12.675   8.458   7.339  0.00  0.00    -0.081 Cl
ATOM      2 CL   UNL     1       7.918   7.607   4.765  0.00  0.00    -0.081 Cl
ATOM     27  C   UNL     1      10.291   7.925   6.098  0.00  0.00    +0.145 A 
ATOM     28  C   UNL     1      11.306   7.481   6.938  0.00  0.00    +0.069 A 
ATOM     29  C   UNL     1       9.206   7.107   5.804  0.00  0.00    +0.069 A 
ATOM     30  C   UNL     1      11.235   6.203   7.492  0.00  0.00    +0.022 A 
ATOM     31  C   UNL     1       9.135   5.828   6.357  0.00  0.00    +0.022 A 
ATOM     32  C   UNL     1      10.150   5.377   7.201  0.00  0.00    +0.003 A 
ENDBRANCH   4  27
ENDBRANCH  10   4
TORSDOF 2
ENDMDL
MODEL 10
REMARK VINA RESULT:      -7.1      5.034      7.553
REMARK  Name = 11866256
REMARK  5 active torsions:
REMARK  status: ('A' for Active; 'I' for Inactive)
REMARK    1  A    between atoms: S_4  and  N_10
REMARK    2  A    between atoms: S_4  and  C_27
REMARK    3  A    between atoms: C_12  and  C_20
REMARK    4  A    between atoms: C_17  and  C_24
REMARK    5  A    between atoms: C_19  and  C_25
REMARK                            x       y       z     vdW  Elec       q    Type
REMARK                         _______ _______ _______ _____ _____    ______ ____
ROOT
ATOM      3  S   UNL     1      -4.123 -10.314  11.891  0.00  0.00    -0.056 S 
ATOM      5  O   UNL     1      -8.732  -8.871   6.954  0.00  0.00    -0.461 OA
ATOM      6  O   UNL     1     -10.080  -8.133   5.243  0.00  0.00    -0.251 OA
ATOM      9  N   UNL     1      -6.643  -9.752  12.039  0.00  0.00    -0.228 NA
ATOM     10  N   UNL     1      -5.577  -9.869  14.213  0.00  0.00    -0.194 N 
ATOM     11  C   UNL     1      -6.703  -9.682   8.208  0.00  0.00    +0.045 C 
ATOM     12  C   UNL     1      -5.533 -10.748   8.051  0.00  0.00    -0.021 C 
ATOM     13  C   UNL     1      -7.691  -9.843   7.040  0.00  0.00    +0.184 C 
ATOM     14  C   UNL     1      -6.977  -9.652   5.716  0.00  0.00    +0.044 C 
ATOM     15  C   UNL     1      -4.906 -10.672   6.625  0.00  0.00    +0.008 C 
ATOM     16  C   UNL     1      -5.934 -10.728   5.486  0.00  0.00    +0.008 C 
ATOM     17  C   UNL     1      -7.376  -9.726   9.627  0.00  0.00    +0.043 C 
ATOM     18  C   UNL     1      -4.414 -10.434   9.092  0.00  0.00    +0.051 C 
ATOM     19  C   UNL     1      -8.159  -9.572   4.770  0.00  0.00    +0.101 C 
ATOM     20  C   UNL     1      -6.030 -12.201   8.278  0.00  0.00    +0.012 C 
ATOM     21  C   UNL     1      -6.325  -9.879  10.698  0.00  0.00    +0.057 A 
ATOM     22  C   UNL     1      -5.007 -10.206  10.440  0.00  0.00    +0.015 A 
ATOM     23  C   UNL     1      -9.115  -8.769   5.633  0.00  0.00    +0.311 C 
ATOM     24  C   UNL     1      -8.242  -8.490   9.904  0.00  0.00    +0.014 C 
ATOM     25  C   UNL     1      -7.833  -8.879   3.460  0.00  0.00    +0.019 C 
ATOM     26  C   UNL     1      -5.560  -9.951  12.757  0.00  0.00    +0.178 A 
ATOM     33  H   UNL     1      -4.666 -10.006  14.665  0.00  0.00    +0.176 HD
ENDROOT
BRANCH  10   4
ATOM      4  S   UNL     1      -6.967 -10.538  14.986  0.00  0.00    +0.077 S 
ATOM      7  O   UNL     1      -7.224 -11.860  14.450  0.00  0.00    -0.150 OA
ATOM      8  O   UNL     1      -8.025  -9.547  15.039  0.00  0.00    -0.150 OA
BRANCH   4  27
ATOM      1 CL   UNL     1      -4.333 -12.245  15.596  0.00  0.00    -0.081 Cl
ATOM      2 CL   UNL     1      -8.482  -9.200  17.464  0.00  0.00    -0.081 Cl
ATOM     27  C   UNL     1      -6.368 -10.736  16.639  0.00  0.00    +0.145 A 
ATOM     28  C   UNL     1      -5.220 -11.486  16.871  0.00  0.00    +0.069 A 
ATOM     29  C   UNL     1      -7.050 -10.140  17.694  0.00  0.00    +0.069 A 
ATOM     30  C   UNL     1      -4.748 -11.641  18.174  0.00  0.00    +0.022 A 
ATOM     31  C   UNL     1      -6.579 -10.297  18.997  0.00  0.00    +0.022 A 
ATOM     32  C   UNL     1      -5.427 -11.047  19.237  0.00  0.00    +0.003 A 
ENDBRANCH   4  27
ENDBRANCH  10   4
TORSDOF 2
ENDMDL
