MODEL 1
REMARK VINA RESULT:      -8.6      0.000      0.000
REMARK  Name = 40481337
REMARK  6 active torsions:
REMARK  status: ('A' for Active; 'I' for Inactive)
REMARK    1  A    between atoms: O_3  and  C_11
REMARK    2  A    between atoms: O_3  and  C_15
REMARK    3  A    between atoms: N_4  and  C_10
REMARK    4  A    between atoms: C_14  and  C_16
REMARK    5  A    between atoms: C_15  and  C_17
REMARK    6  A    between atoms: C_24  and  C_28
REMARK                            x       y       z     vdW  Elec       q    Type
REMARK                         _______ _______ _______ _____ _____    ______ ____
ROOT
ATOM      4  N   UNL     1     -16.468   3.319  23.563  0.00  0.00    -0.217 N 
ATOM      5  N   UNL     1     -16.906   3.040  22.327  0.00  0.00    -0.043 NA
ATOM      6  N   UNL     1     -17.538   1.442  23.747  0.00  0.00    -0.108 NA
ATOM      7  N   UNL     1     -17.559   1.891  22.446  0.00  0.00    -0.023 NA
ATOM     14  C   UNL     1     -16.858   2.341  24.421  0.00  0.00    +0.182 A 
ENDROOT
BRANCH   4  10
ATOM      1  O   UNL     1     -13.674   4.704  22.518  0.00  0.00    -0.369 OA
ATOM      2  O   UNL     1     -15.654   6.933  23.269  0.00  0.00    -0.369 OA
ATOM      8  C   UNL     1     -15.858   5.606  22.736  0.00  0.00    +0.176 C 
ATOM      9  C   UNL     1     -14.720   5.345  21.770  0.00  0.00    +0.180 C 
ATOM     10  C   UNL     1     -15.664   4.577  23.835  0.00  0.00    +0.168 C 
ATOM     11  C   UNL     1     -14.327   6.737  21.338  0.00  0.00    +0.175 C 
ATOM     12  C   UNL     1     -14.148   4.407  23.840  0.00  0.00    +0.190 C 
ATOM     13  C   UNL     1     -14.532   7.534  22.606  0.00  0.00    +0.194 C 
BRANCH  11   3
ATOM      3  O   UNL     1     -13.003   6.826  20.864  0.00  0.00    -0.367 OA
BRANCH   3  15
ATOM     15  C   UNL     1     -12.476   8.144  20.996  0.00  0.00    +0.195 C 
BRANCH  15  17
ATOM     17  C   UNL     1     -11.641   8.462  19.792  0.00  0.00    -0.022 A 
ATOM     20  C   UNL     1     -11.596   7.572  18.719  0.00  0.00    +0.006 A 
ATOM     21  C   UNL     1     -10.907   9.648  19.744  0.00  0.00    +0.006 A 
ATOM     25  C   UNL     1     -10.819   7.867  17.598  0.00  0.00    +0.000 A 
ATOM     26  C   UNL     1     -10.130   9.943  18.625  0.00  0.00    +0.000 A 
ATOM     27  C   UNL     1     -10.086   9.053  17.552  0.00  0.00    +0.000 A 
ENDBRANCH  15  17
ENDBRANCH   3  15
ENDBRANCH  11   3
ENDBRANCH   4  10
BRANCH  14  16
ATOM     16  C   UNL     1     -16.558   2.324  25.829  0.00  0.00    +0.021 A 
ATOM     18  C   UNL     1     -16.453   1.108  26.506  0.00  0.00    +0.012 A 
ATOM     19  C   UNL     1     -16.372   3.523  26.518  0.00  0.00    +0.012 A 
ATOM     22  C   UNL     1     -16.163   1.091  27.870  0.00  0.00    +0.009 A 
ATOM     23  C   UNL     1     -16.081   3.505  27.882  0.00  0.00    +0.009 A 
ATOM     24  C   UNL     1     -15.977   2.291  28.557  0.00  0.00    -0.018 A 
BRANCH  24  28
ATOM     28  C   UNL     1     -15.674   2.273  29.973  0.00  0.00    -0.018 A 
ATOM     29  C   UNL     1     -15.160   1.118  30.561  0.00  0.00    +0.008 A 
ATOM     30  C   UNL     1     -15.897   3.412  30.748  0.00  0.00    +0.008 A 
ATOM     31  C   UNL     1     -14.868   1.101  31.925  0.00  0.00    +0.001 A 
ATOM     32  C   UNL     1     -15.605   3.394  32.112  0.00  0.00    +0.001 A 
ATOM     33  C   UNL     1     -15.090   2.238  32.700  0.00  0.00    +0.000 A 
ENDBRANCH  24  28
ENDBRANCH  14  16
TORSDOF 6
ENDMDL
MODEL 2
REMARK VINA RESULT:      -8.3      1.690      2.605
REMARK  Name = 40481337
REMARK  6 active torsions:
REMARK  status: ('A' for Active; 'I' for Inactive)
REMARK    1  A    between atoms: O_3  and  C_11
REMARK    2  A    between atoms: O_3  and  C_15
REMARK    3  A    between atoms: N_4  and  C_10
REMARK    4  A    between atoms: C_14  and  C_16
REMARK    5  A    between atoms: C_15  and  C_17
REMARK    6  A    between atoms: C_24  and  C_28
REMARK                            x       y       z     vdW  Elec       q    Type
REMARK                         _______ _______ _______ _____ _____    ______ ____
ROOT
ATOM      4  N   UNL     1     -16.746   2.178  25.111  0.00  0.00    -0.217 N 
ATOM      5  N   UNL     1     -17.182   1.426  24.090  0.00  0.00    -0.043 NA
ATOM      6  N   UNL     1     -17.219   0.249  25.983  0.00  0.00    -0.108 NA
ATOM      7  N   UNL     1     -17.468   0.247  24.630  0.00  0.00    -0.023 NA
ATOM     14  C   UNL     1     -16.773   1.453  26.259  0.00  0.00    +0.182 A 
ENDROOT
BRANCH   4  10
ATOM      1  O   UNL     1     -15.339   3.961  22.734  0.00  0.00    -0.369 OA
ATOM      2  O   UNL     1     -17.264   5.769  24.309  0.00  0.00    -0.369 OA
ATOM      8  C   UNL     1     -17.304   4.357  24.005  0.00  0.00    +0.176 C 
ATOM      9  C   UNL     1     -16.751   4.198  22.603  0.00  0.00    +0.180 C 
ATOM     10  C   UNL     1     -16.316   3.615  24.887  0.00  0.00    +0.168 C 
ATOM     11  C   UNL     1     -17.037   5.543  21.979  0.00  0.00    +0.175 C 
ATOM     12  C   UNL     1     -15.010   3.804  24.121  0.00  0.00    +0.190 C 
ATOM     13  C   UNL     1     -16.829   6.485  23.143  0.00  0.00    +0.194 C 
BRANCH  11   3
ATOM      3  O   UNL     1     -16.196   5.850  20.891  0.00  0.00    -0.367 OA
BRANCH   3  15
ATOM     15  C   UNL     1     -15.703   7.186  20.957  0.00  0.00    +0.195 C 
BRANCH  15  17
ATOM     17  C   UNL     1     -14.268   7.202  20.524  0.00  0.00    -0.022 A 
ATOM     20  C   UNL     1     -13.291   6.607  21.322  0.00  0.00    +0.006 A 
ATOM     21  C   UNL     1     -13.909   7.813  19.322  0.00  0.00    +0.006 A 
ATOM     25  C   UNL     1     -11.956   6.621  20.919  0.00  0.00    +0.000 A 
ATOM     26  C   UNL     1     -12.574   7.828  18.919  0.00  0.00    +0.000 A 
ATOM     27  C   UNL     1     -11.598   7.233  19.717  0.00  0.00    +0.000 A 
ENDBRANCH  15  17
ENDBRANCH   3  15
ENDBRANCH  11   3
ENDBRANCH   4  10
BRANCH  14  16
ATOM     16  C   UNL     1     -16.371   1.953  27.549  0.00  0.00    +0.021 A 
ATOM     18  C   UNL     1     -16.078   1.063  28.583  0.00  0.00    +0.012 A 
ATOM     19  C   UNL     1     -16.275   3.328  27.766  0.00  0.00    +0.012 A 
ATOM     22  C   UNL     1     -15.689   1.546  29.831  0.00  0.00    +0.009 A 
ATOM     23  C   UNL     1     -15.886   3.811  29.015  0.00  0.00    +0.009 A 
ATOM     24  C   UNL     1     -15.593   2.922  30.047  0.00  0.00    -0.018 A 
BRANCH  24  28
ATOM     28  C   UNL     1     -15.189   3.424  31.343  0.00  0.00    -0.018 A 
ATOM     29  C   UNL     1     -14.902   4.779  31.506  0.00  0.00    +0.008 A 
ATOM     30  C   UNL     1     -15.087   2.553  32.427  0.00  0.00    +0.008 A 
ATOM     31  C   UNL     1     -14.512   5.264  32.754  0.00  0.00    +0.001 A 
ATOM     32  C   UNL     1     -14.697   3.038  33.676  0.00  0.00    +0.001 A 
ATOM     33  C   UNL     1     -14.409   4.394  33.839  0.00  0.00    +0.000 A 
ENDBRANCH  24  28
ENDBRANCH  14  16
TORSDOF 6
ENDMDL
MODEL 3
REMARK VINA RESULT:      -8.2     31.851     35.503
REMARK  Name = 40481337
REMARK  6 active torsions:
REMARK  status: ('A' for Active; 'I' for Inactive)
REMARK    1  A    between atoms: O_3  and  C_11
REMARK    2  A    between atoms: O_3  and  C_15
REMARK    3  A    between atoms: N_4  and  C_10
REMARK    4  A    between atoms: C_14  and  C_16
REMARK    5  A    between atoms: C_15  and  C_17
REMARK    6  A    between atoms: C_24  and  C_28
REMARK                            x       y       z     vdW  Elec       q    Type
REMARK                         _______ _______ _______ _____ _____    ______ ____
ROOT
ATOM      4  N   UNL     1      11.005   6.770   6.100  0.00  0.00    -0.217 N 
ATOM      5  N   UNL     1      10.785   6.714   7.421  0.00  0.00    -0.043 NA
ATOM      6  N   UNL     1       9.676   5.080   6.388  0.00  0.00    -0.108 NA
ATOM      7  N   UNL     1       9.971   5.679   7.591  0.00  0.00    -0.023 NA
ATOM     14  C   UNL     1      10.326   5.770   5.479  0.00  0.00    +0.182 A 
ENDROOT
BRANCH   4  10
ATOM      1  O   UNL     1      13.693   8.454   6.965  0.00  0.00    -0.369 OA
ATOM      2  O   UNL     1      13.712   8.073   3.914  0.00  0.00    -0.369 OA
ATOM      8  C   UNL     1      13.197   7.248   4.982  0.00  0.00    +0.176 C 
ATOM      9  C   UNL     1      14.167   7.377   6.140  0.00  0.00    +0.180 C 
ATOM     10  C   UNL     1      11.902   7.840   5.508  0.00  0.00    +0.168 C 
ATOM     11  C   UNL     1      15.462   7.731   5.448  0.00  0.00    +0.175 C 
ATOM     12  C   UNL     1      12.413   8.892   6.487  0.00  0.00    +0.190 C 
ATOM     13  C   UNL     1      14.987   8.603   4.308  0.00  0.00    +0.194 C 
BRANCH  11   3
ATOM      3  O   UNL     1      16.380   8.400   6.281  0.00  0.00    -0.367 OA
BRANCH   3  15
ATOM     15  C   UNL     1      17.285   9.211   5.535  0.00  0.00    +0.195 C 
BRANCH  15  17
ATOM     17  C   UNL     1      18.642   8.574   5.551  0.00  0.00    -0.022 A 
ATOM     20  C   UNL     1      19.124   7.929   4.412  0.00  0.00    +0.006 A 
ATOM     21  C   UNL     1      19.424   8.625   6.706  0.00  0.00    +0.006 A 
ATOM     25  C   UNL     1      20.387   7.336   4.427  0.00  0.00    +0.000 A 
ATOM     26  C   UNL     1      20.685   8.031   6.721  0.00  0.00    +0.000 A 
ATOM     27  C   UNL     1      21.167   7.387   5.582  0.00  0.00    +0.000 A 
ENDBRANCH  15  17
ENDBRANCH   3  15
ENDBRANCH  11   3
ENDBRANCH   4  10
BRANCH  14  16
ATOM     16  C   UNL     1      10.338   5.536   4.058  0.00  0.00    +0.021 A 
ATOM     18  C   UNL     1      10.824   4.329   3.554  0.00  0.00    +0.012 A 
ATOM     19  C   UNL     1       9.865   6.515   3.185  0.00  0.00    +0.012 A 
ATOM     22  C   UNL     1      10.837   4.102   2.179  0.00  0.00    +0.009 A 
ATOM     23  C   UNL     1       9.878   6.288   1.809  0.00  0.00    +0.009 A 
ATOM     24  C   UNL     1      10.363   5.082   1.306  0.00  0.00    -0.018 A 
BRANCH  24  28
ATOM     28  C   UNL     1      10.375   4.846  -0.122  0.00  0.00    -0.018 A 
ATOM     29  C   UNL     1       9.516   5.563  -0.954  0.00  0.00    +0.008 A 
ATOM     30  C   UNL     1      11.247   3.902  -0.665  0.00  0.00    +0.008 A 
ATOM     31  C   UNL     1       9.527   5.336  -2.330  0.00  0.00    +0.001 A 
ATOM     32  C   UNL     1      11.258   3.675  -2.042  0.00  0.00    +0.001 A 
ATOM     33  C   UNL     1      10.398   4.392  -2.874  0.00  0.00    +0.000 A 
ENDBRANCH  24  28
ENDBRANCH  14  16
TORSDOF 6
ENDMDL
MODEL 4
REMARK VINA RESULT:      -7.9     32.925     36.443
REMARK  Name = 40481337
REMARK  6 active torsions:
REMARK  status: ('A' for Active; 'I' for Inactive)
REMARK    1  A    between atoms: O_3  and  C_11
REMARK    2  A    between atoms: O_3  and  C_15
REMARK    3  A    between atoms: N_4  and  C_10
REMARK    4  A    between atoms: C_14  and  C_16
REMARK    5  A    between atoms: C_15  and  C_17
REMARK    6  A    between atoms: C_24  and  C_28
REMARK                            x       y       z     vdW  Elec       q    Type
REMARK                         _______ _______ _______ _____ _____    ______ ____
ROOT
ATOM      4  N   UNL     1      11.335   6.464   4.688  0.00  0.00    -0.217 N 
ATOM      5  N   UNL     1      11.024   6.541   5.990  0.00  0.00    -0.043 NA
ATOM      6  N   UNL     1      10.081   4.738   5.079  0.00  0.00    -0.108 NA
ATOM      7  N   UNL     1      10.256   5.484   6.222  0.00  0.00    -0.023 NA
ATOM     14  C   UNL     1      10.757   5.363   4.142  0.00  0.00    +0.182 A 
ENDROOT
BRANCH   4  10
ATOM      1  O   UNL     1      13.673   8.590   5.595  0.00  0.00    -0.369 OA
ATOM      2  O   UNL     1      14.235   7.685   2.711  0.00  0.00    -0.369 OA
ATOM      8  C   UNL     1      13.628   7.004   3.831  0.00  0.00    +0.176 C 
ATOM      9  C   UNL     1      14.377   7.452   5.071  0.00  0.00    +0.180 C 
ATOM     10  C   UNL     1      12.214   7.515   4.038  0.00  0.00    +0.168 C 
ATOM     11  C   UNL     1      15.729   7.834   4.521  0.00  0.00    +0.175 C 
ATOM     12  C   UNL     1      12.456   8.778   4.860  0.00  0.00    +0.190 C 
ATOM     13  C   UNL     1      15.371   8.428   3.177  0.00  0.00    +0.194 C 
BRANCH  11   3
ATOM      3  O   UNL     1      16.430   8.748   5.334  0.00  0.00    -0.367 OA
BRANCH   3  15
ATOM     15  C   UNL     1      17.552   9.312   4.659  0.00  0.00    +0.195 C 
BRANCH  15  17
ATOM     17  C   UNL     1      18.804   8.645   5.145  0.00  0.00    -0.022 A 
ATOM     20  C   UNL     1      19.237   8.842   6.456  0.00  0.00    +0.006 A 
ATOM     21  C   UNL     1      19.537   7.826   4.285  0.00  0.00    +0.006 A 
ATOM     25  C   UNL     1      20.401   8.220   6.908  0.00  0.00    +0.000 A 
ATOM     26  C   UNL     1      20.701   7.205   4.736  0.00  0.00    +0.000 A 
ATOM     27  C   UNL     1      21.133   7.403   6.047  0.00  0.00    +0.000 A 
ENDBRANCH  15  17
ENDBRANCH   3  15
ENDBRANCH  11   3
ENDBRANCH   4  10
BRANCH  14  16
ATOM     16  C   UNL     1      10.886   4.975   2.761  0.00  0.00    +0.021 A 
ATOM     18  C   UNL     1      10.038   5.526   1.800  0.00  0.00    +0.012 A 
ATOM     19  C   UNL     1      11.857   4.048   2.384  0.00  0.00    +0.012 A 
ATOM     22  C   UNL     1      10.161   5.150   0.463  0.00  0.00    +0.009 A 
ATOM     23  C   UNL     1      11.981   3.672   1.047  0.00  0.00    +0.009 A 
ATOM     24  C   UNL     1      11.134   4.223   0.086  0.00  0.00    -0.018 A 
BRANCH  24  28
ATOM     28  C   UNL     1      11.263   3.833  -1.302  0.00  0.00    -0.018 A 
ATOM     29  C   UNL     1      12.268   2.946  -1.686  0.00  0.00    +0.008 A 
ATOM     30  C   UNL     1      10.382   4.345  -2.254  0.00  0.00    +0.008 A 
ATOM     31  C   UNL     1      12.393   2.571  -3.023  0.00  0.00    +0.001 A 
ATOM     32  C   UNL     1      10.506   3.970  -3.592  0.00  0.00    +0.001 A 
ATOM     33  C   UNL     1      11.513   3.082  -3.976  0.00  0.00    +0.000 A 
ENDBRANCH  24  28
ENDBRANCH  14  16
TORSDOF 6
ENDMDL
MODEL 5
REMARK VINA RESULT:      -7.7     19.276     22.376
REMARK  Name = 40481337
REMARK  6 active torsions:
REMARK  status: ('A' for Active; 'I' for Inactive)
REMARK    1  A    between atoms: O_3  and  C_11
REMARK    2  A    between atoms: O_3  and  C_15
REMARK    3  A    between atoms: N_4  and  C_10
REMARK    4  A    between atoms: C_14  and  C_16
REMARK    5  A    between atoms: C_15  and  C_17
REMARK    6  A    between atoms: C_24  and  C_28
REMARK                            x       y       z     vdW  Elec       q    Type
REMARK                         _______ _______ _______ _____ _____    ______ ____
ROOT
ATOM      4  N   UNL     1      -7.498  -8.646   6.836  0.00  0.00    -0.217 N 
ATOM      5  N   UNL     1      -6.776  -9.169   5.835  0.00  0.00    -0.043 NA
ATOM      6  N   UNL     1      -8.143  -7.590   5.054  0.00  0.00    -0.108 NA
ATOM      7  N   UNL     1      -7.176  -8.519   4.748  0.00  0.00    -0.023 NA
ATOM     14  C   UNL     1      -8.327  -7.686   6.352  0.00  0.00    +0.182 A 
ENDROOT
BRANCH   4  10
ATOM      1  O   UNL     1      -5.423 -10.569   8.511  0.00  0.00    -0.369 OA
ATOM      2  O   UNL     1      -6.474  -8.380  10.398  0.00  0.00    -0.369 OA
ATOM      8  C   UNL     1      -6.220  -8.382   8.976  0.00  0.00    +0.176 C 
ATOM      9  C   UNL     1      -4.978  -9.224   8.756  0.00  0.00    +0.180 C 
ATOM     10  C   UNL     1      -7.322  -9.141   8.259  0.00  0.00    +0.168 C 
ATOM     11  C   UNL     1      -4.259  -9.104  10.079  0.00  0.00    +0.175 C 
ATOM     12  C   UNL     1      -6.853 -10.585   8.406  0.00  0.00    +0.190 C 
ATOM     13  C   UNL     1      -5.406  -9.071  11.063  0.00  0.00    +0.194 C 
BRANCH  11   3
ATOM      3  O   UNL     1      -3.371 -10.168  10.335  0.00  0.00    -0.367 OA
BRANCH   3  15
ATOM     15  C   UNL     1      -2.309  -9.780  11.203  0.00  0.00    +0.195 C 
BRANCH  15  17
ATOM     17  C   UNL     1      -2.232 -10.747  12.347  0.00  0.00    -0.022 A 
ATOM     20  C   UNL     1      -1.861 -10.300  13.615  0.00  0.00    +0.006 A 
ATOM     21  C   UNL     1      -2.532 -12.094  12.142  0.00  0.00    +0.006 A 
ATOM     25  C   UNL     1      -1.790 -11.200  14.679  0.00  0.00    +0.000 A 
ATOM     26  C   UNL     1      -2.460 -12.993  13.206  0.00  0.00    +0.000 A 
ATOM     27  C   UNL     1      -2.089 -12.546  14.473  0.00  0.00    +0.000 A 
ENDBRANCH  15  17
ENDBRANCH   3  15
ENDBRANCH  11   3
ENDBRANCH   4  10
BRANCH  14  16
ATOM     16  C   UNL     1      -9.244  -6.918   7.155  0.00  0.00    +0.021 A 
ATOM     18  C   UNL     1      -8.761  -5.925   8.008  0.00  0.00    +0.012 A 
ATOM     19  C   UNL     1     -10.614  -7.167   7.082  0.00  0.00    +0.012 A 
ATOM     22  C   UNL     1      -9.648  -5.182   8.787  0.00  0.00    +0.009 A 
ATOM     23  C   UNL     1     -11.501  -6.424   7.860  0.00  0.00    +0.009 A 
ATOM     24  C   UNL     1     -11.018  -5.432   8.712  0.00  0.00    -0.018 A 
BRANCH  24  28
ATOM     28  C   UNL     1     -11.939  -4.660   9.519  0.00  0.00    -0.018 A 
ATOM     29  C   UNL     1     -11.588  -4.293  10.818  0.00  0.00    +0.008 A 
ATOM     30  C   UNL     1     -13.176  -4.282   8.997  0.00  0.00    +0.008 A 
ATOM     31  C   UNL     1     -12.475  -3.549  11.596  0.00  0.00    +0.001 A 
ATOM     32  C   UNL     1     -14.063  -3.538   9.775  0.00  0.00    +0.001 A 
ATOM     33  C   UNL     1     -13.712  -3.171  11.075  0.00  0.00    +0.000 A 
ENDBRANCH  24  28
ENDBRANCH  14  16
TORSDOF 6
ENDMDL
MODEL 6
REMARK VINA RESULT:      -7.7     19.403     22.516
REMARK  Name = 40481337
REMARK  6 active torsions:
REMARK  status: ('A' for Active; 'I' for Inactive)
REMARK    1  A    between atoms: O_3  and  C_11
REMARK    2  A    between atoms: O_3  and  C_15
REMARK    3  A    between atoms: N_4  and  C_10
REMARK    4  A    between atoms: C_14  and  C_16
REMARK    5  A    between atoms: C_15  and  C_17
REMARK    6  A    between atoms: C_24  and  C_28
REMARK                            x       y       z     vdW  Elec       q    Type
REMARK                         _______ _______ _______ _____ _____    ______ ____
ROOT
ATOM      4  N   UNL     1      -6.062  -9.622   7.524  0.00  0.00    -0.217 N 
ATOM      5  N   UNL     1      -5.483 -10.534   6.730  0.00  0.00    -0.043 NA
ATOM      6  N   UNL     1      -7.463  -9.938   5.899  0.00  0.00    -0.108 NA
ATOM      7  N   UNL     1      -6.345 -10.723   5.739  0.00  0.00    -0.023 NA
ATOM     14  C   UNL     1      -7.267  -9.265   7.009  0.00  0.00    +0.182 A 
ENDROOT
BRANCH   4  10
ATOM      1  O   UNL     1      -5.694 -10.613  10.637  0.00  0.00    -0.369 OA
ATOM      2  O   UNL     1      -3.164  -9.085   9.788  0.00  0.00    -0.369 OA
ATOM      8  C   UNL     1      -4.086  -9.909   9.040  0.00  0.00    +0.176 C 
ATOM      9  C   UNL     1      -4.502 -11.041   9.958  0.00  0.00    +0.180 C 
ATOM     10  C   UNL     1      -5.370  -9.140   8.784  0.00  0.00    +0.168 C 
ATOM     11  C   UNL     1      -3.329 -11.150  10.902  0.00  0.00    +0.175 C 
ATOM     12  C   UNL     1      -6.133  -9.363  10.087  0.00  0.00    +0.190 C 
ATOM     13  C   UNL     1      -2.909  -9.706  11.057  0.00  0.00    +0.194 C 
BRANCH  11   3
ATOM      3  O   UNL     1      -3.653 -11.744  12.138  0.00  0.00    -0.367 OA
BRANCH   3  15
ATOM     15  C   UNL     1      -2.814 -11.276  13.192  0.00  0.00    +0.195 C 
BRANCH  15  17
ATOM     17  C   UNL     1      -3.670 -10.842  14.344  0.00  0.00    -0.022 A 
ATOM     20  C   UNL     1      -3.154 -10.850  15.640  0.00  0.00    +0.006 A 
ATOM     21  C   UNL     1      -4.985 -10.430  14.120  0.00  0.00    +0.006 A 
ATOM     25  C   UNL     1      -3.950 -10.445  16.711  0.00  0.00    +0.000 A 
ATOM     26  C   UNL     1      -5.781 -10.027  15.192  0.00  0.00    +0.000 A 
ATOM     27  C   UNL     1      -5.264 -10.034  16.486  0.00  0.00    +0.000 A 
ENDBRANCH  15  17
ENDBRANCH   3  15
ENDBRANCH  11   3
ENDBRANCH   4  10
BRANCH  14  16
ATOM     16  C   UNL     1      -8.157  -8.303   7.608  0.00  0.00    +0.021 A 
ATOM     18  C   UNL     1      -7.917  -6.938   7.452  0.00  0.00    +0.012 A 
ATOM     19  C   UNL     1      -9.259  -8.737   8.345  0.00  0.00    +0.012 A 
ATOM     22  C   UNL     1      -8.778  -6.007   8.032  0.00  0.00    +0.009 A 
ATOM     23  C   UNL     1     -10.120  -7.806   8.925  0.00  0.00    +0.009 A 
ATOM     24  C   UNL     1      -9.881  -6.442   8.768  0.00  0.00    -0.018 A 
BRANCH  24  28
ATOM     28  C   UNL     1     -10.776  -5.476   9.370  0.00  0.00    -0.018 A 
ATOM     29  C   UNL     1     -10.637  -4.120   9.074  0.00  0.00    +0.008 A 
ATOM     30  C   UNL     1     -11.776  -5.902  10.243  0.00  0.00    +0.008 A 
ATOM     31  C   UNL     1     -11.499  -3.189   9.652  0.00  0.00    +0.001 A 
ATOM     32  C   UNL     1     -12.638  -4.970  10.822  0.00  0.00    +0.001 A 
ATOM     33  C   UNL     1     -12.500  -3.613  10.526  0.00  0.00    +0.000 A 
ENDBRANCH  24  28
ENDBRANCH  14  16
TORSDOF 6
ENDMDL
MODEL 7
REMARK VINA RESULT:      -7.7     18.278     19.918
REMARK  Name = 40481337
REMARK  6 active torsions:
REMARK  status: ('A' for Active; 'I' for Inactive)
REMARK    1  A    between atoms: O_3  and  C_11
REMARK    2  A    between atoms: O_3  and  C_15
REMARK    3  A    between atoms: N_4  and  C_10
REMARK    4  A    between atoms: C_14  and  C_16
REMARK    5  A    between atoms: C_15  and  C_17
REMARK    6  A    between atoms: C_24  and  C_28
REMARK                            x       y       z     vdW  Elec       q    Type
REMARK                         _______ _______ _______ _____ _____    ______ ____
ROOT
ATOM      4  N   UNL     1      -6.344 -11.416  18.117  0.00  0.00    -0.217 N 
ATOM      5  N   UNL     1      -5.391 -11.894  18.930  0.00  0.00    -0.043 NA
ATOM      6  N   UNL     1      -6.845 -10.663  20.089  0.00  0.00    -0.108 NA
ATOM      7  N   UNL     1      -5.703 -11.429  20.134  0.00  0.00    -0.023 NA
ATOM     14  C   UNL     1      -7.225 -10.668  18.832  0.00  0.00    +0.182 A 
ENDROOT
BRANCH   4  10
ATOM      1  O   UNL     1      -4.546 -10.651  15.473  0.00  0.00    -0.369 OA
ATOM      2  O   UNL     1      -5.646 -13.501  15.122  0.00  0.00    -0.369 OA
ATOM      8  C   UNL     1      -5.259 -12.758  16.299  0.00  0.00    +0.176 C 
ATOM      9  C   UNL     1      -4.052 -11.927  15.913  0.00  0.00    +0.180 C 
ATOM     10  C   UNL     1      -6.330 -11.736  16.635  0.00  0.00    +0.168 C 
ATOM     11  C   UNL     1      -3.455 -12.719  14.775  0.00  0.00    +0.175 C 
ATOM     12  C   UNL     1      -5.959 -10.580  15.710  0.00  0.00    +0.190 C 
ATOM     13  C   UNL     1      -4.685 -13.259  14.083  0.00  0.00    +0.194 C 
BRANCH  11   3
ATOM      3  O   UNL     1      -2.655 -11.946  13.910  0.00  0.00    -0.367 OA
BRANCH   3  15
ATOM     15  C   UNL     1      -2.679 -12.443  12.574  0.00  0.00    +0.195 C 
BRANCH  15  17
ATOM     17  C   UNL     1      -2.908 -11.300  11.630  0.00  0.00    -0.022 A 
ATOM     20  C   UNL     1      -4.018 -11.304  10.785  0.00  0.00    +0.006 A 
ATOM     21  C   UNL     1      -2.009 -10.234  11.595  0.00  0.00    +0.006 A 
ATOM     25  C   UNL     1      -4.231 -10.241   9.907  0.00  0.00    +0.000 A 
ATOM     26  C   UNL     1      -2.221  -9.171  10.717  0.00  0.00    +0.000 A 
ATOM     27  C   UNL     1      -3.332  -9.175   9.873  0.00  0.00    +0.000 A 
ENDBRANCH  15  17
ENDBRANCH   3  15
ENDBRANCH  11   3
ENDBRANCH   4  10
BRANCH  14  16
ATOM     16  C   UNL     1      -8.374 -10.005  18.271  0.00  0.00    +0.021 A 
ATOM     18  C   UNL     1      -9.645 -10.558  18.430  0.00  0.00    +0.012 A 
ATOM     19  C   UNL     1      -8.217  -8.810  17.570  0.00  0.00    +0.012 A 
ATOM     22  C   UNL     1     -10.758  -9.917  17.887  0.00  0.00    +0.009 A 
ATOM     23  C   UNL     1      -9.330  -8.168  17.027  0.00  0.00    +0.009 A 
ATOM     24  C   UNL     1     -10.600  -8.721  17.186  0.00  0.00    -0.018 A 
BRANCH  24  28
ATOM     28  C   UNL     1     -11.755  -8.054  16.624  0.00  0.00    -0.018 A 
ATOM     29  C   UNL     1     -11.609  -6.817  15.997  0.00  0.00    +0.008 A 
ATOM     30  C   UNL     1     -13.014  -8.650  16.708  0.00  0.00    +0.008 A 
ATOM     31  C   UNL     1     -12.722  -6.174  15.455  0.00  0.00    +0.001 A 
ATOM     32  C   UNL     1     -14.127  -8.007  16.166  0.00  0.00    +0.001 A 
ATOM     33  C   UNL     1     -13.981  -6.769  15.539  0.00  0.00    +0.000 A 
ENDBRANCH  24  28
ENDBRANCH  14  16
TORSDOF 6
ENDMDL
MODEL 8
REMARK VINA RESULT:      -7.6     19.634     23.108
REMARK  Name = 40481337
REMARK  6 active torsions:
REMARK  status: ('A' for Active; 'I' for Inactive)
REMARK    1  A    between atoms: O_3  and  C_11
REMARK    2  A    between atoms: O_3  and  C_15
REMARK    3  A    between atoms: N_4  and  C_10
REMARK    4  A    between atoms: C_14  and  C_16
REMARK    5  A    between atoms: C_15  and  C_17
REMARK    6  A    between atoms: C_24  and  C_28
REMARK                            x       y       z     vdW  Elec       q    Type
REMARK                         _______ _______ _______ _____ _____    ______ ____
ROOT
ATOM      4  N   UNL     1      -3.342 -10.694  13.934  0.00  0.00    -0.217 N 
ATOM      5  N   UNL     1      -2.541 -10.495  14.990  0.00  0.00    -0.043 NA
ATOM      6  N   UNL     1      -1.464  -9.992  13.104  0.00  0.00    -0.108 NA
ATOM      7  N   UNL     1      -1.394 -10.067  14.477  0.00  0.00    -0.023 NA
ATOM     14  C   UNL     1      -2.678 -10.384  12.790  0.00  0.00    +0.182 A 
ENDROOT
BRANCH   4  10
ATOM      1  O   UNL     1      -5.444 -11.202  16.410  0.00  0.00    -0.369 OA
ATOM      2  O   UNL     1      -7.047 -10.414  13.908  0.00  0.00    -0.369 OA
ATOM      8  C   UNL     1      -5.726 -10.044  14.358  0.00  0.00    +0.176 C 
ATOM      9  C   UNL     1      -5.798  -9.920  15.867  0.00  0.00    +0.180 C 
ATOM     10  C   UNL     1      -4.762 -11.192  14.120  0.00  0.00    +0.168 C 
ATOM     11  C   UNL     1      -7.254  -9.595  16.103  0.00  0.00    +0.175 C 
ATOM     12  C   UNL     1      -5.003 -12.062  15.350  0.00  0.00    +0.190 C 
ATOM     13  C   UNL     1      -7.940 -10.412  15.032  0.00  0.00    +0.194 C 
BRANCH  11   3
ATOM      3  O   UNL     1      -7.704  -9.931  17.396  0.00  0.00    -0.367 OA
BRANCH   3  15
ATOM     15  C   UNL     1      -8.667 -10.981  17.370  0.00  0.00    +0.195 C 
BRANCH  15  17
ATOM     17  C   UNL     1      -9.893 -10.540  18.113  0.00  0.00    -0.022 A 
ATOM     20  C   UNL     1     -10.969  -9.986  17.419  0.00  0.00    +0.006 A 
ATOM     21  C   UNL     1      -9.957 -10.683  19.499  0.00  0.00    +0.006 A 
ATOM     25  C   UNL     1     -12.109  -9.576  18.111  0.00  0.00    +0.000 A 
ATOM     26  C   UNL     1     -11.097 -10.272  20.191  0.00  0.00    +0.000 A 
ATOM     27  C   UNL     1     -12.172  -9.719  19.496  0.00  0.00    +0.000 A 
ENDBRANCH  15  17
ENDBRANCH   3  15
ENDBRANCH  11   3
ENDBRANCH   4  10
BRANCH  14  16
ATOM     16  C   UNL     1      -3.241 -10.482  11.468  0.00  0.00    +0.021 A 
ATOM     18  C   UNL     1      -3.472 -11.735  10.899  0.00  0.00    +0.012 A 
ATOM     19  C   UNL     1      -3.557  -9.325  10.756  0.00  0.00    +0.012 A 
ATOM     22  C   UNL     1      -4.017 -11.830   9.619  0.00  0.00    +0.009 A 
ATOM     23  C   UNL     1      -4.102  -9.420   9.476  0.00  0.00    +0.009 A 
ATOM     24  C   UNL     1      -4.333 -10.672   8.908  0.00  0.00    -0.018 A 
BRANCH  24  28
ATOM     28  C   UNL     1      -4.900 -10.771   7.580  0.00  0.00    -0.018 A 
ATOM     29  C   UNL     1      -5.867  -9.855   7.166  0.00  0.00    +0.008 A 
ATOM     30  C   UNL     1      -4.478 -11.780   6.715  0.00  0.00    +0.008 A 
ATOM     31  C   UNL     1      -6.414  -9.950   5.886  0.00  0.00    +0.001 A 
ATOM     32  C   UNL     1      -5.025 -11.875   5.435  0.00  0.00    +0.001 A 
ATOM     33  C   UNL     1      -5.993 -10.959   5.021  0.00  0.00    +0.000 A 
ENDBRANCH  24  28
ENDBRANCH  14  16
TORSDOF 6
ENDMDL
MODEL 9
REMARK VINA RESULT:      -7.5     16.460     18.314
REMARK  Name = 40481337
REMARK  6 active torsions:
REMARK  status: ('A' for Active; 'I' for Inactive)
REMARK    1  A    between atoms: O_3  and  C_11
REMARK    2  A    between atoms: O_3  and  C_15
REMARK    3  A    between atoms: N_4  and  C_10
REMARK    4  A    between atoms: C_14  and  C_16
REMARK    5  A    between atoms: C_15  and  C_17
REMARK    6  A    between atoms: C_24  and  C_28
REMARK                            x       y       z     vdW  Elec       q    Type
REMARK                         _______ _______ _______ _____ _____    ______ ____
ROOT
ATOM      4  N   UNL     1      -9.911 -10.595  18.306  0.00  0.00    -0.217 N 
ATOM      5  N   UNL     1     -10.809 -10.687  19.297  0.00  0.00    -0.043 NA
ATOM      6  N   UNL     1      -8.753 -11.029  20.088  0.00  0.00    -0.108 NA
ATOM      7  N   UNL     1     -10.095 -10.953  20.384  0.00  0.00    -0.023 NA
ATOM     14  C   UNL     1      -8.662 -10.804  18.797  0.00  0.00    +0.182 A 
ENDROOT
BRANCH   4  10
ATOM      1  O   UNL     1     -12.415  -9.094  16.793  0.00  0.00    -0.369 OA
ATOM      2  O   UNL     1      -9.883  -8.746  15.083  0.00  0.00    -0.369 OA
ATOM      8  C   UNL     1     -10.071  -8.852  16.511  0.00  0.00    +0.176 C 
ATOM      9  C   UNL     1     -11.357  -8.121  16.837  0.00  0.00    +0.180 C 
ATOM     10  C   UNL     1     -10.352 -10.296  16.886  0.00  0.00    +0.168 C 
ATOM     11  C   UNL     1     -11.467  -7.124  15.709  0.00  0.00    +0.175 C 
ATOM     12  C   UNL     1     -11.850 -10.401  16.621  0.00  0.00    +0.190 C 
ATOM     13  C   UNL     1     -10.911  -7.904  14.539  0.00  0.00    +0.194 C 
BRANCH  11   3
ATOM      3  O   UNL     1     -12.784  -6.682  15.473  0.00  0.00    -0.367 OA
BRANCH   3  15
ATOM     15  C   UNL     1     -13.197  -6.926  14.131  0.00  0.00    +0.195 C 
BRANCH  15  17
ATOM     17  C   UNL     1     -13.410  -5.614  13.437  0.00  0.00    -0.022 A 
ATOM     20  C   UNL     1     -12.335  -4.957  12.839  0.00  0.00    +0.006 A 
ATOM     21  C   UNL     1     -14.685  -5.049  13.390  0.00  0.00    +0.006 A 
ATOM     25  C   UNL     1     -12.533  -3.736  12.194  0.00  0.00    +0.000 A 
ATOM     26  C   UNL     1     -14.883  -3.828  12.746  0.00  0.00    +0.000 A 
ATOM     27  C   UNL     1     -13.808  -3.172  12.148  0.00  0.00    +0.000 A 
ENDBRANCH  15  17
ENDBRANCH   3  15
ENDBRANCH  11   3
ENDBRANCH   4  10
BRANCH  14  16
ATOM     16  C   UNL     1      -7.459 -10.777  18.005  0.00  0.00    +0.021 A 
ATOM     18  C   UNL     1      -6.759 -11.959  17.759  0.00  0.00    +0.012 A 
ATOM     19  C   UNL     1      -6.994  -9.570  17.484  0.00  0.00    +0.012 A 
ATOM     22  C   UNL     1      -5.594 -11.933  16.993  0.00  0.00    +0.009 A 
ATOM     23  C   UNL     1      -5.829  -9.545  16.717  0.00  0.00    +0.009 A 
ATOM     24  C   UNL     1      -5.130 -10.725  16.472  0.00  0.00    -0.018 A 
BRANCH  24  28
ATOM     28  C   UNL     1      -3.921 -10.698  15.675  0.00  0.00    -0.018 A 
ATOM     29  C   UNL     1      -4.005 -10.697  14.283  0.00  0.00    +0.008 A 
ATOM     30  C   UNL     1      -2.675 -10.672  16.300  0.00  0.00    +0.008 A 
ATOM     31  C   UNL     1      -2.841 -10.671  13.515  0.00  0.00    +0.001 A 
ATOM     32  C   UNL     1      -1.510 -10.646  15.532  0.00  0.00    +0.001 A 
ATOM     33  C   UNL     1      -1.594 -10.646  14.139  0.00  0.00    +0.000 A 
ENDBRANCH  24  28
ENDBRANCH  14  16
TORSDOF 6
ENDMDL
MODEL 10
REMARK VINA RESULT:      -7.5     29.970     34.406
REMARK  Name = 40481337
REMARK  6 active torsions:
REMARK  status: ('A' for Active; 'I' for Inactive)
REMARK    1  A    between atoms: O_3  and  C_11
REMARK    2  A    between atoms: O_3  and  C_15
REMARK    3  A    between atoms: N_4  and  C_10
REMARK    4  A    between atoms: C_14  and  C_16
REMARK    5  A    between atoms: C_15  and  C_17
REMARK    6  A    between atoms: C_24  and  C_28
REMARK                            x       y       z     vdW  Elec       q    Type
REMARK                         _______ _______ _______ _____ _____    ______ ____
ROOT
ATOM      4  N   UNL     1       9.914   7.539   0.699  0.00  0.00    -0.217 N 
ATOM      5  N   UNL     1       9.906   8.387  -0.339  0.00  0.00    -0.043 NA
ATOM      6  N   UNL     1       9.539   9.494   1.561  0.00  0.00    -0.108 NA
ATOM      7  N   UNL     1       9.676   9.581   0.195  0.00  0.00    -0.023 NA
ATOM     14  C   UNL     1       9.690   8.222   1.852  0.00  0.00    +0.182 A 
ENDROOT
BRANCH   4  10
ATOM      1  O   UNL     1      10.948   5.554  -1.710  0.00  0.00    -0.369 OA
ATOM      2  O   UNL     1      11.793   4.346   0.989  0.00  0.00    -0.369 OA
ATOM      8  C   UNL     1      11.628   5.715   0.558  0.00  0.00    +0.176 C 
ATOM      9  C   UNL     1      12.100   5.779  -0.881  0.00  0.00    +0.180 C 
ATOM     10  C   UNL     1      10.151   6.056   0.486  0.00  0.00    +0.168 C 
ATOM     11  C   UNL     1      13.079   4.632  -0.959  0.00  0.00    +0.175 C 
ATOM     12  C   UNL     1       9.772   5.515  -0.889  0.00  0.00    +0.190 C 
ATOM     13  C   UNL     1      12.437   3.603  -0.057  0.00  0.00    +0.194 C 
BRANCH  11   3
ATOM      3  O   UNL     1      13.271   4.145  -2.268  0.00  0.00    -0.367 OA
BRANCH   3  15
ATOM     15  C   UNL     1      12.807   2.804  -2.411  0.00  0.00    +0.195 C 
BRANCH  15  17
ATOM     17  C   UNL     1      11.732   2.767  -3.456  0.00  0.00    -0.022 A 
ATOM     20  C   UNL     1      12.019   3.146  -4.768  0.00  0.00    +0.006 A 
ATOM     21  C   UNL     1      10.443   2.353  -3.117  0.00  0.00    +0.006 A 
ATOM     25  C   UNL     1      11.019   3.111  -5.739  0.00  0.00    +0.000 A 
ATOM     26  C   UNL     1       9.443   2.318  -4.088  0.00  0.00    +0.000 A 
ATOM     27  C   UNL     1       9.731   2.698  -5.399  0.00  0.00    +0.000 A 
ENDBRANCH  15  17
ENDBRANCH   3  15
ENDBRANCH  11   3
ENDBRANCH   4  10
BRANCH  14  16
ATOM     16  C   UNL     1       9.634   7.619   3.159  0.00  0.00    +0.021 A 
ATOM     18  C   UNL     1      10.812   7.240   3.804  0.00  0.00    +0.012 A 
ATOM     19  C   UNL     1       8.403   7.413   3.781  0.00  0.00    +0.012 A 
ATOM     22  C   UNL     1      10.759   6.656   5.069  0.00  0.00    +0.009 A 
ATOM     23  C   UNL     1       8.349   6.829   5.046  0.00  0.00    +0.009 A 
ATOM     24  C   UNL     1       9.526   6.451   5.690  0.00  0.00    -0.018 A 
BRANCH  24  28
ATOM     28  C   UNL     1       9.470   5.846   7.004  0.00  0.00    -0.018 A 
ATOM     29  C   UNL     1       9.810   4.504   7.167  0.00  0.00    +0.008 A 
ATOM     30  C   UNL     1       9.078   6.607   8.105  0.00  0.00    +0.008 A 
ATOM     31  C   UNL     1       9.756   3.920   8.433  0.00  0.00    +0.001 A 
ATOM     32  C   UNL     1       9.024   6.024   9.371  0.00  0.00    +0.001 A 
ATOM     33  C   UNL     1       9.364   4.680   9.535  0.00  0.00    +0.000 A 
ENDBRANCH  24  28
ENDBRANCH  14  16
TORSDOF 6
ENDMDL
