MODEL 1
REMARK VINA RESULT:      -8.0      0.000      0.000
REMARK  Name = 7142693
REMARK  5 active torsions:
REMARK  status: ('A' for Active; 'I' for Inactive)
REMARK    1  A    between atoms: O_5  and  C_28
REMARK    2  A    between atoms: O_5  and  C_30
REMARK    3  A    between atoms: N_8  and  C_20
REMARK    4  A    between atoms: N_9  and  C_29
REMARK    5  A    between atoms: C_19  and  C_22
REMARK                            x       y       z     vdW  Elec       q    Type
REMARK                         _______ _______ _______ _____ _____    ______ ____
ROOT
ATOM      2  O   UNL     1      15.438   5.838  20.788  0.00  0.00    -0.266 OA
ATOM      3  O   UNL     1      11.581   7.358  17.691  0.00  0.00    -0.270 OA
ATOM      6  N   UNL     1      11.793   8.947  19.395  0.00  0.00    -0.297 N 
ATOM      7  N   UNL     1      14.303   7.868  21.007  0.00  0.00    -0.310 N 
ATOM     10  C   UNL     1      11.841   8.009  21.699  0.00  0.00    +0.027 C 
ATOM     11  C   UNL     1      13.090  10.069  21.191  0.00  0.00    +0.054 C 
ATOM     12  C   UNL     1      12.220   9.383  22.243  0.00  0.00    +0.018 C 
ATOM     13  C   UNL     1      11.062   8.150  20.379  0.00  0.00    +0.113 C 
ATOM     14  C   UNL     1      13.117   7.176  21.531  0.00  0.00    +0.130 C 
ATOM     15  C   UNL     1      12.286  10.244  19.888  0.00  0.00    +0.117 C 
ATOM     16  C   UNL     1      14.345   9.263  20.912  0.00  0.00    +0.027 A 
ATOM     17  C   UNL     1      15.478   9.882  20.540  0.00  0.00    +0.024 A 
ATOM     18  C   UNL     1      15.422   7.067  20.703  0.00  0.00    +0.273 A 
ATOM     19  C   UNL     1      11.990   8.440  18.109  0.00  0.00    +0.247 C 
ATOM     20  C   UNL     1      16.656   7.792  20.266  0.00  0.00    +0.100 A 
ATOM     21  C   UNL     1      16.655   9.128  20.210  0.00  0.00    +0.030 A 
ENDROOT
BRANCH  20   8
ATOM      4  O   UNL     1      18.773   7.083  22.027  0.00  0.00    -0.252 OA
ATOM      8  N   UNL     1      17.754   7.051  19.944  0.00  0.00    -0.265 N 
ATOM      9  N   UNL     1      19.754   5.959  20.216  0.00  0.00    -0.269 N 
ATOM     25  C   UNL     1      18.773   6.727  20.851  0.00  0.00    +0.308 C 
ATOM     36  H   UNL     1      17.961   6.939  18.956  0.00  0.00    +0.157 HD
ATOM     37  H   UNL     1      19.601   5.746  19.233  0.00  0.00    +0.156 HD
BRANCH   9  29
ATOM      1 CL   UNL     1      24.713   3.755  22.549  0.00  0.00    -0.084 Cl
ATOM     29  C   UNL     1      20.942   5.431  20.776  0.00  0.00    +0.035 A 
ATOM     31  C   UNL     1      21.975   6.291  21.109  0.00  0.00    +0.025 A 
ATOM     32  C   UNL     1      21.048   4.065  20.978  0.00  0.00    +0.025 A 
ATOM     33  C   UNL     1      23.146   5.771  21.661  0.00  0.00    +0.022 A 
ATOM     34  C   UNL     1      22.218   3.544  21.528  0.00  0.00    +0.022 A 
ATOM     35  C   UNL     1      23.268   4.397  21.869  0.00  0.00    +0.041 A 
ENDBRANCH   9  29
ENDBRANCH  20   8
BRANCH  19  22
ATOM     22  C   UNL     1      12.767   9.247  17.164  0.00  0.00    +0.037 A 
ATOM     23  C   UNL     1      14.078   9.603  17.471  0.00  0.00    +0.016 A 
ATOM     24  C   UNL     1      12.192   9.654  15.962  0.00  0.00    +0.016 A 
ATOM     26  C   UNL     1      14.818  10.371  16.571  0.00  0.00    +0.046 A 
ATOM     27  C   UNL     1      12.932  10.422  15.062  0.00  0.00    +0.046 A 
ATOM     28  C   UNL     1      14.245  10.780  15.367  0.00  0.00    +0.120 A 
BRANCH  28   5
ATOM      5  O   UNL     1      14.968  11.528  14.490  0.00  0.00    -0.495 OA
ATOM     30  C   UNL     1      16.379  11.589  14.698  0.00  0.00    +0.277 C 
ENDBRANCH  28   5
ENDBRANCH  19  22
TORSDOF 4
ENDMDL
MODEL 2
REMARK VINA RESULT:      -8.0      2.002      2.256
REMARK  Name = 7142693
REMARK  5 active torsions:
REMARK  status: ('A' for Active; 'I' for Inactive)
REMARK    1  A    between atoms: O_5  and  C_28
REMARK    2  A    between atoms: O_5  and  C_30
REMARK    3  A    between atoms: N_8  and  C_20
REMARK    4  A    between atoms: N_9  and  C_29
REMARK    5  A    between atoms: C_19  and  C_22
REMARK                            x       y       z     vdW  Elec       q    Type
REMARK                         _______ _______ _______ _____ _____    ______ ____
ROOT
ATOM      2  O   UNL     1      15.639   5.935  19.233  0.00  0.00    -0.266 OA
ATOM      3  O   UNL     1      12.775   9.792  17.312  0.00  0.00    -0.270 OA
ATOM      6  N   UNL     1      12.395   9.706  19.619  0.00  0.00    -0.297 N 
ATOM      7  N   UNL     1      14.381   7.410  20.538  0.00  0.00    -0.310 N 
ATOM     10  C   UNL     1      11.820   7.451  20.500  0.00  0.00    +0.027 C 
ATOM     11  C   UNL     1      13.050   9.042  21.920  0.00  0.00    +0.054 C 
ATOM     12  C   UNL     1      11.950   7.982  21.924  0.00  0.00    +0.018 C 
ATOM     13  C   UNL     1      11.453   8.590  19.532  0.00  0.00    +0.113 C 
ATOM     14  C   UNL     1      13.133   6.762  20.109  0.00  0.00    +0.130 C 
ATOM     15  C   UNL     1      12.651  10.198  20.982  0.00  0.00    +0.117 C 
ATOM     16  C   UNL     1      14.373   8.452  21.470  0.00  0.00    +0.027 A 
ATOM     17  C   UNL     1      15.530   8.952  21.936  0.00  0.00    +0.024 A 
ATOM     18  C   UNL     1      15.582   6.863  20.041  0.00  0.00    +0.273 A 
ATOM     19  C   UNL     1      12.985  10.200  18.453  0.00  0.00    +0.247 C 
ATOM     20  C   UNL     1      16.848   7.467  20.563  0.00  0.00    +0.100 A 
ATOM     21  C   UNL     1      16.791   8.448  21.470  0.00  0.00    +0.030 A 
ENDROOT
BRANCH  20   8
ATOM      4  O   UNL     1      18.895   6.248  22.117  0.00  0.00    -0.252 OA
ATOM      8  N   UNL     1      18.031   6.978  20.093  0.00  0.00    -0.265 N 
ATOM      9  N   UNL     1      20.101   5.988  20.122  0.00  0.00    -0.269 N 
ATOM     25  C   UNL     1      19.010   6.384  20.901  0.00  0.00    +0.308 C 
ATOM     36  H   UNL     1      18.316   7.277  19.164  0.00  0.00    +0.157 HD
ATOM     37  H   UNL     1      20.038   6.171  19.123  0.00  0.00    +0.156 HD
BRANCH   9  29
ATOM      1 CL   UNL     1      25.069   3.340  21.908  0.00  0.00    -0.084 Cl
ATOM     29  C   UNL     1      21.291   5.354  20.550  0.00  0.00    +0.035 A 
ATOM     31  C   UNL     1      22.468   6.082  20.599  0.00  0.00    +0.025 A 
ATOM     32  C   UNL     1      21.256   4.017  20.912  0.00  0.00    +0.025 A 
ATOM     33  C   UNL     1      23.642   5.457  21.021  0.00  0.00    +0.022 A 
ATOM     34  C   UNL     1      22.428   3.391  21.333  0.00  0.00    +0.022 A 
ATOM     35  C   UNL     1      23.622   4.112  21.387  0.00  0.00    +0.041 A 
ENDBRANCH   9  29
ENDBRANCH  20   8
BRANCH  19  22
ATOM     22  C   UNL     1      13.959  11.287  18.584  0.00  0.00    +0.037 A 
ATOM     23  C   UNL     1      15.298  10.993  18.827  0.00  0.00    +0.016 A 
ATOM     24  C   UNL     1      13.541  12.611  18.464  0.00  0.00    +0.016 A 
ATOM     26  C   UNL     1      16.226  12.028  18.951  0.00  0.00    +0.046 A 
ATOM     27  C   UNL     1      14.469  13.646  18.588  0.00  0.00    +0.046 A 
ATOM     28  C   UNL     1      15.810  13.354  18.832  0.00  0.00    +0.120 A 
BRANCH  28   5
ATOM      5  O   UNL     1      16.716  14.363  18.951  0.00  0.00    -0.495 OA
ATOM     30  C   UNL     1      18.079  14.048  18.670  0.00  0.00    +0.277 C 
ENDBRANCH  28   5
ENDBRANCH  19  22
TORSDOF 4
ENDMDL
MODEL 3
REMARK VINA RESULT:      -7.6     28.083     32.114
REMARK  Name = 7142693
REMARK  5 active torsions:
REMARK  status: ('A' for Active; 'I' for Inactive)
REMARK    1  A    between atoms: O_5  and  C_28
REMARK    2  A    between atoms: O_5  and  C_30
REMARK    3  A    between atoms: N_8  and  C_20
REMARK    4  A    between atoms: N_9  and  C_29
REMARK    5  A    between atoms: C_19  and  C_22
REMARK                            x       y       z     vdW  Elec       q    Type
REMARK                         _______ _______ _______ _____ _____    ______ ____
ROOT
ATOM      2  O   UNL     1     -10.970  -8.434  18.007  0.00  0.00    -0.266 OA
ATOM      3  O   UNL     1      -6.676 -10.418  20.103  0.00  0.00    -0.270 OA
ATOM      6  N   UNL     1      -7.789 -12.150  18.989  0.00  0.00    -0.297 N 
ATOM      7  N   UNL     1     -10.243 -10.629  17.675  0.00  0.00    -0.310 N 
ATOM     10  C   UNL     1     -10.202 -12.372  19.551  0.00  0.00    +0.027 C 
ATOM     11  C   UNL     1      -9.410 -12.977  17.301  0.00  0.00    +0.054 C 
ATOM     12  C   UNL     1     -10.365 -13.384  18.422  0.00  0.00    +0.018 C 
ATOM     13  C   UNL     1      -8.752 -12.371  20.067  0.00  0.00    +0.113 C 
ATOM     14  C   UNL     1     -10.636 -10.992  19.044  0.00  0.00    +0.130 C 
ATOM     15  C   UNL     1      -7.958 -13.022  17.816  0.00  0.00    +0.117 C 
ATOM     16  C   UNL     1      -9.729 -11.584  16.791  0.00  0.00    +0.027 A 
ATOM     17  C   UNL     1      -9.485 -11.259  15.511  0.00  0.00    +0.024 A 
ATOM     18  C   UNL     1     -10.503  -9.304  17.271  0.00  0.00    +0.273 A 
ATOM     19  C   UNL     1      -6.822 -11.151  19.125  0.00  0.00    +0.247 C 
ATOM     20  C   UNL     1     -10.191  -8.975  15.845  0.00  0.00    +0.100 A 
ATOM     21  C   UNL     1      -9.721  -9.926  15.032  0.00  0.00    +0.030 A 
ENDROOT
BRANCH  20   8
ATOM      4  O   UNL     1     -12.442  -8.065  14.362  0.00  0.00    -0.252 OA
ATOM      8  N   UNL     1     -10.411  -7.697  15.420  0.00  0.00    -0.265 N 
ATOM      9  N   UNL     1     -11.469  -5.930  14.409  0.00  0.00    -0.269 N 
ATOM     25  C   UNL     1     -11.539  -7.298  14.691  0.00  0.00    +0.308 C 
ATOM     36  H   UNL     1      -9.613  -7.068  15.420  0.00  0.00    +0.157 HD
ATOM     37  H   UNL     1     -10.652  -5.434  14.757  0.00  0.00    +0.156 HD
BRANCH   9  29
ATOM      1 CL   UNL     1     -15.365  -2.635  11.435  0.00  0.00    -0.084 Cl
ATOM     29  C   UNL     1     -12.403  -5.141  13.697  0.00  0.00    +0.035 A 
ATOM     31  C   UNL     1     -13.743  -5.199  14.041  0.00  0.00    +0.025 A 
ATOM     32  C   UNL     1     -11.957  -4.324  12.670  0.00  0.00    +0.025 A 
ATOM     33  C   UNL     1     -14.663  -4.421  13.339  0.00  0.00    +0.022 A 
ATOM     34  C   UNL     1     -12.877  -3.547  11.967  0.00  0.00    +0.022 A 
ATOM     35  C   UNL     1     -14.231  -3.595  12.302  0.00  0.00    +0.041 A 
ENDBRANCH   9  29
ENDBRANCH  20   8
BRANCH  19  22
ATOM     22  C   UNL     1      -5.903 -10.927  18.005  0.00  0.00    +0.037 A 
ATOM     23  C   UNL     1      -4.638 -11.509  18.020  0.00  0.00    +0.016 A 
ATOM     24  C   UNL     1      -6.299 -10.134  16.931  0.00  0.00    +0.016 A 
ATOM     26  C   UNL     1      -3.763 -11.297  16.954  0.00  0.00    +0.046 A 
ATOM     27  C   UNL     1      -5.424  -9.921  15.865  0.00  0.00    +0.046 A 
ATOM     28  C   UNL     1      -4.157 -10.502  15.877  0.00  0.00    +0.120 A 
BRANCH  28   5
ATOM      5  O   UNL     1      -3.303 -10.297  14.836  0.00  0.00    -0.495 OA
ATOM     30  C   UNL     1      -1.944 -10.689  15.024  0.00  0.00    +0.277 C 
ENDBRANCH  28   5
ENDBRANCH  19  22
TORSDOF 4
ENDMDL
MODEL 4
REMARK VINA RESULT:      -7.3     11.564     14.368
REMARK  Name = 7142693
REMARK  5 active torsions:
REMARK  status: ('A' for Active; 'I' for Inactive)
REMARK    1  A    between atoms: O_5  and  C_28
REMARK    2  A    between atoms: O_5  and  C_30
REMARK    3  A    between atoms: N_8  and  C_20
REMARK    4  A    between atoms: N_9  and  C_29
REMARK    5  A    between atoms: C_19  and  C_22
REMARK                            x       y       z     vdW  Elec       q    Type
REMARK                         _______ _______ _______ _____ _____    ______ ____
ROOT
ATOM      2  O   UNL     1      12.752   7.406   3.711  0.00  0.00    -0.266 OA
ATOM      3  O   UNL     1       9.363  11.000   5.249  0.00  0.00    -0.270 OA
ATOM      6  N   UNL     1       8.685   8.951   6.153  0.00  0.00    -0.297 N 
ATOM      7  N   UNL     1      11.004   7.005   5.209  0.00  0.00    -0.310 N 
ATOM     10  C   UNL     1       8.541   7.083   4.515  0.00  0.00    +0.027 C 
ATOM     11  C   UNL     1       9.139   6.614   6.856  0.00  0.00    +0.054 C 
ATOM     12  C   UNL     1       8.333   6.102   5.664  0.00  0.00    +0.018 C 
ATOM     13  C   UNL     1       8.057   8.489   4.915  0.00  0.00    +0.113 C 
ATOM     14  C   UNL     1      10.022   7.073   4.119  0.00  0.00    +0.130 C 
ATOM     15  C   UNL     1       8.617   8.002   7.276  0.00  0.00    +0.117 C 
ATOM     16  C   UNL     1      10.616   6.704   6.519  0.00  0.00    +0.027 A 
ATOM     17  C   UNL     1      11.541   6.532   7.477  0.00  0.00    +0.024 A 
ATOM     18  C   UNL     1      12.360   7.158   4.852  0.00  0.00    +0.273 A 
ATOM     19  C   UNL     1       9.303  10.203   6.184  0.00  0.00    +0.247 C 
ATOM     20  C   UNL     1      13.358   6.986   5.954  0.00  0.00    +0.100 A 
ATOM     21  C   UNL     1      12.939   6.678   7.186  0.00  0.00    +0.030 A 
ENDROOT
BRANCH  20   8
ATOM      4  O   UNL     1      14.941   9.281   6.516  0.00  0.00    -0.252 OA
ATOM      8  N   UNL     1      14.678   7.145   5.652  0.00  0.00    -0.265 N 
ATOM      9  N   UNL     1      16.737   8.150   5.515  0.00  0.00    -0.269 N 
ATOM     25  C   UNL     1      15.417   8.298   5.951  0.00  0.00    +0.308 C 
ATOM     36  H   UNL     1      15.074   6.505   4.969  0.00  0.00    +0.157 HD
ATOM     37  H   UNL     1      16.971   7.267   5.065  0.00  0.00    +0.156 HD
BRANCH   9  29
ATOM      1 CL   UNL     1      21.166  12.031   5.970  0.00  0.00    -0.084 Cl
ATOM     29  C   UNL     1      17.798   9.078   5.624  0.00  0.00    +0.035 A 
ATOM     31  C   UNL     1      18.820   8.838   6.527  0.00  0.00    +0.025 A 
ATOM     32  C   UNL     1      17.794  10.210   4.825  0.00  0.00    +0.025 A 
ATOM     33  C   UNL     1      19.866   9.755   6.635  0.00  0.00    +0.022 A 
ATOM     34  C   UNL     1      18.839  11.127   4.932  0.00  0.00    +0.022 A 
ATOM     35  C   UNL     1      19.876  10.899   5.838  0.00  0.00    +0.041 A 
ENDBRANCH   9  29
ENDBRANCH  20   8
BRANCH  19  22
ATOM     22  C   UNL     1       9.961  10.613   7.428  0.00  0.00    +0.037 A 
ATOM     23  C   UNL     1      11.342  10.479   7.558  0.00  0.00    +0.016 A 
ATOM     24  C   UNL     1       9.205  11.136   8.474  0.00  0.00    +0.016 A 
ATOM     26  C   UNL     1      11.969  10.869   8.741  0.00  0.00    +0.046 A 
ATOM     27  C   UNL     1       9.832  11.527   9.657  0.00  0.00    +0.046 A 
ATOM     28  C   UNL     1      11.214  11.393   9.791  0.00  0.00    +0.120 A 
BRANCH  28   5
ATOM      5  O   UNL     1      11.827  11.775  10.944  0.00  0.00    -0.495 OA
ATOM     30  C   UNL     1      10.984  12.110  12.047  0.00  0.00    +0.277 C 
ENDBRANCH  28   5
ENDBRANCH  19  22
TORSDOF 4
ENDMDL
MODEL 5
REMARK VINA RESULT:      -7.3     24.395     28.835
REMARK  Name = 7142693
REMARK  5 active torsions:
REMARK  status: ('A' for Active; 'I' for Inactive)
REMARK    1  A    between atoms: O_5  and  C_28
REMARK    2  A    between atoms: O_5  and  C_30
REMARK    3  A    between atoms: N_8  and  C_20
REMARK    4  A    between atoms: N_9  and  C_29
REMARK    5  A    between atoms: C_19  and  C_22
REMARK                            x       y       z     vdW  Elec       q    Type
REMARK                         _______ _______ _______ _____ _____    ______ ____
ROOT
ATOM      2  O   UNL     1     -13.216  11.722  17.897  0.00  0.00    -0.266 OA
ATOM      3  O   UNL     1     -15.885  11.425  22.320  0.00  0.00    -0.270 OA
ATOM      6  N   UNL     1     -15.264   9.251  21.717  0.00  0.00    -0.297 N 
ATOM      7  N   UNL     1     -13.521   9.751  19.116  0.00  0.00    -0.310 N 
ATOM     10  C   UNL     1     -15.805   8.621  19.372  0.00  0.00    +0.027 C 
ATOM     11  C   UNL     1     -13.829   7.652  20.473  0.00  0.00    +0.054 C 
ATOM     12  C   UNL     1     -14.994   7.340  19.536  0.00  0.00    +0.018 C 
ATOM     13  C   UNL     1     -16.337   9.100  20.735  0.00  0.00    +0.113 C 
ATOM     14  C   UNL     1     -14.926   9.678  18.692  0.00  0.00    +0.130 C 
ATOM     15  C   UNL     1     -14.372   8.087  21.849  0.00  0.00    +0.117 C 
ATOM     16  C   UNL     1     -12.947   8.747  19.903  0.00  0.00    +0.027 A 
ATOM     17  C   UNL     1     -11.634   8.774  20.182  0.00  0.00    +0.024 A 
ATOM     18  C   UNL     1     -12.760  10.824  18.608  0.00  0.00    +0.273 A 
ATOM     19  C   UNL     1     -15.144  10.449  22.425  0.00  0.00    +0.247 C 
ATOM     20  C   UNL     1     -11.307  10.832  18.964  0.00  0.00    +0.100 A 
ATOM     21  C   UNL     1     -10.800   9.839  19.703  0.00  0.00    +0.030 A 
ENDROOT
BRANCH  20   8
ATOM      4  O   UNL     1      -9.720  10.825  16.604  0.00  0.00    -0.252 OA
ATOM      8  N   UNL     1     -10.542  11.864  18.508  0.00  0.00    -0.265 N 
ATOM      9  N   UNL     1      -9.108  13.026  17.143  0.00  0.00    -0.269 N 
ATOM     25  C   UNL     1      -9.775  11.812  17.335  0.00  0.00    +0.308 C 
ATOM     36  H   UNL     1     -10.327  12.606  19.169  0.00  0.00    +0.157 HD
ATOM     37  H   UNL     1      -9.265  13.748  17.843  0.00  0.00    +0.156 HD
BRANCH   9  29
ATOM      1 CL   UNL     1      -5.477  14.514  12.729  0.00  0.00    -0.084 Cl
ATOM     29  C   UNL     1      -8.238  13.381  16.086  0.00  0.00    +0.035 A 
ATOM     31  C   UNL     1      -6.869  13.342  16.291  0.00  0.00    +0.025 A 
ATOM     32  C   UNL     1      -8.773  13.762  14.866  0.00  0.00    +0.025 A 
ATOM     33  C   UNL     1      -6.011  13.693  15.249  0.00  0.00    +0.022 A 
ATOM     34  C   UNL     1      -7.916  14.114  13.824  0.00  0.00    +0.022 A 
ATOM     35  C   UNL     1      -6.534  14.080  14.015  0.00  0.00    +0.041 A 
ENDBRANCH   9  29
ENDBRANCH  20   8
BRANCH  19  22
ATOM     22  C   UNL     1     -14.029  10.581  23.368  0.00  0.00    +0.037 A 
ATOM     23  C   UNL     1     -14.184  10.162  24.687  0.00  0.00    +0.016 A 
ATOM     24  C   UNL     1     -12.820  11.125  22.941  0.00  0.00    +0.016 A 
ATOM     26  C   UNL     1     -13.123  10.287  25.585  0.00  0.00    +0.046 A 
ATOM     27  C   UNL     1     -11.759  11.251  23.838  0.00  0.00    +0.046 A 
ATOM     28  C   UNL     1     -11.911  10.832  25.160  0.00  0.00    +0.120 A 
BRANCH  28   5
ATOM      5  O   UNL     1     -10.876  10.953  26.036  0.00  0.00    -0.495 OA
ATOM     30  C   UNL     1     -10.766   9.956  27.051  0.00  0.00    +0.277 C 
ENDBRANCH  28   5
ENDBRANCH  19  22
TORSDOF 4
ENDMDL
MODEL 6
REMARK VINA RESULT:      -7.3     13.725     15.966
REMARK  Name = 7142693
REMARK  5 active torsions:
REMARK  status: ('A' for Active; 'I' for Inactive)
REMARK    1  A    between atoms: O_5  and  C_28
REMARK    2  A    between atoms: O_5  and  C_30
REMARK    3  A    between atoms: N_8  and  C_20
REMARK    4  A    between atoms: N_9  and  C_29
REMARK    5  A    between atoms: C_19  and  C_22
REMARK                            x       y       z     vdW  Elec       q    Type
REMARK                         _______ _______ _______ _____ _____    ______ ____
ROOT
ATOM      2  O   UNL     1      12.586   8.848   7.339  0.00  0.00    -0.266 OA
ATOM      3  O   UNL     1      10.402   4.541   5.480  0.00  0.00    -0.270 OA
ATOM      6  N   UNL     1       9.170   6.364   4.684  0.00  0.00    -0.297 N 
ATOM      7  N   UNL     1      10.815   8.828   5.814  0.00  0.00    -0.310 N 
ATOM     10  C   UNL     1       8.472   7.996   6.427  0.00  0.00    +0.027 C 
ATOM     11  C   UNL     1       8.935   8.775   4.139  0.00  0.00    +0.054 C 
ATOM     12  C   UNL     1       8.002   8.951   5.335  0.00  0.00    +0.018 C 
ATOM     13  C   UNL     1       8.421   6.541   5.927  0.00  0.00    +0.113 C 
ATOM     14  C   UNL     1       9.882   8.406   6.868  0.00  0.00    +0.130 C 
ATOM     15  C   UNL     1       8.843   7.327   3.619  0.00  0.00    +0.117 C 
ATOM     16  C   UNL     1      10.371   9.092   4.515  0.00  0.00    +0.027 A 
ATOM     17  C   UNL     1      11.217   9.588   3.597  0.00  0.00    +0.024 A 
ATOM     18  C   UNL     1      12.153   9.049   6.203  0.00  0.00    +0.273 A 
ATOM     19  C   UNL     1      10.124   5.348   4.594  0.00  0.00    +0.247 C 
ATOM     20  C   UNL     1      13.070   9.575   5.145  0.00  0.00    +0.100 A 
ATOM     21  C   UNL     1      12.595   9.832   3.922  0.00  0.00    +0.030 A 
ENDROOT
BRANCH  20   8
ATOM      4  O   UNL     1      15.255   7.869   4.506  0.00  0.00    -0.252 OA
ATOM      8  N   UNL     1      14.377   9.784   5.476  0.00  0.00    -0.265 N 
ATOM      9  N   UNL     1      16.636   9.405   5.620  0.00  0.00    -0.269 N 
ATOM     25  C   UNL     1      15.420   8.911   5.137  0.00  0.00    +0.308 C 
ATOM     36  H   UNL     1      14.563  10.468   6.204  0.00  0.00    +0.157 HD
ATOM     37  H   UNL     1      16.600  10.289   6.123  0.00  0.00    +0.156 HD
BRANCH   9  29
ATOM      1 CL   UNL     1      22.001   6.994   5.088  0.00  0.00    -0.084 Cl
ATOM     29  C   UNL     1      17.921   8.829   5.492  0.00  0.00    +0.035 A 
ATOM     31  C   UNL     1      18.306   8.294   4.274  0.00  0.00    +0.025 A 
ATOM     32  C   UNL     1      18.768   8.809   6.588  0.00  0.00    +0.025 A 
ATOM     33  C   UNL     1      19.573   7.725   4.148  0.00  0.00    +0.022 A 
ATOM     34  C   UNL     1      20.035   8.240   6.463  0.00  0.00    +0.022 A 
ATOM     35  C   UNL     1      20.438   7.697   5.242  0.00  0.00    +0.041 A 
ENDBRANCH   9  29
ENDBRANCH  20   8
BRANCH  19  22
ATOM     22  C   UNL     1      10.888   5.230   3.349  0.00  0.00    +0.037 A 
ATOM     23  C   UNL     1      12.026   6.010   3.157  0.00  0.00    +0.016 A 
ATOM     24  C   UNL     1      10.472   4.339   2.362  0.00  0.00    +0.016 A 
ATOM     26  C   UNL     1      12.754   5.898   1.972  0.00  0.00    +0.046 A 
ATOM     27  C   UNL     1      11.199   4.227   1.176  0.00  0.00    +0.046 A 
ATOM     28  C   UNL     1      12.340   5.007   0.981  0.00  0.00    +0.120 A 
BRANCH  28   5
ATOM      5  O   UNL     1      13.050   4.897  -0.174  0.00  0.00    -0.495 OA
ATOM     30  C   UNL     1      13.367   3.578  -0.619  0.00  0.00    +0.277 C 
ENDBRANCH  28   5
ENDBRANCH  19  22
TORSDOF 4
ENDMDL
MODEL 7
REMARK VINA RESULT:      -7.1     28.172     30.946
REMARK  Name = 7142693
REMARK  5 active torsions:
REMARK  status: ('A' for Active; 'I' for Inactive)
REMARK    1  A    between atoms: O_5  and  C_28
REMARK    2  A    between atoms: O_5  and  C_30
REMARK    3  A    between atoms: N_8  and  C_20
REMARK    4  A    between atoms: N_9  and  C_29
REMARK    5  A    between atoms: C_19  and  C_22
REMARK                            x       y       z     vdW  Elec       q    Type
REMARK                         _______ _______ _______ _____ _____    ______ ____
ROOT
ATOM      2  O   UNL     1      -5.103 -11.332  16.604  0.00  0.00    -0.266 OA
ATOM      3  O   UNL     1      -1.865  -9.971  12.804  0.00  0.00    -0.270 OA
ATOM      6  N   UNL     1      -2.781 -12.051  12.247  0.00  0.00    -0.297 N 
ATOM      7  N   UNL     1      -4.823 -12.540  14.623  0.00  0.00    -0.310 N 
ATOM     10  C   UNL     1      -2.651 -13.766  14.045  0.00  0.00    +0.027 C 
ATOM     11  C   UNL     1      -4.534 -13.797  12.459  0.00  0.00    +0.054 C 
ATOM     12  C   UNL     1      -3.553 -14.683  13.226  0.00  0.00    +0.018 C 
ATOM     13  C   UNL     1      -1.882 -12.803  13.122  0.00  0.00    +0.113 C 
ATOM     14  C   UNL     1      -3.509 -13.019  15.073  0.00  0.00    +0.130 C 
ATOM     15  C   UNL     1      -3.756 -12.868  11.506  0.00  0.00    +0.117 C 
ATOM     16  C   UNL     1      -5.374 -12.965  13.410  0.00  0.00    +0.027 A 
ATOM     17  C   UNL     1      -6.624 -12.608  13.072  0.00  0.00    +0.024 A 
ATOM     18  C   UNL     1      -5.538 -11.717  15.518  0.00  0.00    +0.273 A 
ATOM     19  C   UNL     1      -2.677 -10.659  12.188  0.00  0.00    +0.247 C 
ATOM     20  C   UNL     1      -6.917 -11.319  15.092  0.00  0.00    +0.100 A 
ATOM     21  C   UNL     1      -7.408 -11.767  13.932  0.00  0.00    +0.030 A 
ENDROOT
BRANCH  20   8
ATOM      4  O   UNL     1      -9.301 -12.021  16.474  0.00  0.00    -0.252 OA
ATOM      8  N   UNL     1      -7.633 -10.508  15.922  0.00  0.00    -0.265 N 
ATOM      9  N   UNL     1      -9.299  -9.846  17.356  0.00  0.00    -0.269 N 
ATOM     25  C   UNL     1      -8.805 -10.901  16.582  0.00  0.00    +0.308 C 
ATOM     36  H   UNL     1      -7.447  -9.510  15.865  0.00  0.00    +0.157 HD
ATOM     37  H   UNL     1      -8.765  -8.980  17.338  0.00  0.00    +0.156 HD
BRANCH   9  29
ATOM      1 CL   UNL     1     -14.130  -9.789  20.753  0.00  0.00    -0.084 Cl
ATOM     29  C   UNL     1     -10.455  -9.832  18.170  0.00  0.00    +0.035 A 
ATOM     31  C   UNL     1     -10.366 -10.262  19.483  0.00  0.00    +0.025 A 
ATOM     32  C   UNL     1     -11.655  -9.388  17.637  0.00  0.00    +0.025 A 
ATOM     33  C   UNL     1     -11.507 -10.249  20.286  0.00  0.00    +0.022 A 
ATOM     34  C   UNL     1     -12.795  -9.375  18.439  0.00  0.00    +0.022 A 
ATOM     35  C   UNL     1     -12.722  -9.806  19.764  0.00  0.00    +0.041 A 
ENDBRANCH   9  29
ENDBRANCH  20   8
BRANCH  19  22
ATOM     22  C   UNL     1      -3.624  -9.935  11.336  0.00  0.00    +0.037 A 
ATOM     23  C   UNL     1      -4.896  -9.631  11.816  0.00  0.00    +0.016 A 
ATOM     24  C   UNL     1      -3.250  -9.554  10.049  0.00  0.00    +0.016 A 
ATOM     26  C   UNL     1      -5.798  -8.941  11.006  0.00  0.00    +0.046 A 
ATOM     27  C   UNL     1      -4.152  -8.865   9.239  0.00  0.00    +0.046 A 
ATOM     28  C   UNL     1      -5.426  -8.558   9.717  0.00  0.00    +0.120 A 
BRANCH  28   5
ATOM      5  O   UNL     1      -6.306  -7.884   8.927  0.00  0.00    -0.495 OA
ATOM     30  C   UNL     1      -7.690  -8.193   9.088  0.00  0.00    +0.277 C 
ENDBRANCH  28   5
ENDBRANCH  19  22
TORSDOF 4
ENDMDL
MODEL 8
REMARK VINA RESULT:      -7.0     28.952     30.823
REMARK  Name = 7142693
REMARK  5 active torsions:
REMARK  status: ('A' for Active; 'I' for Inactive)
REMARK    1  A    between atoms: O_5  and  C_28
REMARK    2  A    between atoms: O_5  and  C_30
REMARK    3  A    between atoms: N_8  and  C_20
REMARK    4  A    between atoms: N_9  and  C_29
REMARK    5  A    between atoms: C_19  and  C_22
REMARK                            x       y       z     vdW  Elec       q    Type
REMARK                         _______ _______ _______ _____ _____    ______ ____
ROOT
ATOM      2  O   UNL     1      -6.216 -13.705  14.163  0.00  0.00    -0.266 OA
ATOM      3  O   UNL     1      -9.516 -12.223  17.863  0.00  0.00    -0.270 OA
ATOM      6  N   UNL     1      -7.434 -11.267  18.342  0.00  0.00    -0.297 N 
ATOM      7  N   UNL     1      -5.690 -12.184  15.857  0.00  0.00    -0.310 N 
ATOM     10  C   UNL     1      -5.523 -12.860  18.321  0.00  0.00    +0.027 C 
ATOM     11  C   UNL     1      -5.166 -10.514  17.668  0.00  0.00    +0.054 C 
ATOM     12  C   UNL     1      -4.554 -11.688  18.430  0.00  0.00    +0.018 C 
ATOM     13  C   UNL     1      -6.887 -12.489  18.931  0.00  0.00    +0.113 C 
ATOM     14  C   UNL     1      -5.641 -13.268  16.848  0.00  0.00    +0.130 C 
ATOM     15  C   UNL     1      -6.510 -10.122  18.315  0.00  0.00    +0.117 C 
ATOM     16  C   UNL     1      -5.385 -10.865  16.209  0.00  0.00    +0.027 A 
ATOM     17  C   UNL     1      -5.322  -9.910  15.266  0.00  0.00    +0.024 A 
ATOM     18  C   UNL     1      -5.960 -12.556  14.524  0.00  0.00    +0.273 A 
ATOM     19  C   UNL     1      -8.739 -11.269  17.843  0.00  0.00    +0.247 C 
ATOM     20  C   UNL     1      -5.907 -11.458  13.508  0.00  0.00    +0.100 A 
ATOM     21  C   UNL     1      -5.591 -10.216  13.889  0.00  0.00    +0.030 A 
ENDROOT
BRANCH  20   8
ATOM      4  O   UNL     1      -4.078 -11.340  11.333  0.00  0.00    -0.252 OA
ATOM      8  N   UNL     1      -6.181 -11.774  12.210  0.00  0.00    -0.265 N 
ATOM      9  N   UNL     1      -5.831 -12.088   9.964  0.00  0.00    -0.269 N 
ATOM     25  C   UNL     1      -5.243 -11.700  11.171  0.00  0.00    +0.308 C 
ATOM     36  H   UNL     1      -7.161 -11.828  11.946  0.00  0.00    +0.157 HD
ATOM     37  H   UNL     1      -6.810 -12.362  10.001  0.00  0.00    +0.156 HD
BRANCH   9  29
ATOM      1 CL   UNL     1      -3.321 -12.361   4.624  0.00  0.00    -0.084 Cl
ATOM     29  C   UNL     1      -5.229 -12.153   8.685  0.00  0.00    +0.035 A 
ATOM     31  C   UNL     1      -5.419 -11.111   7.793  0.00  0.00    +0.025 A 
ATOM     32  C   UNL     1      -4.463 -13.258   8.351  0.00  0.00    +0.025 A 
ATOM     33  C   UNL     1      -4.826 -11.175   6.531  0.00  0.00    +0.022 A 
ATOM     34  C   UNL     1      -3.871 -13.323   7.090  0.00  0.00    +0.022 A 
ATOM     35  C   UNL     1      -4.052 -12.281   6.180  0.00  0.00    +0.041 A 
ENDBRANCH   9  29
ENDBRANCH  20   8
BRANCH  19  22
ATOM     22  C   UNL     1      -9.237 -10.041  17.218  0.00  0.00    +0.037 A 
ATOM     23  C   UNL     1      -8.953  -9.779  15.880  0.00  0.00    +0.016 A 
ATOM     24  C   UNL     1      -9.994  -9.141  17.965  0.00  0.00    +0.016 A 
ATOM     26  C   UNL     1      -9.428  -8.610  15.285  0.00  0.00    +0.046 A 
ATOM     27  C   UNL     1     -10.469  -7.971  17.370  0.00  0.00    +0.046 A 
ATOM     28  C   UNL     1     -10.185  -7.706  16.030  0.00  0.00    +0.120 A 
BRANCH  28   5
ATOM      5  O   UNL     1     -10.649  -6.566  15.449  0.00  0.00    -0.495 OA
ATOM     30  C   UNL     1     -11.986  -6.176  15.761  0.00  0.00    +0.277 C 
ENDBRANCH  28   5
ENDBRANCH  19  22
TORSDOF 4
ENDMDL
MODEL 9
REMARK VINA RESULT:      -7.0     28.898     30.933
REMARK  Name = 7142693
REMARK  5 active torsions:
REMARK  status: ('A' for Active; 'I' for Inactive)
REMARK    1  A    between atoms: O_5  and  C_28
REMARK    2  A    between atoms: O_5  and  C_30
REMARK    3  A    between atoms: N_8  and  C_20
REMARK    4  A    between atoms: N_9  and  C_29
REMARK    5  A    between atoms: C_19  and  C_22
REMARK                            x       y       z     vdW  Elec       q    Type
REMARK                         _______ _______ _______ _____ _____    ______ ____
ROOT
ATOM      2  O   UNL     1      -5.990 -12.891  15.126  0.00  0.00    -0.266 OA
ATOM      3  O   UNL     1     -10.980 -12.205  16.312  0.00  0.00    -0.270 OA
ATOM      6  N   UNL     1      -9.720 -11.700  18.218  0.00  0.00    -0.297 N 
ATOM      7  N   UNL     1      -6.748 -12.028  17.161  0.00  0.00    -0.310 N 
ATOM     10  C   UNL     1      -8.054 -13.433  18.859  0.00  0.00    +0.027 C 
ATOM     11  C   UNL     1      -7.594 -11.060  19.328  0.00  0.00    +0.054 C 
ATOM     12  C   UNL     1      -7.466 -12.475  19.890  0.00  0.00    +0.018 C 
ATOM     13  C   UNL     1      -9.534 -13.099  18.599  0.00  0.00    +0.113 C 
ATOM     14  C   UNL     1      -7.212 -13.358  17.580  0.00  0.00    +0.130 C 
ATOM     15  C   UNL     1      -9.082 -10.721  19.113  0.00  0.00    +0.117 C 
ATOM     16  C   UNL     1      -6.844 -10.925  18.016  0.00  0.00    +0.027 A 
ATOM     17  C   UNL     1      -6.310  -9.745  17.660  0.00  0.00    +0.024 A 
ATOM     18  C   UNL     1      -6.114 -11.944  15.905  0.00  0.00    +0.273 A 
ATOM     19  C   UNL     1     -10.444 -11.392  17.064  0.00  0.00    +0.247 C 
ATOM     20  C   UNL     1      -5.557 -10.605  15.534  0.00  0.00    +0.100 A 
ATOM     21  C   UNL     1      -5.655  -9.585  16.392  0.00  0.00    +0.030 A 
ENDROOT
BRANCH  20   8
ATOM      4  O   UNL     1      -6.874 -10.298  13.032  0.00  0.00    -0.252 OA
ATOM      8  N   UNL     1      -4.953 -10.479  14.318  0.00  0.00    -0.265 N 
ATOM      9  N   UNL     1      -4.746 -10.224  12.046  0.00  0.00    -0.269 N 
ATOM     25  C   UNL     1      -5.648 -10.329  13.110  0.00  0.00    +0.308 C 
ATOM     36  H   UNL     1      -3.975 -10.749  14.259  0.00  0.00    +0.157 HD
ATOM     37  H   UNL     1      -3.757 -10.265  12.282  0.00  0.00    +0.156 HD
BRANCH   9  29
ATOM      1 CL   UNL     1      -5.963  -9.550   6.306  0.00  0.00    -0.084 Cl
ATOM     29  C   UNL     1      -5.038 -10.063  10.672  0.00  0.00    +0.035 A 
ATOM     31  C   UNL     1      -4.686 -11.064   9.782  0.00  0.00    +0.025 A 
ATOM     32  C   UNL     1      -5.670  -8.907  10.243  0.00  0.00    +0.025 A 
ATOM     33  C   UNL     1      -4.973 -10.905   8.426  0.00  0.00    +0.022 A 
ATOM     34  C   UNL     1      -5.958  -8.748   8.888  0.00  0.00    +0.022 A 
ATOM     35  C   UNL     1      -5.608  -9.747   7.979  0.00  0.00    +0.041 A 
ENDBRANCH   9  29
ENDBRANCH  20   8
BRANCH  19  22
ATOM     22  C   UNL     1     -10.571  -9.981  16.688  0.00  0.00    +0.037 A 
ATOM     23  C   UNL     1      -9.565  -9.369  15.944  0.00  0.00    +0.016 A 
ATOM     24  C   UNL     1     -11.697  -9.259  17.076  0.00  0.00    +0.016 A 
ATOM     26  C   UNL     1      -9.686  -8.026  15.586  0.00  0.00    +0.046 A 
ATOM     27  C   UNL     1     -11.818  -7.915  16.717  0.00  0.00    +0.046 A 
ATOM     28  C   UNL     1     -10.812  -7.299  15.973  0.00  0.00    +0.120 A 
BRANCH  28   5
ATOM      5  O   UNL     1     -10.930  -5.990  15.622  0.00  0.00    -0.495 OA
ATOM     30  C   UNL     1     -11.953  -5.659  14.684  0.00  0.00    +0.277 C 
ENDBRANCH  28   5
ENDBRANCH  19  22
TORSDOF 4
ENDMDL
MODEL 10
REMARK VINA RESULT:      -6.9     28.827     32.044
REMARK  Name = 7142693
REMARK  5 active torsions:
REMARK  status: ('A' for Active; 'I' for Inactive)
REMARK    1  A    between atoms: O_5  and  C_28
REMARK    2  A    between atoms: O_5  and  C_30
REMARK    3  A    between atoms: N_8  and  C_20
REMARK    4  A    between atoms: N_9  and  C_29
REMARK    5  A    between atoms: C_19  and  C_22
REMARK                            x       y       z     vdW  Elec       q    Type
REMARK                         _______ _______ _______ _____ _____    ______ ____
ROOT
ATOM      2  O   UNL     1     -11.690 -10.056  15.518  0.00  0.00    -0.266 OA
ATOM      3  O   UNL     1     -14.874  -8.601  11.706  0.00  0.00    -0.270 OA
ATOM      6  N   UNL     1     -15.468  -7.402  13.626  0.00  0.00    -0.297 N 
ATOM      7  N   UNL     1     -13.274  -8.348  15.711  0.00  0.00    -0.310 N 
ATOM     10  C   UNL     1     -15.796  -8.789  15.665  0.00  0.00    +0.027 C 
ATOM     11  C   UNL     1     -14.959  -6.483  15.875  0.00  0.00    +0.054 C 
ATOM     12  C   UNL     1     -15.889  -7.519  16.505  0.00  0.00    +0.018 C 
ATOM     13  C   UNL     1     -16.225  -8.506  14.214  0.00  0.00    +0.113 C 
ATOM     14  C   UNL     1     -14.365  -9.332  15.749  0.00  0.00    +0.130 C 
ATOM     15  C   UNL     1     -15.424  -6.175  14.439  0.00  0.00    +0.117 C 
ATOM     16  C   UNL     1     -13.525  -6.980  15.853  0.00  0.00    +0.027 A 
ATOM     17  C   UNL     1     -12.506  -6.109  15.932  0.00  0.00    +0.024 A 
ATOM     18  C   UNL     1     -11.962  -8.859  15.626  0.00  0.00    +0.273 A 
ATOM     19  C   UNL     1     -14.841  -7.579  12.390  0.00  0.00    +0.247 C 
ATOM     20  C   UNL     1     -10.856  -7.853  15.690  0.00  0.00    +0.100 A 
ATOM     21  C   UNL     1     -11.145  -6.558  15.847  0.00  0.00    +0.030 A 
ENDROOT
BRANCH  20   8
ATOM      4  O   UNL     1      -9.377  -9.155  17.741  0.00  0.00    -0.252 OA
ATOM      8  N   UNL     1      -9.573  -8.306  15.592  0.00  0.00    -0.265 N 
ATOM      9  N   UNL     1      -7.595  -9.287  16.220  0.00  0.00    -0.269 N 
ATOM     25  C   UNL     1      -8.886  -8.944  16.634  0.00  0.00    +0.308 C 
ATOM     36  H   UNL     1      -9.016  -7.950  14.820  0.00  0.00    +0.157 HD
ATOM     37  H   UNL     1      -7.344  -9.042  15.264  0.00  0.00    +0.156 HD
BRANCH   9  29
ATOM      1 CL   UNL     1      -3.384 -12.009  19.339  0.00  0.00    -0.084 Cl
ATOM     29  C   UNL     1      -6.587  -9.939  16.967  0.00  0.00    +0.035 A 
ATOM     31  C   UNL     1      -6.915 -10.536  18.173  0.00  0.00    +0.025 A 
ATOM     32  C   UNL     1      -5.291  -9.969  16.477  0.00  0.00    +0.025 A 
ATOM     33  C   UNL     1      -5.921 -11.179  18.910  0.00  0.00    +0.022 A 
ATOM     34  C   UNL     1      -4.297 -10.611  17.214  0.00  0.00    +0.022 A 
ATOM     35  C   UNL     1      -4.611 -11.216  18.431  0.00  0.00    +0.041 A 
ENDBRANCH   9  29
ENDBRANCH  20   8
BRANCH  19  22
ATOM     22  C   UNL     1     -14.053  -6.466  11.853  0.00  0.00    +0.037 A 
ATOM     23  C   UNL     1     -12.719  -6.319  12.226  0.00  0.00    +0.016 A 
ATOM     24  C   UNL     1     -14.641  -5.561  10.973  0.00  0.00    +0.016 A 
ATOM     26  C   UNL     1     -11.968  -5.260  11.715  0.00  0.00    +0.046 A 
ATOM     27  C   UNL     1     -13.890  -4.501  10.462  0.00  0.00    +0.046 A 
ATOM     28  C   UNL     1     -12.554  -4.351  10.833  0.00  0.00    +0.120 A 
BRANCH  28   5
ATOM      5  O   UNL     1     -11.820  -3.319  10.334  0.00  0.00    -0.495 OA
ATOM     30  C   UNL     1     -11.039  -3.582   9.169  0.00  0.00    +0.277 C 
ENDBRANCH  28   5
ENDBRANCH  19  22
TORSDOF 4
ENDMDL
