MODEL 1
REMARK VINA RESULT:      -7.6      0.000      0.000
REMARK  Name = 28990599
REMARK  3 active torsions:
REMARK  status: ('A' for Active; 'I' for Inactive)
REMARK    1  A    between atoms: N_3  and  C_13
REMARK    2  A    between atoms: C_13  and  C_18
REMARK    3  A    between atoms: C_16  and  C_19
REMARK                            x       y       z     vdW  Elec       q    Type
REMARK                         _______ _______ _______ _____ _____    ______ ____
ROOT
ATOM      2  O   UNL     1      -6.257 -11.615  10.997  0.00  0.00    -0.267 OA
ATOM      3  N   UNL     1      -3.192 -11.191  14.945  0.00  0.00    -0.296 NA
ATOM      4  N   UNL     1      -4.123 -11.688  11.934  0.00  0.00    -0.311 N 
ATOM      6  C   UNL     1      -3.464 -13.376  13.746  0.00  0.00    +0.024 C 
ATOM      7  C   UNL     1      -1.815 -11.756  12.937  0.00  0.00    +0.050 C 
ATOM      8  C   UNL     1      -2.068 -13.246  13.152  0.00  0.00    +0.017 C 
ATOM      9  C   UNL     1      -3.542 -12.609  15.083  0.00  0.00    +0.090 C 
ATOM     10  C   UNL     1      -1.884 -11.021  14.296  0.00  0.00    +0.094 C 
ATOM     11  C   UNL     1      -4.488 -12.876  12.719  0.00  0.00    +0.130 C 
ATOM     12  C   UNL     1      -2.825 -11.172  11.967  0.00  0.00    +0.026 A 
ATOM     14  C   UNL     1      -2.483 -10.156  11.159  0.00  0.00    +0.022 A 
ATOM     15  C   UNL     1      -5.112 -11.165  11.077  0.00  0.00    +0.260 A 
ATOM     16  C   UNL     1      -4.709 -10.004  10.209  0.00  0.00    +0.053 A 
ATOM     17  C   UNL     1      -3.444  -9.563  10.273  0.00  0.00    +0.016 A 
ENDROOT
BRANCH  16  19
ATOM      1  S   UNL     1      -5.813  -9.884   7.695  0.00  0.00    -0.088 S 
ATOM     19  C   UNL     1      -5.676  -9.351   9.309  0.00  0.00    +0.026 A 
ATOM     21  C   UNL     1      -6.537  -8.317   9.587  0.00  0.00    +0.024 A 
ATOM     22  C   UNL     1      -7.338  -7.939   8.456  0.00  0.00    -0.010 A 
ATOM     23  C   UNL     1      -7.040  -8.725   7.339  0.00  0.00    +0.020 A 
ATOM     27  C   UNL     1      -8.330  -6.937   8.324  0.00  0.00    +0.009 A 
ATOM     28  C   UNL     1      -7.701  -8.539   6.109  0.00  0.00    +0.015 A 
ATOM     29  C   UNL     1      -8.987  -6.749   7.106  0.00  0.00    +0.001 A 
ATOM     30  C   UNL     1      -8.675  -7.542   6.011  0.00  0.00    +0.001 A 
ENDBRANCH  16  19
BRANCH   3  13
ATOM     13  C   UNL     1      -3.227 -10.513  16.238  0.00  0.00    +0.139 C 
BRANCH  13  18
ATOM      5  N   UNL     1      -5.501  -9.712  15.908  0.00  0.00    -0.259 NA
ATOM     18  C   UNL     1      -4.635 -10.334  16.740  0.00  0.00    +0.055 A 
ATOM     20  C   UNL     1      -4.970 -10.804  17.999  0.00  0.00    +0.024 A 
ATOM     24  C   UNL     1      -6.280 -10.624  18.434  0.00  0.00    +0.003 A 
ATOM     25  C   UNL     1      -6.764  -9.555  16.365  0.00  0.00    +0.111 A 
ATOM     26  C   UNL     1      -7.199  -9.989  17.607  0.00  0.00    +0.020 A 
ENDBRANCH  13  18
ENDBRANCH   3  13
TORSDOF 3
ENDMDL
MODEL 2
REMARK VINA RESULT:      -7.1      4.272      7.395
REMARK  Name = 28990599
REMARK  3 active torsions:
REMARK  status: ('A' for Active; 'I' for Inactive)
REMARK    1  A    between atoms: N_3  and  C_13
REMARK    2  A    between atoms: C_13  and  C_18
REMARK    3  A    between atoms: C_16  and  C_19
REMARK                            x       y       z     vdW  Elec       q    Type
REMARK                         _______ _______ _______ _____ _____    ______ ____
ROOT
ATOM      2  O   UNL     1      -6.724 -10.496  14.234  0.00  0.00    -0.267 OA
ATOM      3  N   UNL     1      -2.538 -13.098  13.306  0.00  0.00    -0.296 NA
ATOM      4  N   UNL     1      -4.400 -10.684  14.247  0.00  0.00    -0.311 N 
ATOM      6  C   UNL     1      -3.021 -10.951  12.103  0.00  0.00    +0.024 C 
ATOM      7  C   UNL     1      -1.891 -10.887  14.274  0.00  0.00    +0.050 C 
ATOM      8  C   UNL     1      -1.930 -10.240  12.892  0.00  0.00    +0.017 C 
ATOM      9  C   UNL     1      -2.700 -12.457  11.995  0.00  0.00    +0.090 C 
ATOM     10  C   UNL     1      -1.550 -12.388  14.132  0.00  0.00    +0.094 C 
ATOM     11  C   UNL     1      -4.373 -10.684  12.777  0.00  0.00    +0.130 C 
ATOM     12  C   UNL     1      -3.217 -10.709  14.990  0.00  0.00    +0.026 A 
ATOM     14  C   UNL     1      -3.259 -10.596  16.327  0.00  0.00    +0.022 A 
ATOM     15  C   UNL     1      -5.663 -10.555  14.858  0.00  0.00    +0.260 A 
ATOM     16  C   UNL     1      -5.680 -10.465  16.361  0.00  0.00    +0.053 A 
ATOM     17  C   UNL     1      -4.511 -10.479  17.018  0.00  0.00    +0.016 A 
ENDROOT
BRANCH  16  19
ATOM      1  S   UNL     1      -7.206 -11.386  18.451  0.00  0.00    -0.088 S 
ATOM     19  C   UNL     1      -6.948 -10.372  17.106  0.00  0.00    +0.026 A 
ATOM     21  C   UNL     1      -8.020  -9.546  16.868  0.00  0.00    +0.024 A 
ATOM     22  C   UNL     1      -9.090  -9.736  17.806  0.00  0.00    -0.010 A 
ATOM     23  C   UNL     1      -8.774 -10.728  18.741  0.00  0.00    +0.020 A 
ATOM     27  C   UNL     1     -10.349  -9.096  17.910  0.00  0.00    +0.009 A 
ATOM     28  C   UNL     1      -9.672 -11.090  19.763  0.00  0.00    +0.015 A 
ATOM     29  C   UNL     1     -11.243  -9.453  18.923  0.00  0.00    +0.001 A 
ATOM     30  C   UNL     1     -10.906 -10.440  19.839  0.00  0.00    +0.001 A 
ENDBRANCH  16  19
BRANCH   3  13
ATOM     13  C   UNL     1      -2.183 -14.507  13.161  0.00  0.00    +0.139 C 
BRANCH  13  18
ATOM      5  N   UNL     1      -3.804 -15.011  14.904  0.00  0.00    -0.259 NA
ATOM     18  C   UNL     1      -2.607 -15.318  14.357  0.00  0.00    +0.055 A 
ATOM     20  C   UNL     1      -1.772 -16.318  14.828  0.00  0.00    +0.024 A 
ATOM     24  C   UNL     1      -2.192 -17.050  15.933  0.00  0.00    +0.003 A 
ATOM     25  C   UNL     1      -4.179 -15.743  15.977  0.00  0.00    +0.111 A 
ATOM     26  C   UNL     1      -3.417 -16.763  16.524  0.00  0.00    +0.020 A 
ENDBRANCH  13  18
ENDBRANCH   3  13
TORSDOF 3
ENDMDL
MODEL 3
REMARK VINA RESULT:      -7.0     20.030     22.380
REMARK  Name = 28990599
REMARK  3 active torsions:
REMARK  status: ('A' for Active; 'I' for Inactive)
REMARK    1  A    between atoms: N_3  and  C_13
REMARK    2  A    between atoms: C_13  and  C_18
REMARK    3  A    between atoms: C_16  and  C_19
REMARK                            x       y       z     vdW  Elec       q    Type
REMARK                         _______ _______ _______ _____ _____    ______ ____
ROOT
ATOM      2  O   UNL     1     -14.905   8.960  20.547  0.00  0.00    -0.267 OA
ATOM      3  N   UNL     1     -11.691   9.285  16.711  0.00  0.00    -0.296 NA
ATOM      4  N   UNL     1     -12.731   9.136  19.723  0.00  0.00    -0.311 N 
ATOM      6  C   UNL     1     -11.925  11.155  18.365  0.00  0.00    +0.024 C 
ATOM      7  C   UNL     1     -10.380   9.314  18.839  0.00  0.00    +0.050 C 
ATOM      8  C   UNL     1     -10.562  10.825  18.960  0.00  0.00    +0.017 C 
ATOM      9  C   UNL     1     -11.976  10.714  16.887  0.00  0.00    +0.090 C 
ATOM     10  C   UNL     1     -10.419   8.909  17.347  0.00  0.00    +0.094 C 
ATOM     11  C   UNL     1     -13.012  10.488  19.217  0.00  0.00    +0.130 C 
ATOM     12  C   UNL     1     -11.454   8.578  19.617  0.00  0.00    +0.026 A 
ATOM     14  C   UNL     1     -11.190   7.389  20.184  0.00  0.00    +0.022 A 
ATOM     15  C   UNL     1     -13.777   8.484  20.405  0.00  0.00    +0.260 A 
ATOM     16  C   UNL     1     -13.459   7.138  21.000  0.00  0.00    +0.053 A 
ATOM     17  C   UNL     1     -12.212   6.660  20.879  0.00  0.00    +0.016 A 
ENDROOT
BRANCH  16  19
ATOM      1  S   UNL     1     -15.821   5.745  20.816  0.00  0.00    -0.088 S 
ATOM     19  C   UNL     1     -14.491   6.348  21.695  0.00  0.00    +0.026 A 
ATOM     21  C   UNL     1     -14.551   6.003  23.024  0.00  0.00    +0.024 A 
ATOM     22  C   UNL     1     -15.713   5.222  23.346  0.00  0.00    -0.010 A 
ATOM     23  C   UNL     1     -16.505   5.004  22.214  0.00  0.00    +0.020 A 
ATOM     27  C   UNL     1     -16.142   4.674  24.579  0.00  0.00    +0.009 A 
ATOM     28  C   UNL     1     -17.700   4.261  22.283  0.00  0.00    +0.015 A 
ATOM     29  C   UNL     1     -17.327   3.936  24.651  0.00  0.00    +0.001 A 
ATOM     30  C   UNL     1     -18.096   3.733  23.514  0.00  0.00    +0.001 A 
ENDBRANCH  16  19
BRANCH   3  13
ATOM     13  C   UNL     1     -11.696   8.919  15.297  0.00  0.00    +0.139 C 
BRANCH  13  18
ATOM      5  N   UNL     1     -13.003   7.665  13.672  0.00  0.00    -0.259 NA
ATOM     18  C   UNL     1     -12.972   8.223  14.903  0.00  0.00    +0.055 A 
ATOM     20  C   UNL     1     -14.028   8.186  15.799  0.00  0.00    +0.024 A 
ATOM     24  C   UNL     1     -15.193   7.534  15.406  0.00  0.00    +0.003 A 
ATOM     25  C   UNL     1     -14.152   7.041  13.325  0.00  0.00    +0.111 A 
ATOM     26  C   UNL     1     -15.263   6.949  14.147  0.00  0.00    +0.020 A 
ENDBRANCH  13  18
ENDBRANCH   3  13
TORSDOF 3
ENDMDL
MODEL 4
REMARK VINA RESULT:      -6.8      3.410      6.283
REMARK  Name = 28990599
REMARK  3 active torsions:
REMARK  status: ('A' for Active; 'I' for Inactive)
REMARK    1  A    between atoms: N_3  and  C_13
REMARK    2  A    between atoms: C_13  and  C_18
REMARK    3  A    between atoms: C_16  and  C_19
REMARK                            x       y       z     vdW  Elec       q    Type
REMARK                         _______ _______ _______ _____ _____    ______ ____
ROOT
ATOM      2  O   UNL     1      -7.413 -12.298  14.364  0.00  0.00    -0.267 OA
ATOM      3  N   UNL     1      -9.683 -10.947  18.627  0.00  0.00    -0.296 NA
ATOM      4  N   UNL     1      -7.386 -11.992  16.675  0.00  0.00    -0.311 N 
ATOM      6  C   UNL     1      -8.912 -13.305  18.262  0.00  0.00    +0.024 C 
ATOM      7  C   UNL     1      -7.348 -11.653  19.169  0.00  0.00    +0.050 C 
ATOM      8  C   UNL     1      -7.784 -13.112  19.268  0.00  0.00    +0.017 C 
ATOM      9  C   UNL     1     -10.084 -12.359  18.596  0.00  0.00    +0.090 C 
ATOM     10  C   UNL     1      -8.539 -10.734  19.526  0.00  0.00    +0.094 C 
ATOM     11  C   UNL     1      -8.358 -13.082  16.849  0.00  0.00    +0.130 C 
ATOM     12  C   UNL     1      -6.832 -11.337  17.778  0.00  0.00    +0.026 A 
ATOM     14  C   UNL     1      -5.865 -10.423  17.602  0.00  0.00    +0.022 A 
ATOM     15  C   UNL     1      -6.971 -11.717  15.357  0.00  0.00    +0.260 A 
ATOM     16  C   UNL     1      -5.909 -10.663  15.190  0.00  0.00    +0.053 A 
ATOM     17  C   UNL     1      -5.405 -10.080  16.286  0.00  0.00    +0.016 A 
ENDROOT
BRANCH  16  19
ATOM      1  S   UNL     1      -3.869 -10.715  13.350  0.00  0.00    -0.088 S 
ATOM     19  C   UNL     1      -5.434 -10.264  13.853  0.00  0.00    +0.026 A 
ATOM     21  C   UNL     1      -6.098  -9.541  12.891  0.00  0.00    +0.024 A 
ATOM     22  C   UNL     1      -5.316  -9.343  11.703  0.00  0.00    -0.010 A 
ATOM     23  C   UNL     1      -4.057  -9.941  11.820  0.00  0.00    +0.020 A 
ATOM     27  C   UNL     1      -5.625  -8.664  10.500  0.00  0.00    +0.009 A 
ATOM     28  C   UNL     1      -3.112  -9.879  10.777  0.00  0.00    +0.015 A 
ATOM     29  C   UNL     1      -4.690  -8.600   9.463  0.00  0.00    +0.001 A 
ATOM     30  C   UNL     1      -3.447  -9.202   9.602  0.00  0.00    +0.001 A 
ENDBRANCH  16  19
BRANCH   3  13
ATOM     13  C   UNL     1     -10.806 -10.090  18.998  0.00  0.00    +0.139 C 
BRANCH  13  18
ATOM      5  N   UNL     1     -10.104  -8.270  17.545  0.00  0.00    -0.259 NA
ATOM     18  C   UNL     1     -11.117  -9.079  17.927  0.00  0.00    +0.055 A 
ATOM     20  C   UNL     1     -12.395  -9.026  17.395  0.00  0.00    +0.024 A 
ATOM     24  C   UNL     1     -12.651  -8.082  16.406  0.00  0.00    +0.003 A 
ATOM     25  C   UNL     1     -10.390  -7.364  16.582  0.00  0.00    +0.111 A 
ATOM     26  C   UNL     1     -11.634  -7.231  15.987  0.00  0.00    +0.020 A 
ENDBRANCH  13  18
ENDBRANCH   3  13
TORSDOF 3
ENDMDL
MODEL 5
REMARK VINA RESULT:      -6.8     23.696     25.606
REMARK  Name = 28990599
REMARK  3 active torsions:
REMARK  status: ('A' for Active; 'I' for Inactive)
REMARK    1  A    between atoms: N_3  and  C_13
REMARK    2  A    between atoms: C_13  and  C_18
REMARK    3  A    between atoms: C_16  and  C_19
REMARK                            x       y       z     vdW  Elec       q    Type
REMARK                         _______ _______ _______ _____ _____    ______ ____
ROOT
ATOM      2  O   UNL     1       9.862   7.386   1.957  0.00  0.00    -0.267 OA
ATOM      3  N   UNL     1      10.767   8.510   6.760  0.00  0.00    -0.296 NA
ATOM      4  N   UNL     1       9.537   7.001   4.234  0.00  0.00    -0.311 N 
ATOM      6  C   UNL     1       8.465   8.731   5.791  0.00  0.00    +0.024 C 
ATOM      7  C   UNL     1       9.191   6.572   6.690  0.00  0.00    +0.050 C 
ATOM      8  C   UNL     1       7.996   7.515   6.578  0.00  0.00    +0.017 C 
ATOM      9  C   UNL     1       9.637   9.416   6.526  0.00  0.00    +0.090 C 
ATOM     10  C   UNL     1      10.338   7.282   7.446  0.00  0.00    +0.094 C 
ATOM     11  C   UNL     1       8.840   8.288   4.371  0.00  0.00    +0.130 C 
ATOM     12  C   UNL     1       9.657   6.126   5.317  0.00  0.00    +0.026 A 
ATOM     14  C   UNL     1      10.197   4.909   5.143  0.00  0.00    +0.022 A 
ATOM     15  C   UNL     1       9.981   6.654   2.942  0.00  0.00    +0.260 A 
ATOM     16  C   UNL     1      10.614   5.297   2.786  0.00  0.00    +0.053 A 
ATOM     17  C   UNL     1      10.687   4.496   3.859  0.00  0.00    +0.016 A 
ENDROOT
BRANCH  16  19
ATOM      1  S   UNL     1      12.829   4.960   1.196  0.00  0.00    -0.088 S 
ATOM     19  C   UNL     1      11.154   4.851   1.490  0.00  0.00    +0.026 A 
ATOM     21  C   UNL     1      10.474   4.331   0.415  0.00  0.00    +0.024 A 
ATOM     22  C   UNL     1      11.336   4.006  -0.687  0.00  0.00    -0.010 A 
ATOM     23  C   UNL     1      12.670   4.304  -0.390  0.00  0.00    +0.020 A 
ATOM     27  C   UNL     1      11.039   3.458  -1.958  0.00  0.00    +0.009 A 
ATOM     28  C   UNL     1      13.701   4.071  -1.321  0.00  0.00    +0.015 A 
ATOM     29  C   UNL     1      12.060   3.225  -2.884  0.00  0.00    +0.001 A 
ATOM     30  C   UNL     1      13.376   3.529  -2.567  0.00  0.00    +0.001 A 
ENDBRANCH  16  19
BRANCH   3  13
ATOM     13  C   UNL     1      11.831   9.179   7.503  0.00  0.00    +0.139 C 
BRANCH  13  18
ATOM      5  N   UNL     1      13.857  10.019   6.450  0.00  0.00    -0.259 NA
ATOM     18  C   UNL     1      13.185   8.933   6.891  0.00  0.00    +0.055 A 
ATOM     20  C   UNL     1      13.666   7.636   6.810  0.00  0.00    +0.024 A 
ATOM     24  C   UNL     1      14.919   7.441   6.240  0.00  0.00    +0.003 A 
ATOM     25  C   UNL     1      15.072   9.791   5.901  0.00  0.00    +0.111 A 
ATOM     26  C   UNL     1      15.642   8.534   5.774  0.00  0.00    +0.020 A 
ENDBRANCH  13  18
ENDBRANCH   3  13
TORSDOF 3
ENDMDL
MODEL 6
REMARK VINA RESULT:      -6.7      2.875      7.564
REMARK  Name = 28990599
REMARK  3 active torsions:
REMARK  status: ('A' for Active; 'I' for Inactive)
REMARK    1  A    between atoms: N_3  and  C_13
REMARK    2  A    between atoms: C_13  and  C_18
REMARK    3  A    between atoms: C_16  and  C_19
REMARK                            x       y       z     vdW  Elec       q    Type
REMARK                         _______ _______ _______ _____ _____    ______ ____
ROOT
ATOM      2  O   UNL     1      -4.923  -9.945  17.010  0.00  0.00    -0.267 OA
ATOM      3  N   UNL     1      -2.944 -10.632  12.453  0.00  0.00    -0.296 NA
ATOM      4  N   UNL     1      -4.022 -11.338  15.372  0.00  0.00    -0.311 N 
ATOM      6  C   UNL     1      -1.614 -11.102  14.526  0.00  0.00    +0.024 C 
ATOM      7  C   UNL     1      -3.060 -12.848  13.602  0.00  0.00    +0.050 C 
ATOM      8  C   UNL     1      -1.712 -12.600  14.273  0.00  0.00    +0.017 C 
ATOM      9  C   UNL     1      -1.711 -10.333  13.191  0.00  0.00    +0.090 C 
ATOM     10  C   UNL     1      -3.118 -12.080  12.261  0.00  0.00    +0.094 C 
ATOM     11  C   UNL     1      -2.708 -10.695  15.521  0.00  0.00    +0.130 C 
ATOM     12  C   UNL     1      -4.200 -12.421  14.508  0.00  0.00    +0.026 A 
ATOM     14  C   UNL     1      -5.378 -13.065  14.469  0.00  0.00    +0.022 A 
ATOM     15  C   UNL     1      -5.053 -10.875  16.213  0.00  0.00    +0.260 A 
ATOM     16  C   UNL     1      -6.372 -11.595  16.122  0.00  0.00    +0.053 A 
ATOM     17  C   UNL     1      -6.479 -12.638  15.285  0.00  0.00    +0.016 A 
ENDROOT
BRANCH  16  19
ATOM      1  S   UNL     1      -8.652 -10.066  16.256  0.00  0.00    -0.088 S 
ATOM     19  C   UNL     1      -7.533 -11.166  16.922  0.00  0.00    +0.026 A 
ATOM     21  C   UNL     1      -7.872 -11.537  18.202  0.00  0.00    +0.024 A 
ATOM     22  C   UNL     1      -9.080 -10.913  18.662  0.00  0.00    -0.010 A 
ATOM     23  C   UNL     1      -9.619 -10.070  17.684  0.00  0.00    +0.020 A 
ATOM     27  C   UNL     1      -9.761 -11.025  19.898  0.00  0.00    +0.009 A 
ATOM     28  C   UNL     1     -10.807  -9.347  17.908  0.00  0.00    +0.015 A 
ATOM     29  C   UNL     1     -10.940 -10.309  20.123  0.00  0.00    +0.001 A 
ATOM     30  C   UNL     1     -11.456  -9.479  19.137  0.00  0.00    +0.001 A 
ENDBRANCH  16  19
BRANCH   3  13
ATOM     13  C   UNL     1      -2.974  -9.928  11.174  0.00  0.00    +0.139 C 
BRANCH  13  18
ATOM      5  N   UNL     1      -5.279  -9.473  11.808  0.00  0.00    -0.259 NA
ATOM     18  C   UNL     1      -4.366  -9.483  10.811  0.00  0.00    +0.055 A 
ATOM     20  C   UNL     1      -4.639  -9.112   9.504  0.00  0.00    +0.024 A 
ATOM     24  C   UNL     1      -5.934  -8.704   9.201  0.00  0.00    +0.003 A 
ATOM     25  C   UNL     1      -6.526  -9.071  11.475  0.00  0.00    +0.111 A 
ATOM     26  C   UNL     1      -6.901  -8.681  10.200  0.00  0.00    +0.020 A 
ENDBRANCH  13  18
ENDBRANCH   3  13
TORSDOF 3
ENDMDL
MODEL 7
REMARK VINA RESULT:      -6.5     20.828     23.767
REMARK  Name = 28990599
REMARK  3 active torsions:
REMARK  status: ('A' for Active; 'I' for Inactive)
REMARK    1  A    between atoms: N_3  and  C_13
REMARK    2  A    between atoms: C_13  and  C_18
REMARK    3  A    between atoms: C_16  and  C_19
REMARK                            x       y       z     vdW  Elec       q    Type
REMARK                         _______ _______ _______ _____ _____    ______ ____
ROOT
ATOM      2  O   UNL     1       8.663 -12.333  32.092  0.00  0.00    -0.267 OA
ATOM      3  N   UNL     1       7.143  -8.534  34.992  0.00  0.00    -0.296 NA
ATOM      4  N   UNL     1       8.409 -10.049  32.486  0.00  0.00    -0.311 N 
ATOM      6  C   UNL     1       9.567  -8.842  34.428  0.00  0.00    +0.024 C 
ATOM      7  C   UNL     1       8.126  -7.582  32.900  0.00  0.00    +0.050 C 
ATOM      8  C   UNL     1       9.526  -7.631  33.505  0.00  0.00    +0.017 C 
ATOM      9  C   UNL     1       8.498  -8.701  35.531  0.00  0.00    +0.090 C 
ATOM     10  C   UNL     1       7.082  -7.423  34.029  0.00  0.00    +0.094 C 
ATOM     11  C   UNL     1       9.382 -10.112  33.586  0.00  0.00    +0.130 C 
ATOM     12  C   UNL     1       7.845  -8.834  32.090  0.00  0.00    +0.026 A 
ATOM     14  C   UNL     1       7.046  -8.782  31.012  0.00  0.00    +0.022 A 
ATOM     15  C   UNL     1       8.158 -11.250  31.792  0.00  0.00    +0.260 A 
ATOM     16  C   UNL     1       7.231 -11.166  30.609  0.00  0.00    +0.053 A 
ATOM     17  C   UNL     1       6.732  -9.969  30.268  0.00  0.00    +0.016 A 
ENDROOT
BRANCH  16  19
ATOM      1  S   UNL     1       7.890 -12.913  28.593  0.00  0.00    -0.088 S 
ATOM     19  C   UNL     1       6.864 -12.368  29.840  0.00  0.00    +0.026 A 
ATOM     21  C   UNL     1       5.754 -13.166  29.981  0.00  0.00    +0.024 A 
ATOM     22  C   UNL     1       5.730 -14.258  29.049  0.00  0.00    -0.010 A 
ATOM     23  C   UNL     1       6.855 -14.240  28.219  0.00  0.00    +0.020 A 
ATOM     27  C   UNL     1       4.779 -15.292  28.866  0.00  0.00    +0.009 A 
ATOM     28  C   UNL     1       7.051 -15.216  27.222  0.00  0.00    +0.015 A 
ATOM     29  C   UNL     1       4.971 -16.261  27.878  0.00  0.00    +0.001 A 
ATOM     30  C   UNL     1       6.095 -16.222  27.066  0.00  0.00    +0.001 A 
ENDBRANCH  16  19
BRANCH   3  13
ATOM     13  C   UNL     1       6.170  -8.351  36.064  0.00  0.00    +0.139 C 
BRANCH  13  18
ATOM      5  N   UNL     1       3.908  -9.001  36.682  0.00  0.00    -0.259 NA
ATOM     18  C   UNL     1       4.984  -9.266  35.908  0.00  0.00    +0.055 A 
ATOM     20  C   UNL     1       5.049 -10.309  34.999  0.00  0.00    +0.024 A 
ATOM     24  C   UNL     1       3.937 -11.136  34.877  0.00  0.00    +0.003 A 
ATOM     25  C   UNL     1       2.846  -9.826  36.535  0.00  0.00    +0.111 A 
ATOM     26  C   UNL     1       2.811 -10.896  35.656  0.00  0.00    +0.020 A 
ENDBRANCH  13  18
ENDBRANCH   3  13
TORSDOF 3
ENDMDL
MODEL 8
REMARK VINA RESULT:      -6.5      4.172      6.936
REMARK  Name = 28990599
REMARK  3 active torsions:
REMARK  status: ('A' for Active; 'I' for Inactive)
REMARK    1  A    between atoms: N_3  and  C_13
REMARK    2  A    between atoms: C_13  and  C_18
REMARK    3  A    between atoms: C_16  and  C_19
REMARK                            x       y       z     vdW  Elec       q    Type
REMARK                         _______ _______ _______ _____ _____    ______ ____
ROOT
ATOM      2  O   UNL     1      -7.814  -8.950  17.624  0.00  0.00    -0.267 OA
ATOM      3  N   UNL     1      -3.969 -11.417  15.553  0.00  0.00    -0.296 NA
ATOM      4  N   UNL     1      -6.726 -10.941  17.088  0.00  0.00    -0.311 N 
ATOM      6  C   UNL     1      -4.415 -11.549  18.017  0.00  0.00    +0.024 C 
ATOM      7  C   UNL     1      -5.561 -13.094  16.501  0.00  0.00    +0.050 C 
ATOM      8  C   UNL     1      -4.898 -12.986  17.872  0.00  0.00    +0.017 C 
ATOM      9  C   UNL     1      -3.410 -11.214  16.895  0.00  0.00    +0.090 C 
ATOM     10  C   UNL     1      -4.524 -12.770  15.401  0.00  0.00    +0.094 C 
ATOM     11  C   UNL     1      -5.633 -10.615  18.016  0.00  0.00    +0.130 C 
ATOM     12  C   UNL     1      -6.750 -12.158  16.402  0.00  0.00    +0.026 A 
ATOM     14  C   UNL     1      -7.811 -12.484  15.646  0.00  0.00    +0.022 A 
ATOM     15  C   UNL     1      -7.786 -10.017  17.008  0.00  0.00    +0.260 A 
ATOM     16  C   UNL     1      -8.946 -10.395  16.126  0.00  0.00    +0.053 A 
ATOM     17  C   UNL     1      -8.920 -11.583  15.504  0.00  0.00    +0.016 A 
ENDROOT
BRANCH  16  19
ATOM      1  S   UNL     1     -11.541  -9.768  16.779  0.00  0.00    -0.088 S 
ATOM     19  C   UNL     1     -10.088  -9.483  15.934  0.00  0.00    +0.026 A 
ATOM     21  C   UNL     1     -10.167  -8.372  15.129  0.00  0.00    +0.024 A 
ATOM     22  C   UNL     1     -11.447  -7.725  15.196  0.00  0.00    -0.010 A 
ATOM     23  C   UNL     1     -12.307  -8.393  16.074  0.00  0.00    +0.020 A 
ATOM     27  C   UNL     1     -11.931  -6.570  14.535  0.00  0.00    +0.009 A 
ATOM     28  C   UNL     1     -13.621  -7.942  16.304  0.00  0.00    +0.015 A 
ATOM     29  C   UNL     1     -13.234  -6.120  14.761  0.00  0.00    +0.001 A 
ATOM     30  C   UNL     1     -14.069  -6.800  15.636  0.00  0.00    +0.001 A 
ENDBRANCH  16  19
BRANCH   3  13
ATOM     13  C   UNL     1      -2.973 -11.141  14.522  0.00  0.00    +0.139 C 
BRANCH  13  18
ATOM      5  N   UNL     1      -4.901 -10.224  13.355  0.00  0.00    -0.259 NA
ATOM     18  C   UNL     1      -3.599 -10.577  13.274  0.00  0.00    +0.055 A 
ATOM     20  C   UNL     1      -2.829 -10.449  12.129  0.00  0.00    +0.024 A 
ATOM     24  C   UNL     1      -3.436  -9.923  10.993  0.00  0.00    +0.003 A 
ATOM     25  C   UNL     1      -5.456  -9.718  12.230  0.00  0.00    +0.111 A 
ATOM     26  C   UNL     1      -4.774  -9.549  11.036  0.00  0.00    +0.020 A 
ENDBRANCH  13  18
ENDBRANCH   3  13
TORSDOF 3
ENDMDL
MODEL 9
REMARK VINA RESULT:      -6.4     25.269     27.618
REMARK  Name = 28990599
REMARK  3 active torsions:
REMARK  status: ('A' for Active; 'I' for Inactive)
REMARK    1  A    between atoms: N_3  and  C_13
REMARK    2  A    between atoms: C_13  and  C_18
REMARK    3  A    between atoms: C_16  and  C_19
REMARK                            x       y       z     vdW  Elec       q    Type
REMARK                         _______ _______ _______ _____ _____    ______ ____
ROOT
ATOM      2  O   UNL     1      13.261   7.522   7.280  0.00  0.00    -0.267 OA
ATOM      3  N   UNL     1      10.406   5.516   3.676  0.00  0.00    -0.296 NA
ATOM      4  N   UNL     1      11.305   7.497   6.011  0.00  0.00    -0.311 N 
ATOM      6  C   UNL     1       9.645   5.545   6.065  0.00  0.00    +0.024 C 
ATOM      7  C   UNL     1       9.197   7.482   4.635  0.00  0.00    +0.050 C 
ATOM      8  C   UNL     1       8.607   6.612   5.742  0.00  0.00    +0.017 C 
ATOM      9  C   UNL     1       9.945   4.703   4.808  0.00  0.00    +0.090 C 
ATOM     10  C   UNL     1       9.469   6.612   3.386  0.00  0.00    +0.094 C 
ATOM     11  C   UNL     1      10.897   6.228   6.631  0.00  0.00    +0.130 C 
ATOM     12  C   UNL     1      10.473   8.155   5.102  0.00  0.00    +0.026 A 
ATOM     14  C   UNL     1      10.814   9.367   4.633  0.00  0.00    +0.022 A 
ATOM     15  C   UNL     1      12.519   8.058   6.455  0.00  0.00    +0.260 A 
ATOM     16  C   UNL     1      12.890   9.401   5.885  0.00  0.00    +0.053 A 
ATOM     17  C   UNL     1      12.044   9.991   5.028  0.00  0.00    +0.016 A 
ENDROOT
BRANCH  16  19
ATOM      1  S   UNL     1      14.132  11.453   7.226  0.00  0.00    -0.088 S 
ATOM     19  C   UNL     1      14.159  10.059   6.246  0.00  0.00    +0.026 A 
ATOM     21  C   UNL     1      15.438   9.700   5.893  0.00  0.00    +0.024 A 
ATOM     22  C   UNL     1      16.434  10.582   6.432  0.00  0.00    -0.010 A 
ATOM     23  C   UNL     1      15.850  11.600   7.192  0.00  0.00    +0.020 A 
ATOM     27  C   UNL     1      17.844  10.564   6.307  0.00  0.00    +0.009 A 
ATOM     28  C   UNL     1      16.630  12.589   7.824  0.00  0.00    +0.015 A 
ATOM     29  C   UNL     1      18.622  11.543   6.932  0.00  0.00    +0.001 A 
ATOM     30  C   UNL     1      18.019  12.544   7.682  0.00  0.00    +0.001 A 
ENDBRANCH  16  19
BRANCH   3  13
ATOM     13  C   UNL     1      10.629   4.691   2.492  0.00  0.00    +0.139 C 
BRANCH  13  18
ATOM      5  N   UNL     1      12.812   5.735   2.239  0.00  0.00    -0.259 NA
ATOM     18  C   UNL     1      12.090   4.596   2.141  0.00  0.00    +0.055 A 
ATOM     20  C   UNL     1      12.614   3.376   1.746  0.00  0.00    +0.024 A 
ATOM     24  C   UNL     1      13.967   3.320   1.430  0.00  0.00    +0.003 A 
ATOM     25  C   UNL     1      14.124   5.642   1.923  0.00  0.00    +0.111 A 
ATOM     26  C   UNL     1      14.743   4.471   1.517  0.00  0.00    +0.020 A 
ENDBRANCH  13  18
ENDBRANCH   3  13
TORSDOF 3
ENDMDL
MODEL 10
REMARK VINA RESULT:      -6.4     23.705     26.333
REMARK  Name = 28990599
REMARK  3 active torsions:
REMARK  status: ('A' for Active; 'I' for Inactive)
REMARK    1  A    between atoms: N_3  and  C_13
REMARK    2  A    between atoms: C_13  and  C_18
REMARK    3  A    between atoms: C_16  and  C_19
REMARK                            x       y       z     vdW  Elec       q    Type
REMARK                         _______ _______ _______ _____ _____    ______ ____
ROOT
ATOM      2  O   UNL     1      11.792   7.340   1.230  0.00  0.00    -0.267 OA
ATOM      3  N   UNL     1      11.241   4.001  -2.472  0.00  0.00    -0.296 NA
ATOM      4  N   UNL     1      12.464   5.403   0.120  0.00  0.00    -0.311 N 
ATOM      6  C   UNL     1      13.304   5.416  -2.302  0.00  0.00    +0.024 C 
ATOM      7  C   UNL     1      13.188   3.304  -1.068  0.00  0.00    +0.050 C 
ATOM      8  C   UNL     1      14.122   4.207  -1.869  0.00  0.00    +0.017 C 
ATOM      9  C   UNL     1      12.107   4.963  -3.164  0.00  0.00    +0.090 C 
ATOM     10  C   UNL     1      12.011   2.855  -1.964  0.00  0.00    +0.094 C 
ATOM     11  C   UNL     1      12.870   6.193  -1.052  0.00  0.00    +0.130 C 
ATOM     12  C   UNL     1      12.672   4.022   0.165  0.00  0.00    +0.026 A 
ATOM     14  C   UNL     1      12.398   3.336   1.287  0.00  0.00    +0.022 A 
ATOM     15  C   UNL     1      11.957   6.118   1.222  0.00  0.00    +0.260 A 
ATOM     16  C   UNL     1      11.626   5.317   2.453  0.00  0.00    +0.053 A 
ATOM     17  C   UNL     1      11.861   3.997   2.442  0.00  0.00    +0.016 A 
ENDROOT
BRANCH  16  19
ATOM      1  S   UNL     1      12.045   6.890   4.667  0.00  0.00    -0.088 S 
ATOM     19  C   UNL     1      11.047   5.957   3.648  0.00  0.00    +0.026 A 
ATOM     21  C   UNL     1       9.748   5.915   4.094  0.00  0.00    +0.024 A 
ATOM     22  C   UNL     1       9.549   6.663   5.303  0.00  0.00    -0.010 A 
ATOM     23  C   UNL     1      10.740   7.257   5.733  0.00  0.00    +0.020 A 
ATOM     27  C   UNL     1       8.380   6.871   6.076  0.00  0.00    +0.009 A 
ATOM     28  C   UNL     1      10.792   8.043   6.901  0.00  0.00    +0.015 A 
ATOM     29  C   UNL     1       8.429   7.651   7.235  0.00  0.00    +0.001 A 
ATOM     30  C   UNL     1       9.623   8.229   7.642  0.00  0.00    +0.001 A 
ENDBRANCH  16  19
BRANCH   3  13
ATOM     13  C   UNL     1      10.153   3.557  -3.338  0.00  0.00    +0.139 C 
BRANCH  13  18
ATOM      5  N   UNL     1       8.809   5.385  -2.459  0.00  0.00    -0.259 NA
ATOM     18  C   UNL     1       9.121   4.635  -3.540  0.00  0.00    +0.055 A 
ATOM     20  C   UNL     1       8.555   4.805  -4.793  0.00  0.00    +0.024 A 
ATOM     24  C   UNL     1       7.607   5.811  -4.947  0.00  0.00    +0.003 A 
ATOM     25  C   UNL     1       7.882   6.352  -2.648  0.00  0.00    +0.111 A 
ATOM     26  C   UNL     1       7.258   6.602  -3.859  0.00  0.00    +0.020 A 
ENDBRANCH  13  18
ENDBRANCH   3  13
TORSDOF 3
ENDMDL
