MODEL 1
REMARK VINA RESULT:      -8.0      0.000      0.000
REMARK  Name = 45783728
REMARK  6 active torsions:
REMARK  status: ('A' for Active; 'I' for Inactive)
REMARK    1  A    between atoms: O_2  and  C_26
REMARK    2  A    between atoms: N_4  and  C_14
REMARK    3  A    between atoms: C_10  and  C_15
REMARK    4  A    between atoms: C_14  and  C_16
REMARK    5  A    between atoms: C_19  and  C_23
REMARK    6  A    between atoms: C_22  and  C_26
REMARK                            x       y       z     vdW  Elec       q    Type
REMARK                         _______ _______ _______ _____ _____    ______ ____
ROOT
ATOM      4  N   UNL     1      12.592   8.731  18.471  0.00  0.00    -0.287 NA
ATOM     10  C   UNL     1      13.464   7.633  18.005  0.00  0.00    +0.146 C 
ATOM     11  C   UNL     1      14.077   8.151  16.691  0.00  0.00    +0.030 C 
ATOM     12  C   UNL     1      13.446   9.518  16.470  0.00  0.00    +0.017 C 
ATOM     13  C   UNL     1      12.163   9.455  17.273  0.00  0.00    +0.085 C 
ENDROOT
BRANCH  10  15
ATOM      1  O   UNL     1      14.071   6.572  20.121  0.00  0.00    -0.336 OA
ATOM      5  N   UNL     1      15.801   7.473  19.020  0.00  0.00    -0.190 NA
ATOM      6  N   UNL     1      15.203   6.330  20.910  0.00  0.00    -0.056 NA
ATOM     15  C   UNL     1      14.512   7.248  19.028  0.00  0.00    +0.245 A 
ATOM     19  C   UNL     1      16.183   6.891  20.194  0.00  0.00    +0.207 A 
BRANCH  19  23
ATOM      7  N   UNL     1      19.821   6.104  20.451  0.00  0.00    -0.220 NA
ATOM      8  N   UNL     1      18.183   5.257  18.969  0.00  0.00    -0.342 N 
ATOM      9  N   UNL     1      19.231   7.736  22.123  0.00  0.00    -0.243 NA
ATOM     23  C   UNL     1      17.551   6.887  20.623  0.00  0.00    +0.080 A 
ATOM     24  C   UNL     1      18.533   6.107  20.047  0.00  0.00    +0.130 A 
ATOM     25  C   UNL     1      17.962   7.690  21.667  0.00  0.00    +0.127 A 
ATOM     27  C   UNL     1      20.096   6.929  21.479  0.00  0.00    +0.223 A 
ATOM     28  H   UNL     1      18.935   4.710  18.566  0.00  0.00    +0.144 HD
ATOM     29  H   UNL     1      17.254   4.856  18.944  0.00  0.00    +0.144 HD
ENDBRANCH  19  23
ENDBRANCH  10  15
BRANCH   4  14
ATOM     14  C   UNL     1      11.462   8.270  19.267  0.00  0.00    +0.120 C 
BRANCH  14  16
ATOM     16  C   UNL     1      11.334   9.037  20.556  0.00  0.00    -0.033 A 
ATOM     17  C   UNL     1      10.702   8.454  21.654  0.00  0.00    +0.006 A 
ATOM     18  C   UNL     1      11.847  10.331  20.652  0.00  0.00    +0.006 A 
ATOM     20  C   UNL     1      10.584   9.164  22.849  0.00  0.00    +0.015 A 
ATOM     21  C   UNL     1      11.728  11.041  21.846  0.00  0.00    +0.015 A 
ATOM     22  C   UNL     1      11.096  10.459  22.945  0.00  0.00    +0.059 A 
BRANCH  22  26
ATOM      3  O   UNL     1      10.269  12.200  24.362  0.00  0.00    -0.245 OA
ATOM     26  C   UNL     1      10.973  11.199  24.190  0.00  0.00    +0.337 C 
BRANCH  26   2
ATOM      2  O   UNL     1      11.733  10.670  25.188  0.00  0.00    -0.477 OA
ATOM     30  H   UNL     1      11.640  11.173  26.024  0.00  0.00    +0.295 HD
ENDBRANCH  26   2
ENDBRANCH  22  26
ENDBRANCH  14  16
ENDBRANCH   4  14
TORSDOF 6
ENDMDL
MODEL 2
REMARK VINA RESULT:      -7.6      3.739      8.072
REMARK  Name = 45783728
REMARK  6 active torsions:
REMARK  status: ('A' for Active; 'I' for Inactive)
REMARK    1  A    between atoms: O_2  and  C_26
REMARK    2  A    between atoms: N_4  and  C_14
REMARK    3  A    between atoms: C_10  and  C_15
REMARK    4  A    between atoms: C_14  and  C_16
REMARK    5  A    between atoms: C_19  and  C_23
REMARK    6  A    between atoms: C_22  and  C_26
REMARK                            x       y       z     vdW  Elec       q    Type
REMARK                         _______ _______ _______ _____ _____    ______ ____
ROOT
ATOM      4  N   UNL     1      12.827   7.909  20.653  0.00  0.00    -0.287 NA
ATOM     10  C   UNL     1      11.552   8.652  20.591  0.00  0.00    +0.146 C 
ATOM     11  C   UNL     1      10.524   7.721  21.260  0.00  0.00    +0.030 C 
ATOM     12  C   UNL     1      11.300   6.459  21.610  0.00  0.00    +0.017 C 
ATOM     13  C   UNL     1      12.478   6.488  20.658  0.00  0.00    +0.085 C 
ENDROOT
BRANCH  10  15
ATOM      1  O   UNL     1      12.449  10.923  20.672  0.00  0.00    -0.336 OA
ATOM      5  N   UNL     1      11.031  10.440  22.337  0.00  0.00    -0.190 NA
ATOM      6  N   UNL     1      12.362  12.080  21.458  0.00  0.00    -0.056 NA
ATOM     15  C   UNL     1      11.634  10.008  21.259  0.00  0.00    +0.245 A 
ATOM     19  C   UNL     1      11.507  11.716  22.419  0.00  0.00    +0.207 A 
BRANCH  19  23
ATOM      7  N   UNL     1      10.702  13.079  25.798  0.00  0.00    -0.220 NA
ATOM      8  N   UNL     1      11.455  10.927  25.166  0.00  0.00    -0.342 N 
ATOM      9  N   UNL     1      10.342  14.786  24.135  0.00  0.00    -0.243 NA
ATOM     23  C   UNL     1      11.110  12.603  23.474  0.00  0.00    +0.080 A 
ATOM     24  C   UNL     1      11.076  12.244  24.806  0.00  0.00    +0.130 A 
ATOM     25  C   UNL     1      10.728  13.900  23.194  0.00  0.00    +0.127 A 
ATOM     27  C   UNL     1      10.352  14.316  25.397  0.00  0.00    +0.223 A 
ATOM     28  H   UNL     1      11.428  10.707  26.155  0.00  0.00    +0.144 HD
ATOM     29  H   UNL     1      11.272  10.171  24.519  0.00  0.00    +0.144 HD
ENDBRANCH  19  23
ENDBRANCH  10  15
BRANCH   4  14
ATOM     14  C   UNL     1      13.741   8.245  19.569  0.00  0.00    +0.120 C 
BRANCH  14  16
ATOM     16  C   UNL     1      15.114   7.669  19.794  0.00  0.00    -0.033 A 
ATOM     17  C   UNL     1      15.599   6.672  18.949  0.00  0.00    +0.006 A 
ATOM     18  C   UNL     1      15.901   8.134  20.849  0.00  0.00    +0.006 A 
ATOM     20  C   UNL     1      16.871   6.139  19.156  0.00  0.00    +0.015 A 
ATOM     21  C   UNL     1      17.173   7.600  21.057  0.00  0.00    +0.015 A 
ATOM     22  C   UNL     1      17.657   6.602  20.212  0.00  0.00    +0.059 A 
BRANCH  22  26
ATOM      3  O   UNL     1      19.828   6.493  21.213  0.00  0.00    -0.245 OA
ATOM     26  C   UNL     1      18.984   6.046  20.428  0.00  0.00    +0.337 C 
BRANCH  26   2
ATOM      2  O   UNL     1      19.221   4.948  19.659  0.00  0.00    -0.477 OA
ATOM     30  H   UNL     1      19.040   5.121  18.711  0.00  0.00    +0.295 HD
ENDBRANCH  26   2
ENDBRANCH  22  26
ENDBRANCH  14  16
ENDBRANCH   4  14
TORSDOF 6
ENDMDL
MODEL 3
REMARK VINA RESULT:      -7.1      3.680      7.445
REMARK  Name = 45783728
REMARK  6 active torsions:
REMARK  status: ('A' for Active; 'I' for Inactive)
REMARK    1  A    between atoms: O_2  and  C_26
REMARK    2  A    between atoms: N_4  and  C_14
REMARK    3  A    between atoms: C_10  and  C_15
REMARK    4  A    between atoms: C_14  and  C_16
REMARK    5  A    between atoms: C_19  and  C_23
REMARK    6  A    between atoms: C_22  and  C_26
REMARK                            x       y       z     vdW  Elec       q    Type
REMARK                         _______ _______ _______ _____ _____    ______ ____
ROOT
ATOM      4  N   UNL     1      12.875   8.005  20.698  0.00  0.00    -0.287 NA
ATOM     10  C   UNL     1      11.703   8.900  20.764  0.00  0.00    +0.146 C 
ATOM     11  C   UNL     1      10.573   8.024  21.336  0.00  0.00    +0.030 C 
ATOM     12  C   UNL     1      11.188   6.642  21.503  0.00  0.00    +0.017 C 
ATOM     13  C   UNL     1      12.351   6.648  20.532  0.00  0.00    +0.085 C 
ENDROOT
BRANCH  10  15
ATOM      1  O   UNL     1      11.758  11.333  20.983  0.00  0.00    -0.336 OA
ATOM      5  N   UNL     1      12.359  10.234  22.840  0.00  0.00    -0.190 NA
ATOM      6  N   UNL     1      12.058  12.314  21.937  0.00  0.00    -0.056 NA
ATOM     15  C   UNL     1      11.961  10.138  21.597  0.00  0.00    +0.245 A 
ATOM     19  C   UNL     1      12.404  11.588  23.005  0.00  0.00    +0.207 A 
BRANCH  19  23
ATOM      7  N   UNL     1      14.311  12.394  26.109  0.00  0.00    -0.220 NA
ATOM      8  N   UNL     1      14.783  10.830  24.397  0.00  0.00    -0.342 N 
ATOM      9  N   UNL     1      12.334  13.768  26.000  0.00  0.00    -0.243 NA
ATOM     23  C   UNL     1      12.798  12.183  24.248  0.00  0.00    +0.080 A 
ATOM     24  C   UNL     1      13.941  11.834  24.938  0.00  0.00    +0.130 A 
ATOM     25  C   UNL     1      12.025  13.166  24.832  0.00  0.00    +0.127 A 
ATOM     27  C   UNL     1      13.474  13.339  26.575  0.00  0.00    +0.223 A 
ATOM     28  H   UNL     1      15.618  10.611  24.928  0.00  0.00    +0.144 HD
ATOM     29  H   UNL     1      14.368  10.082  23.858  0.00  0.00    +0.144 HD
ENDBRANCH  19  23
ENDBRANCH  10  15
BRANCH   4  14
ATOM     14  C   UNL     1      13.813   8.363  19.642  0.00  0.00    +0.120 C 
BRANCH  14  16
ATOM     16  C   UNL     1      15.169   7.748  19.864  0.00  0.00    -0.033 A 
ATOM     17  C   UNL     1      15.977   8.198  20.908  0.00  0.00    +0.006 A 
ATOM     18  C   UNL     1      15.619   6.728  19.024  0.00  0.00    +0.006 A 
ATOM     20  C   UNL     1      17.234   7.628  21.114  0.00  0.00    +0.015 A 
ATOM     21  C   UNL     1      16.875   6.159  19.230  0.00  0.00    +0.015 A 
ATOM     22  C   UNL     1      17.683   6.609  20.274  0.00  0.00    +0.059 A 
BRANCH  22  26
ATOM      3  O   UNL     1      19.807   6.365  21.349  0.00  0.00    -0.245 OA
ATOM     26  C   UNL     1      18.993   6.014  20.489  0.00  0.00    +0.337 C 
BRANCH  26   2
ATOM      2  O   UNL     1      19.250   4.995  19.622  0.00  0.00    -0.477 OA
ATOM     30  H   UNL     1      18.571   4.935  18.918  0.00  0.00    +0.295 HD
ENDBRANCH  26   2
ENDBRANCH  22  26
ENDBRANCH  14  16
ENDBRANCH   4  14
TORSDOF 6
ENDMDL
MODEL 4
REMARK VINA RESULT:      -7.1      3.678      7.454
REMARK  Name = 45783728
REMARK  6 active torsions:
REMARK  status: ('A' for Active; 'I' for Inactive)
REMARK    1  A    between atoms: O_2  and  C_26
REMARK    2  A    between atoms: N_4  and  C_14
REMARK    3  A    between atoms: C_10  and  C_15
REMARK    4  A    between atoms: C_14  and  C_16
REMARK    5  A    between atoms: C_19  and  C_23
REMARK    6  A    between atoms: C_22  and  C_26
REMARK                            x       y       z     vdW  Elec       q    Type
REMARK                         _______ _______ _______ _____ _____    ______ ____
ROOT
ATOM      4  N   UNL     1      14.692   7.924  19.900  0.00  0.00    -0.287 NA
ATOM     10  C   UNL     1      14.129   7.377  21.151  0.00  0.00    +0.146 C 
ATOM     11  C   UNL     1      15.340   7.213  22.087  0.00  0.00    +0.030 C 
ATOM     12  C   UNL     1      16.544   7.636  21.256  0.00  0.00    +0.017 C 
ATOM     13  C   UNL     1      16.075   7.452  19.827  0.00  0.00    +0.085 C 
ENDROOT
BRANCH  10  15
ATOM      1  O   UNL     1      11.916   7.636  22.155  0.00  0.00    -0.336 OA
ATOM      5  N   UNL     1      13.042   9.558  21.913  0.00  0.00    -0.190 NA
ATOM      6  N   UNL     1      11.080   8.644  22.653  0.00  0.00    -0.056 NA
ATOM     15  C   UNL     1      13.050   8.260  21.740  0.00  0.00    +0.245 A 
ATOM     19  C   UNL     1      11.813   9.747  22.476  0.00  0.00    +0.207 A 
BRANCH  19  23
ATOM      7  N   UNL     1      10.640  12.651  24.504  0.00  0.00    -0.220 NA
ATOM      8  N   UNL     1      11.263  10.473  25.185  0.00  0.00    -0.342 N 
ATOM      9  N   UNL     1      10.710  13.271  22.176  0.00  0.00    -0.243 NA
ATOM     23  C   UNL     1      11.349  11.051  22.851  0.00  0.00    +0.080 A 
ATOM     24  C   UNL     1      11.077  11.424  24.152  0.00  0.00    +0.130 A 
ATOM     25  C   UNL     1      11.145  12.025  21.895  0.00  0.00    +0.127 A 
ATOM     27  C   UNL     1      10.480  13.512  23.481  0.00  0.00    +0.223 A 
ATOM     28  H   UNL     1      11.063  10.789  26.127  0.00  0.00    +0.144 HD
ATOM     29  H   UNL     1      11.107   9.494  24.984  0.00  0.00    +0.144 HD
ENDBRANCH  19  23
ENDBRANCH  10  15
BRANCH   4  14
ATOM     14  C   UNL     1      13.925   7.559  18.717  0.00  0.00    +0.120 C 
BRANCH  14  16
ATOM     16  C   UNL     1      13.932   8.655  17.684  0.00  0.00    -0.033 A 
ATOM     17  C   UNL     1      14.065   8.338  16.332  0.00  0.00    +0.006 A 
ATOM     18  C   UNL     1      13.806   9.988  18.079  0.00  0.00    +0.006 A 
ATOM     20  C   UNL     1      14.071   9.352  15.375  0.00  0.00    +0.015 A 
ATOM     21  C   UNL     1      13.814  11.002  17.121  0.00  0.00    +0.015 A 
ATOM     22  C   UNL     1      13.947  10.685  15.770  0.00  0.00    +0.059 A 
BRANCH  22  26
ATOM      3  O   UNL     1      14.230  11.598  13.576  0.00  0.00    -0.245 OA
ATOM     26  C   UNL     1      13.953  11.743  14.772  0.00  0.00    +0.337 C 
BRANCH  26   2
ATOM      2  O   UNL     1      13.614  12.954  15.295  0.00  0.00    -0.477 OA
ATOM     30  H   UNL     1      13.085  12.861  16.115  0.00  0.00    +0.295 HD
ENDBRANCH  26   2
ENDBRANCH  22  26
ENDBRANCH  14  16
ENDBRANCH   4  14
TORSDOF 6
ENDMDL
MODEL 5
REMARK VINA RESULT:      -7.0      3.051      5.530
REMARK  Name = 45783728
REMARK  6 active torsions:
REMARK  status: ('A' for Active; 'I' for Inactive)
REMARK    1  A    between atoms: O_2  and  C_26
REMARK    2  A    between atoms: N_4  and  C_14
REMARK    3  A    between atoms: C_10  and  C_15
REMARK    4  A    between atoms: C_14  and  C_16
REMARK    5  A    between atoms: C_19  and  C_23
REMARK    6  A    between atoms: C_22  and  C_26
REMARK                            x       y       z     vdW  Elec       q    Type
REMARK                         _______ _______ _______ _____ _____    ______ ____
ROOT
ATOM      4  N   UNL     1      12.910   7.807  19.075  0.00  0.00    -0.287 NA
ATOM     10  C   UNL     1      13.978   8.822  18.961  0.00  0.00    +0.146 C 
ATOM     11  C   UNL     1      15.224   8.148  19.564  0.00  0.00    +0.030 C 
ATOM     12  C   UNL     1      14.746   6.784  20.042  0.00  0.00    +0.017 C 
ATOM     13  C   UNL     1      13.254   6.972  20.226  0.00  0.00    +0.085 C 
ENDROOT
BRANCH  10  15
ATOM      1  O   UNL     1      13.812   8.422  16.556  0.00  0.00    -0.336 OA
ATOM      5  N   UNL     1      14.704  10.405  17.094  0.00  0.00    -0.190 NA
ATOM      6  N   UNL     1      14.107   9.059  15.344  0.00  0.00    -0.056 NA
ATOM     15  C   UNL     1      14.194   9.283  17.535  0.00  0.00    +0.245 A 
ATOM     19  C   UNL     1      14.630  10.222  15.744  0.00  0.00    +0.207 A 
BRANCH  19  23
ATOM      7  N   UNL     1      14.672  12.959  13.208  0.00  0.00    -0.220 NA
ATOM      8  N   UNL     1      12.842  11.851  14.220  0.00  0.00    -0.342 N 
ATOM      9  N   UNL     1      16.934  12.359  13.781  0.00  0.00    -0.243 NA
ATOM     23  C   UNL     1      15.086  11.221  14.822  0.00  0.00    +0.080 A 
ATOM     24  C   UNL     1      14.242  12.019  14.076  0.00  0.00    +0.130 A 
ATOM     25  C   UNL     1      16.435  11.437  14.632  0.00  0.00    +0.127 A 
ATOM     27  C   UNL     1      16.010  13.073  13.112  0.00  0.00    +0.223 A 
ATOM     28  H   UNL     1      12.258  12.464  13.664  0.00  0.00    +0.144 HD
ATOM     29  H   UNL     1      12.479  10.931  14.431  0.00  0.00    +0.144 HD
ENDBRANCH  19  23
ENDBRANCH  10  15
BRANCH   4  14
ATOM     14  C   UNL     1      11.578   8.385  19.194  0.00  0.00    +0.120 C 
BRANCH  14  16
ATOM     16  C   UNL     1      11.404   9.130  20.491  0.00  0.00    -0.033 A 
ATOM     17  C   UNL     1      10.724   8.534  21.552  0.00  0.00    +0.006 A 
ATOM     18  C   UNL     1      11.924  10.418  20.631  0.00  0.00    +0.006 A 
ATOM     20  C   UNL     1      10.563   9.224  22.754  0.00  0.00    +0.015 A 
ATOM     21  C   UNL     1      11.763  11.108  21.832  0.00  0.00    +0.015 A 
ATOM     22  C   UNL     1      11.082  10.512  22.893  0.00  0.00    +0.059 A 
BRANCH  22  26
ATOM      3  O   UNL     1      11.586  11.055  25.168  0.00  0.00    -0.245 OA
ATOM     26  C   UNL     1      10.915  11.231  24.146  0.00  0.00    +0.337 C 
BRANCH  26   2
ATOM      2  O   UNL     1       9.913  12.152  24.088  0.00  0.00    -0.477 OA
ATOM     30  H   UNL     1       9.029  11.733  24.136  0.00  0.00    +0.295 HD
ENDBRANCH  26   2
ENDBRANCH  22  26
ENDBRANCH  14  16
ENDBRANCH   4  14
TORSDOF 6
ENDMDL
MODEL 6
REMARK VINA RESULT:      -7.0      3.651      6.813
REMARK  Name = 45783728
REMARK  6 active torsions:
REMARK  status: ('A' for Active; 'I' for Inactive)
REMARK    1  A    between atoms: O_2  and  C_26
REMARK    2  A    between atoms: N_4  and  C_14
REMARK    3  A    between atoms: C_10  and  C_15
REMARK    4  A    between atoms: C_14  and  C_16
REMARK    5  A    between atoms: C_19  and  C_23
REMARK    6  A    between atoms: C_22  and  C_26
REMARK                            x       y       z     vdW  Elec       q    Type
REMARK                         _______ _______ _______ _____ _____    ______ ____
ROOT
ATOM      4  N   UNL     1      13.342   7.896  19.876  0.00  0.00    -0.287 NA
ATOM     10  C   UNL     1      12.378   7.895  18.756  0.00  0.00    +0.146 C 
ATOM     11  C   UNL     1      11.082   8.471  19.356  0.00  0.00    +0.030 C 
ATOM     12  C   UNL     1      11.396   8.708  20.826  0.00  0.00    +0.017 C 
ATOM     13  C   UNL     1      12.553   7.770  21.101  0.00  0.00    +0.085 C 
ENDROOT
BRANCH  10  15
ATOM      1  O   UNL     1      12.320   8.372  16.360  0.00  0.00    -0.336 OA
ATOM      5  N   UNL     1      13.766   9.639  17.510  0.00  0.00    -0.190 NA
ATOM      6  N   UNL     1      12.926   9.220  15.424  0.00  0.00    -0.056 NA
ATOM     15  C   UNL     1      12.871   8.685  17.562  0.00  0.00    +0.245 A 
ATOM     19  C   UNL     1      13.765   9.937  16.178  0.00  0.00    +0.207 A 
BRANCH  19  23
ATOM      7  N   UNL     1      15.393  13.231  15.533  0.00  0.00    -0.220 NA
ATOM      8  N   UNL     1      13.688  12.652  17.068  0.00  0.00    -0.342 N 
ATOM      9  N   UNL     1      16.346  11.564  14.077  0.00  0.00    -0.243 NA
ATOM     23  C   UNL     1      14.613  10.956  15.633  0.00  0.00    +0.080 A 
ATOM     24  C   UNL     1      14.594  12.273  16.047  0.00  0.00    +0.130 A 
ATOM     25  C   UNL     1      15.519  10.656  14.636  0.00  0.00    +0.127 A 
ATOM     27  C   UNL     1      16.232  12.814  14.566  0.00  0.00    +0.223 A 
ATOM     28  H   UNL     1      13.713  13.625  17.351  0.00  0.00    +0.144 HD
ATOM     29  H   UNL     1      12.800  12.173  17.137  0.00  0.00    +0.144 HD
ENDBRANCH  19  23
ENDBRANCH  10  15
BRANCH   4  14
ATOM     14  C   UNL     1      14.353   6.853  19.764  0.00  0.00    +0.120 C 
BRANCH  14  16
ATOM     16  C   UNL     1      15.677   7.292  20.331  0.00  0.00    -0.033 A 
ATOM     17  C   UNL     1      15.972   8.651  20.441  0.00  0.00    +0.006 A 
ATOM     18  C   UNL     1      16.609   6.340  20.745  0.00  0.00    +0.006 A 
ATOM     20  C   UNL     1      17.199   9.058  20.966  0.00  0.00    +0.015 A 
ATOM     21  C   UNL     1      17.836   6.747  21.269  0.00  0.00    +0.015 A 
ATOM     22  C   UNL     1      18.131   8.106  21.379  0.00  0.00    +0.059 A 
BRANCH  22  26
ATOM      3  O   UNL     1      20.365   8.956  21.270  0.00  0.00    -0.245 OA
ATOM     26  C   UNL     1      19.410   8.530  21.927  0.00  0.00    +0.337 C 
BRANCH  26   2
ATOM      2  O   UNL     1      19.461   8.410  23.283  0.00  0.00    -0.477 OA
ATOM     30  H   UNL     1      19.620   9.273  23.719  0.00  0.00    +0.295 HD
ENDBRANCH  26   2
ENDBRANCH  22  26
ENDBRANCH  14  16
ENDBRANCH   4  14
TORSDOF 6
ENDMDL
MODEL 7
REMARK VINA RESULT:      -7.0     30.751     32.400
REMARK  Name = 45783728
REMARK  6 active torsions:
REMARK  status: ('A' for Active; 'I' for Inactive)
REMARK    1  A    between atoms: O_2  and  C_26
REMARK    2  A    between atoms: N_4  and  C_14
REMARK    3  A    between atoms: C_10  and  C_15
REMARK    4  A    between atoms: C_14  and  C_16
REMARK    5  A    between atoms: C_19  and  C_23
REMARK    6  A    between atoms: C_22  and  C_26
REMARK                            x       y       z     vdW  Elec       q    Type
REMARK                         _______ _______ _______ _____ _____    ______ ____
ROOT
ATOM      4  N   UNL     1     -14.452   5.481  33.216  0.00  0.00    -0.287 NA
ATOM     10  C   UNL     1     -15.874   5.820  33.009  0.00  0.00    +0.146 C 
ATOM     11  C   UNL     1     -15.925   7.357  33.077  0.00  0.00    +0.030 C 
ATOM     12  C   UNL     1     -14.497   7.788  33.386  0.00  0.00    +0.017 C 
ATOM     13  C   UNL     1     -13.883   6.560  34.026  0.00  0.00    +0.085 C 
ENDROOT
BRANCH  10  15
ATOM      1  O   UNL     1     -17.327   4.269  31.803  0.00  0.00    -0.336 OA
ATOM      5  N   UNL     1     -16.142   5.630  30.477  0.00  0.00    -0.190 NA
ATOM      6  N   UNL     1     -17.678   3.935  30.488  0.00  0.00    -0.056 NA
ATOM     15  C   UNL     1     -16.419   5.275  31.705  0.00  0.00    +0.245 A 
ATOM     19  C   UNL     1     -16.939   4.781  29.764  0.00  0.00    +0.207 A 
BRANCH  19  23
ATOM      7  N   UNL     1     -16.498   3.821  26.186  0.00  0.00    -0.220 NA
ATOM      8  N   UNL     1     -15.874   2.671  28.157  0.00  0.00    -0.342 N 
ATOM      9  N   UNL     1     -17.600   5.961  26.315  0.00  0.00    -0.243 NA
ATOM     23  C   UNL     1     -16.973   4.805  28.331  0.00  0.00    +0.080 A 
ATOM     24  C   UNL     1     -16.466   3.798  27.535  0.00  0.00    +0.130 A 
ATOM     25  C   UNL     1     -17.534   5.872  27.660  0.00  0.00    +0.127 A 
ATOM     27  C   UNL     1     -17.070   4.916  25.650  0.00  0.00    +0.223 A 
ATOM     28  H   UNL     1     -15.524   1.949  27.538  0.00  0.00    +0.144 HD
ATOM     29  H   UNL     1     -15.396   2.794  29.040  0.00  0.00    +0.144 HD
ENDBRANCH  19  23
ENDBRANCH  10  15
BRANCH   4  14
ATOM     14  C   UNL     1     -14.256   4.174  33.829  0.00  0.00    +0.120 C 
BRANCH  14  16
ATOM     16  C   UNL     1     -14.189   3.077  32.800  0.00  0.00    -0.033 A 
ATOM     17  C   UNL     1     -14.833   1.862  33.033  0.00  0.00    +0.006 A 
ATOM     18  C   UNL     1     -13.483   3.275  31.613  0.00  0.00    +0.006 A 
ATOM     20  C   UNL     1     -14.772   0.845  32.080  0.00  0.00    +0.015 A 
ATOM     21  C   UNL     1     -13.421   2.258  30.660  0.00  0.00    +0.015 A 
ATOM     22  C   UNL     1     -14.065   1.043  30.893  0.00  0.00    +0.059 A 
BRANCH  22  26
ATOM      3  O   UNL     1     -14.827  -0.205  29.000  0.00  0.00    -0.245 OA
ATOM     26  C   UNL     1     -14.001  -0.016  29.899  0.00  0.00    +0.337 C 
BRANCH  26   2
ATOM      2  O   UNL     1     -12.907  -0.811  30.055  0.00  0.00    -0.477 OA
ATOM     30  H   UNL     1     -12.451  -0.975  29.203  0.00  0.00    +0.295 HD
ENDBRANCH  26   2
ENDBRANCH  22  26
ENDBRANCH  14  16
ENDBRANCH   4  14
TORSDOF 6
ENDMDL
MODEL 8
REMARK VINA RESULT:      -6.9      2.641      5.231
REMARK  Name = 45783728
REMARK  6 active torsions:
REMARK  status: ('A' for Active; 'I' for Inactive)
REMARK    1  A    between atoms: O_2  and  C_26
REMARK    2  A    between atoms: N_4  and  C_14
REMARK    3  A    between atoms: C_10  and  C_15
REMARK    4  A    between atoms: C_14  and  C_16
REMARK    5  A    between atoms: C_19  and  C_23
REMARK    6  A    between atoms: C_22  and  C_26
REMARK                            x       y       z     vdW  Elec       q    Type
REMARK                         _______ _______ _______ _____ _____    ______ ____
ROOT
ATOM      4  N   UNL     1      12.415   8.826  20.181  0.00  0.00    -0.287 NA
ATOM     10  C   UNL     1      13.154   8.203  21.298  0.00  0.00    +0.146 C 
ATOM     11  C   UNL     1      12.172   7.178  21.894  0.00  0.00    +0.030 C 
ATOM     12  C   UNL     1      10.891   7.339  21.087  0.00  0.00    +0.017 C 
ATOM     13  C   UNL     1      10.995   8.743  20.527  0.00  0.00    +0.085 C 
ENDROOT
BRANCH  10  15
ATOM      1  O   UNL     1      14.396   6.740  19.786  0.00  0.00    -0.336 OA
ATOM      5  N   UNL     1      15.659   7.715  21.357  0.00  0.00    -0.190 NA
ATOM      6  N   UNL     1      15.704   6.288  19.569  0.00  0.00    -0.056 NA
ATOM     15  C   UNL     1      14.458   7.575  20.856  0.00  0.00    +0.245 A 
ATOM     19  C   UNL     1      16.390   6.907  20.535  0.00  0.00    +0.207 A 
BRANCH  19  23
ATOM      7  N   UNL     1      19.922   7.431  21.618  0.00  0.00    -0.220 NA
ATOM      8  N   UNL     1      17.979   8.688  22.109  0.00  0.00    -0.342 N 
ATOM      9  N   UNL     1      19.793   5.476  20.216  0.00  0.00    -0.243 NA
ATOM     23  C   UNL     1      17.805   6.741  20.705  0.00  0.00    +0.080 A 
ATOM     24  C   UNL     1      18.591   7.588  21.459  0.00  0.00    +0.130 A 
ATOM     25  C   UNL     1      18.466   5.692  20.100  0.00  0.00    +0.127 A 
ATOM     27  C   UNL     1      20.450   6.371  20.978  0.00  0.00    +0.223 A 
ATOM     28  H   UNL     1      18.589   9.279  22.662  0.00  0.00    +0.144 HD
ATOM     29  H   UNL     1      17.178   9.128  21.675  0.00  0.00    +0.144 HD
ENDBRANCH  19  23
ENDBRANCH  10  15
BRANCH   4  14
ATOM     14  C   UNL     1      12.833  10.194  19.907  0.00  0.00    +0.120 C 
BRANCH  14  16
ATOM     16  C   UNL     1      13.323  10.358  18.493  0.00  0.00    -0.033 A 
ATOM     17  C   UNL     1      13.939  11.546  18.101  0.00  0.00    +0.006 A 
ATOM     18  C   UNL     1      13.160   9.320  17.573  0.00  0.00    +0.006 A 
ATOM     20  C   UNL     1      14.394  11.697  16.791  0.00  0.00    +0.015 A 
ATOM     21  C   UNL     1      13.613   9.473  16.263  0.00  0.00    +0.015 A 
ATOM     22  C   UNL     1      14.229  10.661  15.871  0.00  0.00    +0.059 A 
BRANCH  22  26
ATOM      3  O   UNL     1      14.336  11.695  13.716  0.00  0.00    -0.245 OA
ATOM     26  C   UNL     1      14.703  10.818  14.505  0.00  0.00    +0.337 C 
BRANCH  26   2
ATOM      2  O   UNL     1      15.624   9.876  14.161  0.00  0.00    -0.477 OA
ATOM     30  H   UNL     1      16.362   9.836  14.805  0.00  0.00    +0.295 HD
ENDBRANCH  26   2
ENDBRANCH  22  26
ENDBRANCH  14  16
ENDBRANCH   4  14
TORSDOF 6
ENDMDL
MODEL 9
REMARK VINA RESULT:      -6.7      2.568      5.331
REMARK  Name = 45783728
REMARK  6 active torsions:
REMARK  status: ('A' for Active; 'I' for Inactive)
REMARK    1  A    between atoms: O_2  and  C_26
REMARK    2  A    between atoms: N_4  and  C_14
REMARK    3  A    between atoms: C_10  and  C_15
REMARK    4  A    between atoms: C_14  and  C_16
REMARK    5  A    between atoms: C_19  and  C_23
REMARK    6  A    between atoms: C_22  and  C_26
REMARK                            x       y       z     vdW  Elec       q    Type
REMARK                         _______ _______ _______ _____ _____    ______ ____
ROOT
ATOM      4  N   UNL     1      12.837  11.543  22.760  0.00  0.00    -0.287 NA
ATOM     10  C   UNL     1      14.185  12.091  23.013  0.00  0.00    +0.146 C 
ATOM     11  C   UNL     1      14.271  12.228  24.544  0.00  0.00    +0.030 C 
ATOM     12  C   UNL     1      12.906  11.792  25.059  0.00  0.00    +0.017 C 
ATOM     13  C   UNL     1      11.993  11.994  23.867  0.00  0.00    +0.085 C 
ENDROOT
BRANCH  10  15
ATOM      1  O   UNL     1      16.518  11.782  22.355  0.00  0.00    -0.336 OA
ATOM      5  N   UNL     1      15.225   9.986  22.008  0.00  0.00    -0.190 NA
ATOM      6  N   UNL     1      17.353  10.801  21.804  0.00  0.00    -0.056 NA
ATOM     15  C   UNL     1      15.284  11.220  22.441  0.00  0.00    +0.245 A 
ATOM     19  C   UNL     1      16.518   9.772  21.628  0.00  0.00    +0.207 A 
BRANCH  19  23
ATOM      7  N   UNL     1      18.466   6.657  20.978  0.00  0.00    -0.220 NA
ATOM      8  N   UNL     1      18.853   8.395  22.535  0.00  0.00    -0.342 N 
ATOM      9  N   UNL     1      16.566   6.741  19.497  0.00  0.00    -0.243 NA
ATOM     23  C   UNL     1      16.943   8.518  21.076  0.00  0.00    +0.080 A 
ATOM     24  C   UNL     1      18.066   7.836  21.498  0.00  0.00    +0.130 A 
ATOM     25  C   UNL     1      16.224   7.918  20.063  0.00  0.00    +0.127 A 
ATOM     27  C   UNL     1      17.681   6.174  19.995  0.00  0.00    +0.223 A 
ATOM     28  H   UNL     1      19.662   7.858  22.823  0.00  0.00    +0.144 HD
ATOM     29  H   UNL     1      18.914   9.402  22.614  0.00  0.00    +0.144 HD
ENDBRANCH  19  23
ENDBRANCH  10  15
BRANCH   4  14
ATOM     14  C   UNL     1      12.294  11.929  21.464  0.00  0.00    +0.120 C 
BRANCH  14  16
ATOM     16  C   UNL     1      12.447  10.833  20.443  0.00  0.00    -0.033 A 
ATOM     17  C   UNL     1      11.824   9.601  20.643  0.00  0.00    +0.006 A 
ATOM     18  C   UNL     1      13.213  11.049  19.297  0.00  0.00    +0.006 A 
ATOM     20  C   UNL     1      11.965   8.586  19.697  0.00  0.00    +0.015 A 
ATOM     21  C   UNL     1      13.355  10.034  18.351  0.00  0.00    +0.015 A 
ATOM     22  C   UNL     1      12.732   8.802  18.551  0.00  0.00    +0.059 A 
BRANCH  22  26
ATOM      3  O   UNL     1      13.853   7.589  16.820  0.00  0.00    -0.245 OA
ATOM     26  C   UNL     1      12.879   7.744  17.564  0.00  0.00    +0.337 C 
BRANCH  26   2
ATOM      2  O   UNL     1      11.805   6.907  17.534  0.00  0.00    -0.477 OA
ATOM     30  H   UNL     1      11.961   6.095  18.060  0.00  0.00    +0.295 HD
ENDBRANCH  26   2
ENDBRANCH  22  26
ENDBRANCH  14  16
ENDBRANCH   4  14
TORSDOF 6
ENDMDL
MODEL 10
REMARK VINA RESULT:      -6.7     14.052     17.041
REMARK  Name = 45783728
REMARK  6 active torsions:
REMARK  status: ('A' for Active; 'I' for Inactive)
REMARK    1  A    between atoms: O_2  and  C_26
REMARK    2  A    between atoms: N_4  and  C_14
REMARK    3  A    between atoms: C_10  and  C_15
REMARK    4  A    between atoms: C_14  and  C_16
REMARK    5  A    between atoms: C_19  and  C_23
REMARK    6  A    between atoms: C_22  and  C_26
REMARK                            x       y       z     vdW  Elec       q    Type
REMARK                         _______ _______ _______ _____ _____    ______ ____
ROOT
ATOM      4  N   UNL     1       9.842   6.828   5.585  0.00  0.00    -0.287 NA
ATOM     10  C   UNL     1      10.530   7.952   6.252  0.00  0.00    +0.146 C 
ATOM     11  C   UNL     1       9.924   7.997   7.667  0.00  0.00    +0.030 C 
ATOM     12  C   UNL     1       8.865   6.903   7.681  0.00  0.00    +0.017 C 
ATOM     13  C   UNL     1       8.527   6.714   6.216  0.00  0.00    +0.085 C 
ENDROOT
BRANCH  10  15
ATOM      1  O   UNL     1      12.530   6.806   7.063  0.00  0.00    -0.336 OA
ATOM      5  N   UNL     1      12.949   8.464   5.616  0.00  0.00    -0.190 NA
ATOM      6  N   UNL     1      13.922   6.850   6.912  0.00  0.00    -0.056 NA
ATOM     15  C   UNL     1      12.035   7.789   6.266  0.00  0.00    +0.245 A 
ATOM     19  C   UNL     1      14.091   7.852   6.044  0.00  0.00    +0.207 A 
BRANCH  19  23
ATOM      7  N   UNL     1      17.323   7.984   4.184  0.00  0.00    -0.220 NA
ATOM      8  N   UNL     1      15.545   6.430   4.036  0.00  0.00    -0.342 N 
ATOM      9  N   UNL     1      17.204   9.835   5.722  0.00  0.00    -0.243 NA
ATOM     23  C   UNL     1      15.385   8.265   5.584  0.00  0.00    +0.080 A 
ATOM     24  C   UNL     1      16.105   7.595   4.616  0.00  0.00    +0.130 A 
ATOM     25  C   UNL     1      15.990   9.390   6.107  0.00  0.00    +0.127 A 
ATOM     27  C   UNL     1      17.805   9.095   4.771  0.00  0.00    +0.223 A 
ATOM     28  H   UNL     1      16.101   5.974   3.321  0.00  0.00    +0.144 HD
ATOM     29  H   UNL     1      14.944   5.843   4.599  0.00  0.00    +0.144 HD
ENDBRANCH  19  23
ENDBRANCH  10  15
BRANCH   4  14
ATOM     14  C   UNL     1       9.745   6.990   4.141  0.00  0.00    +0.120 C 
BRANCH  14  16
ATOM     16  C   UNL     1      10.677   6.060   3.408  0.00  0.00    -0.033 A 
ATOM     17  C   UNL     1      11.794   6.570   2.747  0.00  0.00    +0.006 A 
ATOM     18  C   UNL     1      10.422   4.688   3.391  0.00  0.00    +0.006 A 
ATOM     20  C   UNL     1      12.657   5.709   2.069  0.00  0.00    +0.015 A 
ATOM     21  C   UNL     1      11.285   3.828   2.713  0.00  0.00    +0.015 A 
ATOM     22  C   UNL     1      12.402   4.338   2.051  0.00  0.00    +0.059 A 
BRANCH  22  26
ATOM      3  O   UNL     1      13.074   2.912   0.251  0.00  0.00    -0.245 OA
ATOM     26  C   UNL     1      13.302   3.439   1.345  0.00  0.00    +0.337 C 
BRANCH  26   2
ATOM      2  O   UNL     1      14.462   3.225   2.024  0.00  0.00    -0.477 OA
ATOM     30  H   UNL     1      15.186   3.803   1.702  0.00  0.00    +0.295 HD
ENDBRANCH  26   2
ENDBRANCH  22  26
ENDBRANCH  14  16
ENDBRANCH   4  14
TORSDOF 6
ENDMDL
