MODEL 1
REMARK VINA RESULT:      -6.7      0.000      0.000
REMARK  Name = 28959922
REMARK  8 active torsions:
REMARK  status: ('A' for Active; 'I' for Inactive)
REMARK    1  A    between atoms: O_3  and  C_24
REMARK    2  A    between atoms: N_6  and  C_19
REMARK    3  A    between atoms: N_7  and  C_25
REMARK    4  A    between atoms: C_8  and  C_16
REMARK    5  A    between atoms: C_9  and  C_18
REMARK    6  A    between atoms: C_10  and  C_17
REMARK    7  A    between atoms: C_16  and  C_19
REMARK    8  A    between atoms: C_18  and  C_24
REMARK                            x       y       z     vdW  Elec       q    Type
REMARK                         _______ _______ _______ _____ _____    ______ ____
ROOT
ATOM      2  O   UNL     1      11.369  13.435  23.314  0.00  0.00    -0.275 OA
ATOM      5  N   UNL     1      12.256  11.296  23.078  0.00  0.00    -0.301 N 
ATOM      8  C   UNL     1      13.030   9.400  21.674  0.00  0.00    +0.011 C 
ATOM      9  C   UNL     1      11.722   8.649  22.035  0.00  0.00    +0.006 C 
ATOM     11  C   UNL     1      13.383  10.400  22.789  0.00  0.00    +0.111 C 
ATOM     12  C   UNL     1      10.585   9.626  22.378  0.00  0.00    +0.023 C 
ATOM     15  C   UNL     1      11.014  10.621  23.453  0.00  0.00    +0.108 C 
ATOM     17  C   UNL     1      12.309  12.693  23.046  0.00  0.00    +0.219 C 
ENDROOT
BRANCH  17  10
ATOM     10  C   UNL     1      13.608  13.320  22.655  0.00  0.00    +0.075 C 
ATOM     13  C   UNL     1      13.639  14.779  22.307  0.00  0.00    +0.013 C 
ATOM     14  C   UNL     1      13.813  13.747  21.231  0.00  0.00    +0.013 C 
ENDBRANCH  17  10
BRANCH   8  16
ATOM     16  C   UNL     1      12.985  10.111  20.315  0.00  0.00    +0.020 C 
BRANCH  16  19
ATOM     19  C   UNL     1      13.897   9.422  19.311  0.00  0.00    +0.085 C 
BRANCH  19   6
ATOM      6  N   UNL     1      14.863   8.578  20.013  0.00  0.00    -0.299 NA
ATOM      7  N   UNL     1      17.380   7.298  20.443  0.00  0.00    -0.327 N 
ATOM     20  C   UNL     1      16.036   9.362  20.415  0.00  0.00    +0.103 C 
ATOM     21  C   UNL     1      15.280   7.455  19.163  0.00  0.00    +0.103 C 
ATOM     22  C   UNL     1      17.030   8.503  21.201  0.00  0.00    +0.120 C 
ATOM     23  C   UNL     1      16.247   6.532  19.908  0.00  0.00    +0.120 C 
BRANCH   7  25
ATOM      1  F   UNL     1      22.030   4.559  21.643  0.00  0.00    -0.205 F 
ATOM     25  C   UNL     1      18.557   6.605  20.746  0.00  0.00    +0.030 A 
ATOM     26  C   UNL     1      19.339   7.000  21.832  0.00  0.00    +0.026 A 
ATOM     27  C   UNL     1      18.948   5.518  19.964  0.00  0.00    +0.026 A 
ATOM     28  C   UNL     1      20.512   6.309  22.135  0.00  0.00    +0.040 A 
ATOM     29  C   UNL     1      20.122   4.827  20.267  0.00  0.00    +0.040 A 
ATOM     30  C   UNL     1      20.904   5.222  21.353  0.00  0.00    +0.124 A 
ENDBRANCH   7  25
ENDBRANCH  19   6
ENDBRANCH  16  19
ENDBRANCH   8  16
BRANCH   9  18
ATOM     18  C   UNL     1      11.278   7.663  20.954  0.00  0.00    +0.124 C 
BRANCH  18  24
ATOM      4  O   UNL     1      10.904   5.354  21.640  0.00  0.00    -0.251 OA
ATOM     24  C   UNL     1      11.662   6.251  21.300  0.00  0.00    +0.305 C 
BRANCH  24   3
ATOM      3  O   UNL     1      13.005   6.099  21.181  0.00  0.00    -0.481 OA
ATOM     31  H   UNL     1      13.494   6.642  21.836  0.00  0.00    +0.295 HD
ENDBRANCH  24   3
ENDBRANCH  18  24
ENDBRANCH   9  18
TORSDOF 8
ENDMDL
MODEL 2
REMARK VINA RESULT:      -6.6      2.942      4.160
REMARK  Name = 28959922
REMARK  8 active torsions:
REMARK  status: ('A' for Active; 'I' for Inactive)
REMARK    1  A    between atoms: O_3  and  C_24
REMARK    2  A    between atoms: N_6  and  C_19
REMARK    3  A    between atoms: N_7  and  C_25
REMARK    4  A    between atoms: C_8  and  C_16
REMARK    5  A    between atoms: C_9  and  C_18
REMARK    6  A    between atoms: C_10  and  C_17
REMARK    7  A    between atoms: C_16  and  C_19
REMARK    8  A    between atoms: C_18  and  C_24
REMARK                            x       y       z     vdW  Elec       q    Type
REMARK                         _______ _______ _______ _____ _____    ______ ____
ROOT
ATOM      2  O   UNL     1      13.582  10.331  14.821  0.00  0.00    -0.275 OA
ATOM      5  N   UNL     1      12.944  10.123  17.049  0.00  0.00    -0.301 N 
ATOM      8  C   UNL     1      13.391   9.416  19.388  0.00  0.00    +0.011 C 
ATOM      9  C   UNL     1      12.441   8.211  19.165  0.00  0.00    +0.006 C 
ATOM     11  C   UNL     1      13.001  10.569  18.446  0.00  0.00    +0.111 C 
ATOM     12  C   UNL     1      12.374   7.809  17.681  0.00  0.00    +0.023 C 
ATOM     15  C   UNL     1      12.033   9.007  16.797  0.00  0.00    +0.108 C 
ATOM     17  C   UNL     1      13.655  10.695  15.991  0.00  0.00    +0.219 C 
ENDROOT
BRANCH  17  10
ATOM     10  C   UNL     1      14.570  11.832  16.315  0.00  0.00    +0.075 C 
ATOM     13  C   UNL     1      15.516  12.331  15.264  0.00  0.00    +0.013 C 
ATOM     14  C   UNL     1      16.041  11.570  16.447  0.00  0.00    +0.013 C 
ENDBRANCH  17  10
BRANCH   8  16
ATOM     16  C   UNL     1      14.878   9.075  19.226  0.00  0.00    +0.020 C 
BRANCH  16  19
ATOM     19  C   UNL     1      15.566   8.989  20.579  0.00  0.00    +0.085 C 
BRANCH  19   6
ATOM      6  N   UNL     1      16.869   8.341  20.435  0.00  0.00    -0.299 NA
ATOM      7  N   UNL     1      19.025   6.624  21.185  0.00  0.00    -0.327 N 
ATOM     20  C   UNL     1      16.715   6.883  20.370  0.00  0.00    +0.103 C 
ATOM     21  C   UNL     1      17.750   8.701  21.553  0.00  0.00    +0.103 C 
ATOM     22  C   UNL     1      18.067   6.196  20.162  0.00  0.00    +0.120 C 
ATOM     23  C   UNL     1      19.136   8.075  21.384  0.00  0.00    +0.120 C 
BRANCH   7  25
ATOM      1  F   UNL     1      23.463   3.509  22.266  0.00  0.00    -0.205 F 
ATOM     25  C   UNL     1      20.148   5.836  21.459  0.00  0.00    +0.030 A 
ATOM     26  C   UNL     1      20.922   6.093  22.590  0.00  0.00    +0.026 A 
ATOM     27  C   UNL     1      20.494   4.792  20.600  0.00  0.00    +0.026 A 
ATOM     28  C   UNL     1      22.041   5.307  22.863  0.00  0.00    +0.040 A 
ATOM     29  C   UNL     1      21.614   4.006  20.873  0.00  0.00    +0.040 A 
ATOM     30  C   UNL     1      22.388   4.263  22.005  0.00  0.00    +0.124 A 
ENDBRANCH   7  25
ENDBRANCH  19   6
ENDBRANCH  16  19
ENDBRANCH   8  16
BRANCH   9  18
ATOM     18  C   UNL     1      12.789   7.003  20.035  0.00  0.00    +0.124 C 
BRANCH  18  24
ATOM      4  O   UNL     1      10.752   7.421  21.307  0.00  0.00    -0.251 OA
ATOM     24  C   UNL     1      11.699   6.701  21.026  0.00  0.00    +0.305 C 
BRANCH  24   3
ATOM      3  O   UNL     1      11.915   5.484  21.587  0.00  0.00    -0.481 OA
ATOM     31  H   UNL     1      11.391   4.780  21.146  0.00  0.00    +0.295 HD
ENDBRANCH  24   3
ENDBRANCH  18  24
ENDBRANCH   9  18
TORSDOF 8
ENDMDL
MODEL 3
REMARK VINA RESULT:      -6.4     26.348     28.161
REMARK  Name = 28959922
REMARK  8 active torsions:
REMARK  status: ('A' for Active; 'I' for Inactive)
REMARK    1  A    between atoms: O_3  and  C_24
REMARK    2  A    between atoms: N_6  and  C_19
REMARK    3  A    between atoms: N_7  and  C_25
REMARK    4  A    between atoms: C_8  and  C_16
REMARK    5  A    between atoms: C_9  and  C_18
REMARK    6  A    between atoms: C_10  and  C_17
REMARK    7  A    between atoms: C_16  and  C_19
REMARK    8  A    between atoms: C_18  and  C_24
REMARK                            x       y       z     vdW  Elec       q    Type
REMARK                         _______ _______ _______ _____ _____    ______ ____
ROOT
ATOM      2  O   UNL     1      -9.695   9.335  17.918  0.00  0.00    -0.275 OA
ATOM      5  N   UNL     1     -11.792   8.547  18.549  0.00  0.00    -0.301 N 
ATOM      8  C   UNL     1     -13.676   8.414  20.162  0.00  0.00    +0.011 C 
ATOM      9  C   UNL     1     -13.198   6.991  20.545  0.00  0.00    +0.006 C 
ATOM     11  C   UNL     1     -13.237   8.743  18.724  0.00  0.00    +0.111 C 
ATOM     12  C   UNL     1     -11.689   6.815  20.299  0.00  0.00    +0.023 C 
ATOM     15  C   UNL     1     -11.311   7.205  18.872  0.00  0.00    +0.108 C 
ATOM     17  C   UNL     1     -10.898   9.516  18.084  0.00  0.00    +0.219 C 
ENDROOT
BRANCH  17  10
ATOM     10  C   UNL     1     -11.453  10.868  17.772  0.00  0.00    +0.075 C 
ATOM     13  C   UNL     1     -10.513  12.025  17.615  0.00  0.00    +0.013 C 
ATOM     14  C   UNL     1     -11.401  11.939  18.822  0.00  0.00    +0.013 C 
ENDBRANCH  17  10
BRANCH   8  16
ATOM     16  C   UNL     1     -13.207   9.511  21.126  0.00  0.00    +0.020 C 
BRANCH  16  19
ATOM     19  C   UNL     1     -14.393  10.250  21.727  0.00  0.00    +0.085 C 
BRANCH  19   6
ATOM      6  N   UNL     1     -14.007  10.860  22.999  0.00  0.00    -0.299 NA
ATOM      7  N   UNL     1     -12.797  10.954  25.585  0.00  0.00    -0.327 N 
ATOM     20  C   UNL     1     -12.546  10.887  23.135  0.00  0.00    +0.103 C 
ATOM     21  C   UNL     1     -14.600  10.125  24.124  0.00  0.00    +0.103 C 
ATOM     22  C   UNL     1     -12.128  11.574  24.438  0.00  0.00    +0.120 C 
ATOM     23  C   UNL     1     -14.250  10.788  25.458  0.00  0.00    +0.120 C 
BRANCH   7  25
ATOM      1  F   UNL     1     -10.690  11.578  30.658  0.00  0.00    -0.205 F 
ATOM     25  C   UNL     1     -12.264  11.112  26.869  0.00  0.00    +0.030 A 
ATOM     26  C   UNL     1     -12.184  12.382  27.440  0.00  0.00    +0.026 A 
ATOM     27  C   UNL     1     -11.812   9.999  27.578  0.00  0.00    +0.026 A 
ATOM     28  C   UNL     1     -11.653  12.540  28.719  0.00  0.00    +0.040 A 
ATOM     29  C   UNL     1     -11.280  10.157  28.859  0.00  0.00    +0.040 A 
ATOM     30  C   UNL     1     -11.201  11.427  29.429  0.00  0.00    +0.124 A 
ENDBRANCH   7  25
ENDBRANCH  19   6
ENDBRANCH  16  19
ENDBRANCH   8  16
BRANCH   9  18
ATOM     18  C   UNL     1     -13.559   6.602  21.979  0.00  0.00    +0.124 C 
BRANCH  18  24
ATOM      4  O   UNL     1     -14.635   4.425  21.765  0.00  0.00    -0.251 OA
ATOM     24  C   UNL     1     -13.694   5.112  22.133  0.00  0.00    +0.305 C 
BRANCH  24   3
ATOM      3  O   UNL     1     -12.595   4.615  22.756  0.00  0.00    -0.481 OA
ATOM     31  H   UNL     1     -11.916   4.312  22.115  0.00  0.00    +0.295 HD
ENDBRANCH  24   3
ENDBRANCH  18  24
ENDBRANCH   9  18
TORSDOF 8
ENDMDL
MODEL 4
REMARK VINA RESULT:      -6.3     27.447     30.725
REMARK  Name = 28959922
REMARK  8 active torsions:
REMARK  status: ('A' for Active; 'I' for Inactive)
REMARK    1  A    between atoms: O_3  and  C_24
REMARK    2  A    between atoms: N_6  and  C_19
REMARK    3  A    between atoms: N_7  and  C_25
REMARK    4  A    between atoms: C_8  and  C_16
REMARK    5  A    between atoms: C_9  and  C_18
REMARK    6  A    between atoms: C_10  and  C_17
REMARK    7  A    between atoms: C_16  and  C_19
REMARK    8  A    between atoms: C_18  and  C_24
REMARK                            x       y       z     vdW  Elec       q    Type
REMARK                         _______ _______ _______ _____ _____    ______ ____
ROOT
ATOM      2  O   UNL     1      -1.403  -9.822  12.325  0.00  0.00    -0.275 OA
ATOM      5  N   UNL     1      -2.621 -11.262  13.689  0.00  0.00    -0.301 N 
ATOM      8  C   UNL     1      -4.533 -11.735  15.202  0.00  0.00    +0.011 C 
ATOM      9  C   UNL     1      -3.549 -11.682  16.400  0.00  0.00    +0.006 C 
ATOM     11  C   UNL     1      -3.777 -12.136  13.923  0.00  0.00    +0.111 C 
ATOM     12  C   UNL     1      -2.330 -10.796  16.092  0.00  0.00    +0.023 C 
ATOM     15  C   UNL     1      -1.656 -11.212  14.787  0.00  0.00    +0.108 C 
ATOM     17  C   UNL     1      -2.386 -10.531  12.521  0.00  0.00    +0.219 C 
ENDROOT
BRANCH  17  10
ATOM     10  C   UNL     1      -3.411 -10.624  11.437  0.00  0.00    +0.075 C 
ATOM     13  C   UNL     1      -3.390  -9.619  10.324  0.00  0.00    +0.013 C 
ATOM     14  C   UNL     1      -4.482  -9.576  11.353  0.00  0.00    +0.013 C 
ENDBRANCH  17  10
BRANCH   8  16
ATOM     16  C   UNL     1      -5.310 -10.431  14.976  0.00  0.00    +0.020 C 
BRANCH  16  19
ATOM     19  C   UNL     1      -6.793 -10.709  14.789  0.00  0.00    +0.085 C 
BRANCH  19   6
ATOM      6  N   UNL     1      -7.480 -10.635  16.078  0.00  0.00    -0.299 NA
ATOM      7  N   UNL     1      -9.696 -10.847  17.868  0.00  0.00    -0.327 N 
ATOM     20  C   UNL     1      -8.004 -11.951  16.459  0.00  0.00    +0.103 C 
ATOM     21  C   UNL     1      -8.576  -9.658  16.022  0.00  0.00    +0.103 C 
ATOM     22  C   UNL     1      -8.676 -11.899  17.833  0.00  0.00    +0.120 C 
ATOM     23  C   UNL     1      -9.266  -9.530  17.382  0.00  0.00    +0.120 C 
BRANCH   7  25
ATOM      1  F   UNL     1     -13.700 -11.028  21.676  0.00  0.00    -0.205 F 
ATOM     25  C   UNL     1     -10.709 -10.893  18.832  0.00  0.00    +0.030 A 
ATOM     26  C   UNL     1     -11.546  -9.792  19.017  0.00  0.00    +0.026 A 
ATOM     27  C   UNL     1     -10.883 -12.040  19.607  0.00  0.00    +0.026 A 
ATOM     28  C   UNL     1     -12.555  -9.838  19.978  0.00  0.00    +0.040 A 
ATOM     29  C   UNL     1     -11.894 -12.085  20.568  0.00  0.00    +0.040 A 
ATOM     30  C   UNL     1     -12.730 -10.984  20.753  0.00  0.00    +0.124 A 
ENDBRANCH   7  25
ENDBRANCH  19   6
ENDBRANCH  16  19
ENDBRANCH   8  16
BRANCH   9  18
ATOM     18  C   UNL     1      -4.215 -11.249  17.705  0.00  0.00    +0.124 C 
BRANCH  18  24
ATOM      4  O   UNL     1      -3.487 -12.102  19.869  0.00  0.00    -0.251 OA
ATOM     24  C   UNL     1      -4.032 -12.274  18.789  0.00  0.00    +0.305 C 
BRANCH  24   3
ATOM      3  O   UNL     1      -4.569 -13.457  18.396  0.00  0.00    -0.481 OA
ATOM     31  H   UNL     1      -3.947 -13.976  17.842  0.00  0.00    +0.295 HD
ENDBRANCH  24   3
ENDBRANCH  18  24
ENDBRANCH   9  18
TORSDOF 8
ENDMDL
MODEL 5
REMARK VINA RESULT:      -6.2     17.013     18.836
REMARK  Name = 28959922
REMARK  8 active torsions:
REMARK  status: ('A' for Active; 'I' for Inactive)
REMARK    1  A    between atoms: O_3  and  C_24
REMARK    2  A    between atoms: N_6  and  C_19
REMARK    3  A    between atoms: N_7  and  C_25
REMARK    4  A    between atoms: C_8  and  C_16
REMARK    5  A    between atoms: C_9  and  C_18
REMARK    6  A    between atoms: C_10  and  C_17
REMARK    7  A    between atoms: C_16  and  C_19
REMARK    8  A    between atoms: C_18  and  C_24
REMARK                            x       y       z     vdW  Elec       q    Type
REMARK                         _______ _______ _______ _____ _____    ______ ____
ROOT
ATOM      2  O   UNL     1       8.932  10.473   5.686  0.00  0.00    -0.275 OA
ATOM      5  N   UNL     1      10.234   8.914   6.822  0.00  0.00    -0.301 N 
ATOM      8  C   UNL     1      11.140   6.619   7.098  0.00  0.00    +0.011 C 
ATOM      9  C   UNL     1      10.143   6.406   8.267  0.00  0.00    +0.006 C 
ATOM     11  C   UNL     1      11.460   8.117   6.950  0.00  0.00    +0.111 C 
ATOM     12  C   UNL     1       8.898   7.297   8.117  0.00  0.00    +0.023 C 
ATOM     15  C   UNL     1       9.284   8.762   7.923  0.00  0.00    +0.108 C 
ATOM     17  C   UNL     1       9.949   9.792   5.772  0.00  0.00    +0.219 C 
ENDROOT
BRANCH  17  10
ATOM     10  C   UNL     1      10.961   9.901   4.677  0.00  0.00    +0.075 C 
ATOM     13  C   UNL     1      11.890  11.078   4.656  0.00  0.00    +0.013 C 
ATOM     14  C   UNL     1      10.796  10.967   3.634  0.00  0.00    +0.013 C 
ENDBRANCH  17  10
BRANCH   8  16
ATOM     16  C   UNL     1      10.664   6.040   5.760  0.00  0.00    +0.020 C 
BRANCH  16  19
ATOM     19  C   UNL     1      11.568   6.489   4.621  0.00  0.00    +0.085 C 
BRANCH  19   6
ATOM      6  N   UNL     1      11.468   5.547   3.506  0.00  0.00    -0.299 NA
ATOM      7  N   UNL     1      11.445   4.746   0.765  0.00  0.00    -0.327 N 
ATOM     20  C   UNL     1      12.709   5.544   2.723  0.00  0.00    +0.103 C 
ATOM     21  C   UNL     1      10.332   5.893   2.642  0.00  0.00    +0.103 C 
ATOM     22  C   UNL     1      12.638   4.521   1.586  0.00  0.00    +0.120 C 
ATOM     23  C   UNL     1      10.183   4.881   1.503  0.00  0.00    +0.120 C 
BRANCH   7  25
ATOM      1  F   UNL     1      11.241   2.746  -4.385  0.00  0.00    -0.205 F 
ATOM     25  C   UNL     1      11.393   4.239  -0.538  0.00  0.00    +0.030 A 
ATOM     26  C   UNL     1      10.405   4.680  -1.418  0.00  0.00    +0.026 A 
ATOM     27  C   UNL     1      12.331   3.296  -0.958  0.00  0.00    +0.026 A 
ATOM     28  C   UNL     1      10.353   4.175  -2.718  0.00  0.00    +0.040 A 
ATOM     29  C   UNL     1      12.279   2.791  -2.258  0.00  0.00    +0.040 A 
ATOM     30  C   UNL     1      11.290   3.231  -3.138  0.00  0.00    +0.124 A 
ENDBRANCH   7  25
ENDBRANCH  19   6
ENDBRANCH  16  19
ENDBRANCH   8  16
BRANCH   9  18
ATOM     18  C   UNL     1       9.740   4.944   8.453  0.00  0.00    +0.124 C 
BRANCH  18  24
ATOM      4  O   UNL     1       8.296   4.316  10.314  0.00  0.00    -0.251 OA
ATOM     24  C   UNL     1       9.392   4.643   9.885  0.00  0.00    +0.305 C 
BRANCH  24   3
ATOM      3  O   UNL     1      10.495   4.788  10.664  0.00  0.00    -0.481 OA
ATOM     31  H   UNL     1      11.321   4.782  10.134  0.00  0.00    +0.295 HD
ENDBRANCH  24   3
ENDBRANCH  18  24
ENDBRANCH   9  18
TORSDOF 8
ENDMDL
MODEL 6
REMARK VINA RESULT:      -6.1     27.633     30.387
REMARK  Name = 28959922
REMARK  8 active torsions:
REMARK  status: ('A' for Active; 'I' for Inactive)
REMARK    1  A    between atoms: O_3  and  C_24
REMARK    2  A    between atoms: N_6  and  C_19
REMARK    3  A    between atoms: N_7  and  C_25
REMARK    4  A    between atoms: C_8  and  C_16
REMARK    5  A    between atoms: C_9  and  C_18
REMARK    6  A    between atoms: C_10  and  C_17
REMARK    7  A    between atoms: C_16  and  C_19
REMARK    8  A    between atoms: C_18  and  C_24
REMARK                            x       y       z     vdW  Elec       q    Type
REMARK                         _______ _______ _______ _____ _____    ______ ____
ROOT
ATOM      2  O   UNL     1      -3.678 -16.471  13.162  0.00  0.00    -0.275 OA
ATOM      5  N   UNL     1      -2.400 -14.531  13.017  0.00  0.00    -0.301 N 
ATOM      8  C   UNL     1      -1.986 -12.147  13.577  0.00  0.00    +0.011 C 
ATOM      9  C   UNL     1      -2.436 -11.771  12.142  0.00  0.00    +0.006 C 
ATOM     11  C   UNL     1      -1.436 -13.585  13.592  0.00  0.00    +0.111 C 
ATOM     12  C   UNL     1      -3.405 -12.815  11.561  0.00  0.00    +0.023 C 
ATOM     15  C   UNL     1      -2.823 -14.224  11.652  0.00  0.00    +0.108 C 
ATOM     17  C   UNL     1      -2.891 -15.671  13.660  0.00  0.00    +0.219 C 
ENDROOT
BRANCH  17  10
ATOM     10  C   UNL     1      -2.420 -15.928  15.055  0.00  0.00    +0.075 C 
ATOM     13  C   UNL     1      -1.580 -17.139  15.331  0.00  0.00    +0.013 C 
ATOM     14  C   UNL     1      -2.998 -17.082  15.820  0.00  0.00    +0.013 C 
ENDBRANCH  17  10
BRANCH   8  16
ATOM     16  C   UNL     1      -3.083 -11.984  14.637  0.00  0.00    +0.020 C 
BRANCH  16  19
ATOM     19  C   UNL     1      -2.623 -11.065  15.758  0.00  0.00    +0.085 C 
BRANCH  19   6
ATOM      6  N   UNL     1      -3.783 -10.482  16.431  0.00  0.00    -0.299 NA
ATOM      7  N   UNL     1      -6.476 -10.394  17.377  0.00  0.00    -0.327 N 
ATOM     20  C   UNL     1      -4.203 -11.326  17.556  0.00  0.00    +0.103 C 
ATOM     21  C   UNL     1      -4.896 -10.316  15.488  0.00  0.00    +0.103 C 
ATOM     22  C   UNL     1      -5.382 -10.698  18.304  0.00  0.00    +0.120 C 
ATOM     23  C   UNL     1      -6.097  -9.654  16.168  0.00  0.00    +0.120 C 
BRANCH   7  25
ATOM      1  F   UNL     1     -11.611  -9.739  19.320  0.00  0.00    -0.205 F 
ATOM     25  C   UNL     1      -7.776 -10.228  17.869  0.00  0.00    +0.030 A 
ATOM     26  C   UNL     1      -8.215 -10.991  18.951  0.00  0.00    +0.026 A 
ATOM     27  C   UNL     1      -8.632  -9.299  17.277  0.00  0.00    +0.026 A 
ATOM     28  C   UNL     1      -9.510 -10.826  19.441  0.00  0.00    +0.040 A 
ATOM     29  C   UNL     1      -9.929  -9.134  17.768  0.00  0.00    +0.040 A 
ATOM     30  C   UNL     1     -10.367  -9.897  18.850  0.00  0.00    +0.124 A 
ENDBRANCH   7  25
ENDBRANCH  19   6
ENDBRANCH  16  19
ENDBRANCH   8  16
BRANCH   9  18
ATOM     18  C   UNL     1      -3.036 -10.369  12.049  0.00  0.00    +0.124 C 
BRANCH  18  24
ATOM      4  O   UNL     1      -1.220  -9.185  10.933  0.00  0.00    -0.251 OA
ATOM     24  C   UNL     1      -2.384  -9.557  10.963  0.00  0.00    +0.305 C 
BRANCH  24   3
ATOM      3  O   UNL     1      -3.290  -9.284   9.990  0.00  0.00    -0.481 OA
ATOM     31  H   UNL     1      -3.929  -8.592  10.268  0.00  0.00    +0.295 HD
ENDBRANCH  24   3
ENDBRANCH  18  24
ENDBRANCH   9  18
TORSDOF 8
ENDMDL
MODEL 7
REMARK VINA RESULT:      -6.0     27.350     30.610
REMARK  Name = 28959922
REMARK  8 active torsions:
REMARK  status: ('A' for Active; 'I' for Inactive)
REMARK    1  A    between atoms: O_3  and  C_24
REMARK    2  A    between atoms: N_6  and  C_19
REMARK    3  A    between atoms: N_7  and  C_25
REMARK    4  A    between atoms: C_8  and  C_16
REMARK    5  A    between atoms: C_9  and  C_18
REMARK    6  A    between atoms: C_10  and  C_17
REMARK    7  A    between atoms: C_16  and  C_19
REMARK    8  A    between atoms: C_18  and  C_24
REMARK                            x       y       z     vdW  Elec       q    Type
REMARK                         _______ _______ _______ _____ _____    ______ ____
ROOT
ATOM      2  O   UNL     1     -11.952  -9.491  16.605  0.00  0.00    -0.275 OA
ATOM      5  N   UNL     1     -11.395 -10.432  18.660  0.00  0.00    -0.301 N 
ATOM      8  C   UNL     1      -9.950 -11.868  20.080  0.00  0.00    +0.011 C 
ATOM      9  C   UNL     1     -11.069 -12.941  20.068  0.00  0.00    +0.006 C 
ATOM     11  C   UNL     1     -10.563 -10.472  19.869  0.00  0.00    +0.111 C 
ATOM     12  C   UNL     1     -11.946 -12.830  18.809  0.00  0.00    +0.023 C 
ATOM     15  C   UNL     1     -12.481 -11.411  18.629  0.00  0.00    +0.108 C 
ATOM     17  C   UNL     1     -11.235  -9.534  17.601  0.00  0.00    +0.219 C 
ENDROOT
BRANCH  17  10
ATOM     10  C   UNL     1     -10.106  -8.559  17.694  0.00  0.00    +0.075 C 
ATOM     13  C   UNL     1      -9.737  -7.751  16.486  0.00  0.00    +0.013 C 
ATOM     14  C   UNL     1      -8.830  -8.848  16.960  0.00  0.00    +0.013 C 
ENDBRANCH  17  10
BRANCH   8  16
ATOM     16  C   UNL     1      -8.833 -12.120  19.059  0.00  0.00    +0.020 C 
BRANCH  16  19
ATOM     19  C   UNL     1      -7.475 -12.177  19.742  0.00  0.00    +0.085 C 
BRANCH  19   6
ATOM      6  N   UNL     1      -6.416 -12.273  18.738  0.00  0.00    -0.299 NA
ATOM      7  N   UNL     1      -4.721 -11.338  16.639  0.00  0.00    -0.327 N 
ATOM     20  C   UNL     1      -5.349 -11.307  19.020  0.00  0.00    +0.103 C 
ATOM     21  C   UNL     1      -6.959 -12.039  17.394  0.00  0.00    +0.103 C 
ATOM     22  C   UNL     1      -4.208 -11.437  18.008  0.00  0.00    +0.120 C 
ATOM     23  C   UNL     1      -5.872 -12.195  16.328  0.00  0.00    +0.120 C 
BRANCH   7  25
ATOM      1  F   UNL     1      -1.289 -10.003  12.515  0.00  0.00    -0.205 F 
ATOM     25  C   UNL     1      -3.852 -11.000  15.595  0.00  0.00    +0.030 A 
ATOM     26  C   UNL     1      -2.512 -10.724  15.865  0.00  0.00    +0.026 A 
ATOM     27  C   UNL     1      -4.326 -10.939  14.285  0.00  0.00    +0.026 A 
ATOM     28  C   UNL     1      -1.646 -10.387  14.825  0.00  0.00    +0.040 A 
ATOM     29  C   UNL     1      -3.460 -10.602  13.244  0.00  0.00    +0.040 A 
ATOM     30  C   UNL     1      -2.119 -10.326  13.514  0.00  0.00    +0.124 A 
ENDBRANCH   7  25
ENDBRANCH  19   6
ENDBRANCH  16  19
ENDBRANCH   8  16
BRANCH   9  18
ATOM     18  C   UNL     1     -10.537 -14.365  20.230  0.00  0.00    +0.124 C 
BRANCH  18  24
ATOM      4  O   UNL     1     -10.591 -14.475  22.664  0.00  0.00    -0.251 OA
ATOM     24  C   UNL     1      -9.986 -14.598  21.609  0.00  0.00    +0.305 C 
BRANCH  24   3
ATOM      3  O   UNL     1      -8.684 -14.973  21.525  0.00  0.00    -0.481 OA
ATOM     31  H   UNL     1      -8.282 -15.100  22.411  0.00  0.00    +0.295 HD
ENDBRANCH  24   3
ENDBRANCH  18  24
ENDBRANCH   9  18
TORSDOF 8
ENDMDL
MODEL 8
REMARK VINA RESULT:      -6.0     27.800     30.164
REMARK  Name = 28959922
REMARK  8 active torsions:
REMARK  status: ('A' for Active; 'I' for Inactive)
REMARK    1  A    between atoms: O_3  and  C_24
REMARK    2  A    between atoms: N_6  and  C_19
REMARK    3  A    between atoms: N_7  and  C_25
REMARK    4  A    between atoms: C_8  and  C_16
REMARK    5  A    between atoms: C_9  and  C_18
REMARK    6  A    between atoms: C_10  and  C_17
REMARK    7  A    between atoms: C_16  and  C_19
REMARK    8  A    between atoms: C_18  and  C_24
REMARK                            x       y       z     vdW  Elec       q    Type
REMARK                         _______ _______ _______ _____ _____    ______ ____
ROOT
ATOM      2  O   UNL     1      -1.778 -10.143  14.486  0.00  0.00    -0.275 OA
ATOM      5  N   UNL     1      -3.723 -11.257  15.115  0.00  0.00    -0.301 N 
ATOM      8  C   UNL     1      -6.170 -11.301  15.536  0.00  0.00    +0.011 C 
ATOM      9  C   UNL     1      -5.870 -11.290  17.057  0.00  0.00    +0.006 C 
ATOM     11  C   UNL     1      -4.986 -11.923  14.774  0.00  0.00    +0.111 C 
ATOM     12  C   UNL     1      -4.516 -10.627  17.362  0.00  0.00    +0.023 C 
ATOM     15  C   UNL     1      -3.393 -11.255  16.539  0.00  0.00    +0.108 C 
ATOM     17  C   UNL     1      -2.845 -10.677  14.194  0.00  0.00    +0.219 C 
ENDROOT
BRANCH  17  10
ATOM     10  C   UNL     1      -3.241 -10.711  12.754  0.00  0.00    +0.075 C 
ATOM     13  C   UNL     1      -2.600 -11.716  11.843  0.00  0.00    +0.013 C 
ATOM     14  C   UNL     1      -2.257 -10.260  11.715  0.00  0.00    +0.013 C 
ENDBRANCH  17  10
BRANCH   8  16
ATOM     16  C   UNL     1      -6.510  -9.921  14.958  0.00  0.00    +0.020 C 
BRANCH  16  19
ATOM     19  C   UNL     1      -7.915  -9.907  14.375  0.00  0.00    +0.085 C 
BRANCH  19   6
ATOM      6  N   UNL     1      -7.848  -9.805  12.917  0.00  0.00    -0.299 NA
ATOM      7  N   UNL     1      -6.816 -10.346  10.311  0.00  0.00    -0.327 N 
ATOM     20  C   UNL     1      -8.045 -11.121  12.300  0.00  0.00    +0.103 C 
ATOM     21  C   UNL     1      -6.557  -9.244  12.499  0.00  0.00    +0.103 C 
ATOM     22  C   UNL     1      -8.034 -11.019  10.772  0.00  0.00    +0.120 C 
ATOM     23  C   UNL     1      -6.498  -9.079  10.979  0.00  0.00    +0.120 C 
BRANCH   7  25
ATOM      1  F   UNL     1      -5.118 -11.028   5.093  0.00  0.00    -0.205 F 
ATOM     25  C   UNL     1      -6.386 -10.519   8.990  0.00  0.00    +0.030 A 
ATOM     26  C   UNL     1      -7.304 -10.447   7.943  0.00  0.00    +0.026 A 
ATOM     27  C   UNL     1      -5.039 -10.762   8.721  0.00  0.00    +0.026 A 
ATOM     28  C   UNL     1      -6.876 -10.619   6.627  0.00  0.00    +0.040 A 
ATOM     29  C   UNL     1      -4.611 -10.934   7.404  0.00  0.00    +0.040 A 
ATOM     30  C   UNL     1      -5.529 -10.862   6.357  0.00  0.00    +0.124 A 
ENDBRANCH   7  25
ENDBRANCH  19   6
ENDBRANCH  16  19
ENDBRANCH   8  16
BRANCH   9  18
ATOM     18  C   UNL     1      -6.983 -10.646  17.884  0.00  0.00    +0.124 C 
BRANCH  18  24
ATOM      4  O   UNL     1      -7.091 -12.178  19.777  0.00  0.00    -0.251 OA
ATOM     24  C   UNL     1      -6.908 -11.055  19.329  0.00  0.00    +0.305 C 
BRANCH  24   3
ATOM      3  O   UNL     1      -6.602  -9.977  20.095  0.00  0.00    -0.481 OA
ATOM     31  H   UNL     1      -7.401  -9.578  20.502  0.00  0.00    +0.295 HD
ENDBRANCH  24   3
ENDBRANCH  18  24
ENDBRANCH   9  18
TORSDOF 8
ENDMDL
MODEL 9
REMARK VINA RESULT:      -5.9     14.556     16.217
REMARK  Name = 28959922
REMARK  8 active torsions:
REMARK  status: ('A' for Active; 'I' for Inactive)
REMARK    1  A    between atoms: O_3  and  C_24
REMARK    2  A    between atoms: N_6  and  C_19
REMARK    3  A    between atoms: N_7  and  C_25
REMARK    4  A    between atoms: C_8  and  C_16
REMARK    5  A    between atoms: C_9  and  C_18
REMARK    6  A    between atoms: C_10  and  C_17
REMARK    7  A    between atoms: C_16  and  C_19
REMARK    8  A    between atoms: C_18  and  C_24
REMARK                            x       y       z     vdW  Elec       q    Type
REMARK                         _______ _______ _______ _____ _____    ______ ____
ROOT
ATOM      2  O   UNL     1       8.189   8.199   2.673  0.00  0.00    -0.275 OA
ATOM      5  N   UNL     1       8.358   8.247   4.994  0.00  0.00    -0.301 N 
ATOM      8  C   UNL     1       9.702   8.289   7.081  0.00  0.00    +0.011 C 
ATOM      9  C   UNL     1       9.352   6.794   7.292  0.00  0.00    +0.006 C 
ATOM     11  C   UNL     1       8.603   8.971   6.247  0.00  0.00    +0.111 C 
ATOM     12  C   UNL     1       9.055   6.088   5.958  0.00  0.00    +0.023 C 
ATOM     15  C   UNL     1       7.994   6.840   5.157  0.00  0.00    +0.108 C 
ATOM     17  C   UNL     1       8.420   8.807   3.714  0.00  0.00    +0.219 C 
ENDROOT
BRANCH  17  10
ATOM     10  C   UNL     1       8.799  10.249   3.616  0.00  0.00    +0.075 C 
ATOM     13  C   UNL     1       9.021  10.855   2.262  0.00  0.00    +0.013 C 
ATOM     14  C   UNL     1      10.186  10.612   3.175  0.00  0.00    +0.013 C 
ENDBRANCH  17  10
BRANCH   8  16
ATOM     16  C   UNL     1      11.078   8.523   6.443  0.00  0.00    +0.020 C 
BRANCH  16  19
ATOM     19  C   UNL     1      11.834   9.624   7.170  0.00  0.00    +0.085 C 
BRANCH  19   6
ATOM      6  N   UNL     1      13.270   9.349   7.133  0.00  0.00    -0.299 NA
ATOM      7  N   UNL     1      15.810   8.907   5.904  0.00  0.00    -0.327 N 
ATOM     20  C   UNL     1      13.991  10.459   6.498  0.00  0.00    +0.103 C 
ATOM     21  C   UNL     1      13.537   8.100   6.409  0.00  0.00    +0.103 C 
ATOM     22  C   UNL     1      15.501  10.208   6.505  0.00  0.00    +0.120 C 
ATOM     23  C   UNL     1      15.032   7.772   6.414  0.00  0.00    +0.120 C 
BRANCH   7  25
ATOM      1  F   UNL     1      20.896   7.913   3.978  0.00  0.00    -0.205 F 
ATOM     25  C   UNL     1      17.097   8.656   5.416  0.00  0.00    +0.030 A 
ATOM     26  C   UNL     1      18.196   8.742   6.271  0.00  0.00    +0.026 A 
ATOM     27  C   UNL     1      17.282   8.317   4.076  0.00  0.00    +0.026 A 
ATOM     28  C   UNL     1      19.479   8.492   5.786  0.00  0.00    +0.040 A 
ATOM     29  C   UNL     1      18.566   8.067   3.590  0.00  0.00    +0.040 A 
ATOM     30  C   UNL     1      19.664   8.153   4.445  0.00  0.00    +0.124 A 
ENDBRANCH   7  25
ENDBRANCH  19   6
ENDBRANCH  16  19
ENDBRANCH   8  16
BRANCH   9  18
ATOM     18  C   UNL     1      10.419   6.033   8.078  0.00  0.00    +0.124 C 
BRANCH  18  24
ATOM      4  O   UNL     1       8.999   4.930   9.724  0.00  0.00    -0.251 OA
ATOM     24  C   UNL     1       9.831   4.871   8.831  0.00  0.00    +0.305 C 
BRANCH  24   3
ATOM      3  O   UNL     1      10.365   3.711   8.373  0.00  0.00    -0.481 OA
ATOM     31  H   UNL     1      11.158   3.445   8.886  0.00  0.00    +0.295 HD
ENDBRANCH  24   3
ENDBRANCH  18  24
ENDBRANCH   9  18
TORSDOF 8
ENDMDL
MODEL 10
REMARK VINA RESULT:      -5.7     17.237     19.292
REMARK  Name = 28959922
REMARK  8 active torsions:
REMARK  status: ('A' for Active; 'I' for Inactive)
REMARK    1  A    between atoms: O_3  and  C_24
REMARK    2  A    between atoms: N_6  and  C_19
REMARK    3  A    between atoms: N_7  and  C_25
REMARK    4  A    between atoms: C_8  and  C_16
REMARK    5  A    between atoms: C_9  and  C_18
REMARK    6  A    between atoms: C_10  and  C_17
REMARK    7  A    between atoms: C_16  and  C_19
REMARK    8  A    between atoms: C_18  and  C_24
REMARK                            x       y       z     vdW  Elec       q    Type
REMARK                         _______ _______ _______ _____ _____    ______ ____
ROOT
ATOM      2  O   UNL     1      15.339   9.992   5.441  0.00  0.00    -0.275 OA
ATOM      5  N   UNL     1      13.622   8.879   6.549  0.00  0.00    -0.301 N 
ATOM      8  C   UNL     1      11.476   7.628   6.546  0.00  0.00    +0.011 C 
ATOM      9  C   UNL     1      10.773   8.908   7.066  0.00  0.00    +0.006 C 
ATOM     11  C   UNL     1      12.957   7.639   6.966  0.00  0.00    +0.111 C 
ATOM     12  C   UNL     1      11.530  10.180   6.647  0.00  0.00    +0.023 C 
ATOM     15  C   UNL     1      13.002  10.106   7.048  0.00  0.00    +0.108 C 
ATOM     17  C   UNL     1      14.776   8.950   5.764  0.00  0.00    +0.219 C 
ENDROOT
BRANCH  17  10
ATOM     10  C   UNL     1      15.359   7.660   5.286  0.00  0.00    +0.075 C 
ATOM     13  C   UNL     1      16.418   7.686   4.223  0.00  0.00    +0.013 C 
ATOM     14  C   UNL     1      15.041   7.184   3.899  0.00  0.00    +0.013 C 
ENDBRANCH  17  10
BRANCH   8  16
ATOM     16  C   UNL     1      11.354   7.421   5.031  0.00  0.00    +0.020 C 
BRANCH  16  19
ATOM     19  C   UNL     1      10.892   6.008   4.711  0.00  0.00    +0.085 C 
BRANCH  19   6
ATOM      6  N   UNL     1      11.446   5.582   3.425  0.00  0.00    -0.299 NA
ATOM      7  N   UNL     1      11.354   4.643   0.730  0.00  0.00    -0.327 N 
ATOM     20  C   UNL     1      10.981   6.463   2.348  0.00  0.00    +0.103 C 
ATOM     21  C   UNL     1      11.065   4.194   3.136  0.00  0.00    +0.103 C 
ATOM     22  C   UNL     1      11.598   6.062   1.005  0.00  0.00    +0.120 C 
ATOM     23  C   UNL     1      11.686   3.718   1.820  0.00  0.00    +0.120 C 
BRANCH   7  25
ATOM      1  F   UNL     1      11.674   2.763  -4.459  0.00  0.00    -0.205 F 
ATOM     25  C   UNL     1      11.435   4.167  -0.584  0.00  0.00    +0.030 A 
ATOM     26  C   UNL     1      10.526   4.611  -1.543  0.00  0.00    +0.026 A 
ATOM     27  C   UNL     1      12.425   3.249  -0.933  0.00  0.00    +0.026 A 
ATOM     28  C   UNL     1      10.606   4.137  -2.852  0.00  0.00    +0.040 A 
ATOM     29  C   UNL     1      12.505   2.775  -2.243  0.00  0.00    +0.040 A 
ATOM     30  C   UNL     1      11.596   3.219  -3.203  0.00  0.00    +0.124 A 
ENDBRANCH   7  25
ENDBRANCH  19   6
ENDBRANCH  16  19
ENDBRANCH   8  16
BRANCH   9  18
ATOM     18  C   UNL     1       9.304   8.996   6.652  0.00  0.00    +0.124 C 
BRANCH  18  24
ATOM      4  O   UNL     1       8.647   7.404   8.378  0.00  0.00    -0.251 OA
ATOM     24  C   UNL     1       8.487   7.894   7.270  0.00  0.00    +0.305 C 
BRANCH  24   3
ATOM      3  O   UNL     1       7.518   7.502   6.404  0.00  0.00    -0.481 OA
ATOM     31  H   UNL     1       7.585   6.547   6.188  0.00  0.00    +0.295 HD
ENDBRANCH  24   3
ENDBRANCH  18  24
ENDBRANCH   9  18
TORSDOF 8
ENDMDL
