MODEL 1
REMARK VINA RESULT:      -7.6      0.000      0.000
REMARK  Name = 11886250
REMARK  8 active torsions:
REMARK  status: ('A' for Active; 'I' for Inactive)
REMARK    1  A    between atoms: O_3  and  C_20
REMARK    2  A    between atoms: O_3  and  C_25
REMARK    3  A    between atoms: O_5  and  C_30
REMARK    4  A    between atoms: O_5  and  C_34
REMARK    5  A    between atoms: N_6  and  C_16
REMARK    6  A    between atoms: N_7  and  C_17
REMARK    7  A    between atoms: N_11  and  C_33
REMARK    8  A    between atoms: C_21  and  C_22
REMARK                            x       y       z     vdW  Elec       q    Type
REMARK                         _______ _______ _______ _____ _____    ______ ____
ROOT
ATOM      1  O   UNL     1      13.429   7.480  17.399  0.00  0.00    -0.370 OA
ATOM      2  O   UNL     1      13.388   8.554  20.355  0.00  0.00    -0.370 OA
ATOM     14  C   UNL     1      14.008   9.006  19.137  0.00  0.00    +0.176 C 
ATOM     15  C   UNL     1      14.445   7.772  18.371  0.00  0.00    +0.171 C 
ATOM     16  C   UNL     1      12.972   9.665  18.246  0.00  0.00    +0.171 C 
ATOM     17  C   UNL     1      14.498   6.682  19.418  0.00  0.00    +0.130 C 
ATOM     18  C   UNL     1      12.417   8.495  17.442  0.00  0.00    +0.190 C 
ATOM     19  C   UNL     1      13.423   7.121  20.396  0.00  0.00    +0.185 C 
ENDROOT
BRANCH  16   6
ATOM      6  N   UNL     1      13.532  10.757  17.445  0.00  0.00    -0.187 N 
ATOM      8  N   UNL     1      13.611  10.663  16.115  0.00  0.00    -0.041 NA
ATOM      9  N   UNL     1      14.424  12.620  16.807  0.00  0.00    -0.071 NA
ATOM     10  N   UNL     1      14.157  11.808  15.728  0.00  0.00    -0.020 NA
ATOM     20  C   UNL     1      14.027  11.947  17.862  0.00  0.00    +0.342 A 
BRANCH  20   3
ATOM      3  O   UNL     1      14.092  12.342  19.120  0.00  0.00    -0.423 OA
BRANCH   3  25
ATOM     25  C   UNL     1      13.008  12.896  19.787  0.00  0.00    +0.132 A 
ATOM     28  C   UNL     1      12.432  12.197  20.830  0.00  0.00    +0.048 A 
ATOM     29  C   UNL     1      12.536  14.132  19.385  0.00  0.00    +0.048 A 
ATOM     31  C   UNL     1      11.342  12.754  21.498  0.00  0.00    +0.031 A 
ATOM     32  C   UNL     1      11.445  14.688  20.054  0.00  0.00    +0.031 A 
ATOM     33  C   UNL     1      10.849  14.000  21.110  0.00  0.00    +0.067 A 
BRANCH  33  11
ATOM     11  N   UNL     1       9.768  14.553  21.774  0.00  0.00    -0.220 N 
ATOM     12  N   UNL     1       8.641  14.909  21.129  0.00  0.00    -0.154 NA
ATOM     13  N   UNL     1       8.489  15.338  23.371  0.00  0.00    -0.222 NA
ATOM     35  C   UNL     1       9.664  14.815  23.108  0.00  0.00    +0.225 A 
ATOM     36  C   UNL     1       7.904  15.377  22.138  0.00  0.00    +0.245 A 
ENDBRANCH  33  11
ENDBRANCH   3  25
ENDBRANCH  20   3
ENDBRANCH  16   6
BRANCH  17   7
ATOM      4  O   UNL     1      16.897   5.542  18.329  0.00  0.00    -0.270 OA
ATOM      7  N   UNL     1      15.792   6.630  20.053  0.00  0.00    -0.304 N 
ATOM     21  C   UNL     1      16.899   6.056  19.444  0.00  0.00    +0.244 C 
ATOM     37  H   UNL     1      15.840   6.932  21.020  0.00  0.00    +0.149 HD
BRANCH  21  22
ATOM     22  C   UNL     1      18.154   6.059  20.241  0.00  0.00    +0.037 A 
ATOM     23  C   UNL     1      19.177   5.209  19.875  0.00  0.00    +0.016 A 
ATOM     24  C   UNL     1      18.255   6.910  21.321  0.00  0.00    +0.016 A 
ATOM     26  C   UNL     1      20.354   5.211  20.622  0.00  0.00    +0.046 A 
ATOM     27  C   UNL     1      19.433   6.913  22.069  0.00  0.00    +0.046 A 
ATOM     30  C   UNL     1      20.482   6.063  21.719  0.00  0.00    +0.120 A 
BRANCH  30   5
ATOM      5  O   UNL     1      21.631   6.063  22.450  0.00  0.00    -0.495 OA
ATOM     34  C   UNL     1      21.641   6.848  23.641  0.00  0.00    +0.277 C 
ENDBRANCH  30   5
ENDBRANCH  21  22
ENDBRANCH  17   7
TORSDOF 7
ENDMDL
MODEL 2
REMARK VINA RESULT:      -7.3     28.661     32.218
REMARK  Name = 11886250
REMARK  8 active torsions:
REMARK  status: ('A' for Active; 'I' for Inactive)
REMARK    1  A    between atoms: O_3  and  C_20
REMARK    2  A    between atoms: O_3  and  C_25
REMARK    3  A    between atoms: O_5  and  C_30
REMARK    4  A    between atoms: O_5  and  C_34
REMARK    5  A    between atoms: N_6  and  C_16
REMARK    6  A    between atoms: N_7  and  C_17
REMARK    7  A    between atoms: N_11  and  C_33
REMARK    8  A    between atoms: C_21  and  C_22
REMARK                            x       y       z     vdW  Elec       q    Type
REMARK                         _______ _______ _______ _____ _____    ______ ____
ROOT
ATOM      1  O   UNL     1     -13.840   2.286  33.600  0.00  0.00    -0.370 OA
ATOM      2  O   UNL     1     -16.236   3.851  32.296  0.00  0.00    -0.370 OA
ATOM     14  C   UNL     1     -15.131   3.096  31.766  0.00  0.00    +0.176 C 
ATOM     15  C   UNL     1     -13.935   3.366  32.659  0.00  0.00    +0.171 C 
ATOM     16  C   UNL     1     -15.399   1.612  31.922  0.00  0.00    +0.171 C 
ATOM     17  C   UNL     1     -14.285   4.654  33.373  0.00  0.00    +0.130 C 
ATOM     18  C   UNL     1     -14.847   1.306  33.310  0.00  0.00    +0.190 C 
ATOM     19  C   UNL     1     -15.798   4.578  33.452  0.00  0.00    +0.185 C 
ENDROOT
BRANCH  16   6
ATOM      6  N   UNL     1     -14.818   0.819  30.835  0.00  0.00    -0.187 N 
ATOM      8  N   UNL     1     -13.672   0.153  31.008  0.00  0.00    -0.041 NA
ATOM      9  N   UNL     1     -14.447  -0.151  28.939  0.00  0.00    -0.071 NA
ATOM     10  N   UNL     1     -13.450  -0.441  29.842  0.00  0.00    -0.020 NA
ATOM     20  C   UNL     1     -15.286   0.632  29.578  0.00  0.00    +0.342 A 
BRANCH  20   3
ATOM      3  O   UNL     1     -16.396   1.159  29.096  0.00  0.00    -0.423 OA
BRANCH   3  25
ATOM     25  C   UNL     1     -16.469   1.717  27.827  0.00  0.00    +0.132 A 
ATOM     28  C   UNL     1     -16.045   3.018  27.640  0.00  0.00    +0.048 A 
ATOM     29  C   UNL     1     -16.965   0.953  26.788  0.00  0.00    +0.048 A 
ATOM     31  C   UNL     1     -16.120   3.579  26.366  0.00  0.00    +0.031 A 
ATOM     32  C   UNL     1     -17.040   1.514  25.512  0.00  0.00    +0.031 A 
ATOM     33  C   UNL     1     -16.617   2.827  25.302  0.00  0.00    +0.067 A 
BRANCH  33  11
ATOM     11  N   UNL     1     -16.691   3.382  24.037  0.00  0.00    -0.220 N 
ATOM     12  N   UNL     1     -16.058   4.528  23.723  0.00  0.00    -0.154 NA
ATOM     13  N   UNL     1     -17.209   3.694  21.930  0.00  0.00    -0.222 NA
ATOM     35  C   UNL     1     -17.374   2.897  22.961  0.00  0.00    +0.225 A 
ATOM     36  C   UNL     1     -16.404   4.671  22.441  0.00  0.00    +0.245 A 
ENDBRANCH  33  11
ENDBRANCH   3  25
ENDBRANCH  20   3
ENDBRANCH  16   6
BRANCH  17   7
ATOM      4  O   UNL     1     -13.425   7.181  34.430  0.00  0.00    -0.270 OA
ATOM      7  N   UNL     1     -13.858   5.804  32.614  0.00  0.00    -0.304 N 
ATOM     21  C   UNL     1     -13.458   6.988  33.217  0.00  0.00    +0.244 C 
ATOM     37  H   UNL     1     -13.970   5.756  31.607  0.00  0.00    +0.149 HD
BRANCH  21  22
ATOM     22  C   UNL     1     -13.073   8.089  32.296  0.00  0.00    +0.037 A 
ATOM     23  C   UNL     1     -14.065   8.787  31.641  0.00  0.00    +0.016 A 
ATOM     24  C   UNL     1     -11.734   8.377  32.126  0.00  0.00    +0.016 A 
ATOM     26  C   UNL     1     -13.703   9.820  30.776  0.00  0.00    +0.046 A 
ATOM     27  C   UNL     1     -11.372   9.411  31.262  0.00  0.00    +0.046 A 
ATOM     30  C   UNL     1     -12.357  10.131  30.587  0.00  0.00    +0.120 A 
BRANCH  30   5
ATOM      5  O   UNL     1     -12.004  11.139  29.741  0.00  0.00    -0.495 OA
ATOM     34  C   UNL     1     -11.315  10.772  28.547  0.00  0.00    +0.277 C 
ENDBRANCH  30   5
ENDBRANCH  21  22
ENDBRANCH  17   7
TORSDOF 7
ENDMDL
MODEL 3
REMARK VINA RESULT:      -7.2      4.183      7.089
REMARK  Name = 11886250
REMARK  8 active torsions:
REMARK  status: ('A' for Active; 'I' for Inactive)
REMARK    1  A    between atoms: O_3  and  C_20
REMARK    2  A    between atoms: O_3  and  C_25
REMARK    3  A    between atoms: O_5  and  C_30
REMARK    4  A    between atoms: O_5  and  C_34
REMARK    5  A    between atoms: N_6  and  C_16
REMARK    6  A    between atoms: N_7  and  C_17
REMARK    7  A    between atoms: N_11  and  C_33
REMARK    8  A    between atoms: C_21  and  C_22
REMARK                            x       y       z     vdW  Elec       q    Type
REMARK                         _______ _______ _______ _____ _____    ______ ____
ROOT
ATOM      1  O   UNL     1      12.978  10.212  18.123  0.00  0.00    -0.370 OA
ATOM      2  O   UNL     1      13.245   8.396  15.570  0.00  0.00    -0.370 OA
ATOM     14  C   UNL     1      13.997   8.519  16.791  0.00  0.00    +0.176 C 
ATOM     15  C   UNL     1      14.018   9.990  17.159  0.00  0.00    +0.171 C 
ATOM     16  C   UNL     1      13.249   7.849  17.927  0.00  0.00    +0.171 C 
ATOM     17  C   UNL     1      13.695  10.703  15.865  0.00  0.00    +0.130 C 
ATOM     18  C   UNL     1      12.353   8.965  18.453  0.00  0.00    +0.190 C 
ATOM     19  C   UNL     1      12.808   9.697  15.154  0.00  0.00    +0.185 C 
ENDROOT
BRANCH  16   6
ATOM      6  N   UNL     1      14.148   7.255  18.920  0.00  0.00    -0.187 N 
ATOM      8  N   UNL     1      15.432   7.022  18.631  0.00  0.00    -0.041 NA
ATOM      9  N   UNL     1      14.975   6.388  20.719  0.00  0.00    -0.071 NA
ATOM     10  N   UNL     1      15.935   6.491  19.738  0.00  0.00    -0.020 NA
ATOM     20  C   UNL     1      13.874   6.869  20.189  0.00  0.00    +0.342 A 
BRANCH  20   3
ATOM      3  O   UNL     1      12.694   6.965  20.772  0.00  0.00    -0.423 OA
BRANCH   3  25
ATOM     25  C   UNL     1      12.329   8.059  21.544  0.00  0.00    +0.132 A 
ATOM     28  C   UNL     1      11.036   8.141  22.024  0.00  0.00    +0.048 A 
ATOM     29  C   UNL     1      13.270   9.036  21.808  0.00  0.00    +0.048 A 
ATOM     31  C   UNL     1      10.669   9.241  22.798  0.00  0.00    +0.031 A 
ATOM     32  C   UNL     1      12.902  10.137  22.583  0.00  0.00    +0.031 A 
ATOM     33  C   UNL     1      11.602  10.239  23.078  0.00  0.00    +0.067 A 
BRANCH  33  11
ATOM     11  N   UNL     1      11.238  11.331  23.846  0.00  0.00    -0.220 N 
ATOM     12  N   UNL     1      11.212  11.280  25.191  0.00  0.00    -0.154 NA
ATOM     13  N   UNL     1      10.595  13.344  24.424  0.00  0.00    -0.222 NA
ATOM     35  C   UNL     1      10.868  12.566  23.403  0.00  0.00    +0.225 A 
ATOM     36  C   UNL     1      10.817  12.519  25.489  0.00  0.00    +0.245 A 
ENDBRANCH  33  11
ENDBRANCH   3  25
ENDBRANCH  20   3
ENDBRANCH  16   6
BRANCH  17   7
ATOM      4  O   UNL     1      13.992  12.646  13.772  0.00  0.00    -0.270 OA
ATOM      7  N   UNL     1      14.891  10.973  15.105  0.00  0.00    -0.304 N 
ATOM     21  C   UNL     1      14.938  11.937  14.108  0.00  0.00    +0.244 C 
ATOM     37  H   UNL     1      15.676  10.348  15.248  0.00  0.00    +0.149 HD
BRANCH  21  22
ATOM     22  C   UNL     1      16.237  12.077  13.399  0.00  0.00    +0.037 A 
ATOM     23  C   UNL     1      17.394  12.177  14.142  0.00  0.00    +0.016 A 
ATOM     24  C   UNL     1      16.243  12.101  12.020  0.00  0.00    +0.016 A 
ATOM     26  C   UNL     1      18.613  12.309  13.477  0.00  0.00    +0.046 A 
ATOM     27  C   UNL     1      17.462  12.232  11.354  0.00  0.00    +0.046 A 
ATOM     30  C   UNL     1      18.647  12.337  12.083  0.00  0.00    +0.120 A 
BRANCH  30   5
ATOM      5  O   UNL     1      19.837  12.467  11.433  0.00  0.00    -0.495 OA
ATOM     34  C   UNL     1      19.794  12.534  10.009  0.00  0.00    +0.277 C 
ENDBRANCH  30   5
ENDBRANCH  21  22
ENDBRANCH  17   7
TORSDOF 7
ENDMDL
MODEL 4
REMARK VINA RESULT:      -7.1     28.105     30.240
REMARK  Name = 11886250
REMARK  8 active torsions:
REMARK  status: ('A' for Active; 'I' for Inactive)
REMARK    1  A    between atoms: O_3  and  C_20
REMARK    2  A    between atoms: O_3  and  C_25
REMARK    3  A    between atoms: O_5  and  C_30
REMARK    4  A    between atoms: O_5  and  C_34
REMARK    5  A    between atoms: N_6  and  C_16
REMARK    6  A    between atoms: N_7  and  C_17
REMARK    7  A    between atoms: N_11  and  C_33
REMARK    8  A    between atoms: C_21  and  C_22
REMARK                            x       y       z     vdW  Elec       q    Type
REMARK                         _______ _______ _______ _____ _____    ______ ____
ROOT
ATOM      1  O   UNL     1      -4.482 -13.135  17.250  0.00  0.00    -0.370 OA
ATOM      2  O   UNL     1      -4.186 -10.028  16.856  0.00  0.00    -0.370 OA
ATOM     14  C   UNL     1      -5.303 -10.936  16.831  0.00  0.00    +0.176 C 
ATOM     15  C   UNL     1      -4.819 -12.224  16.192  0.00  0.00    +0.171 C 
ATOM     16  C   UNL     1      -5.682 -11.327  18.246  0.00  0.00    +0.171 C 
ATOM     17  C   UNL     1      -3.576 -11.820  15.432  0.00  0.00    +0.130 C 
ATOM     18  C   UNL     1      -4.798 -12.540  18.516  0.00  0.00    +0.190 C 
ATOM     19  C   UNL     1      -3.046 -10.669  16.267  0.00  0.00    +0.185 C 
ENDROOT
BRANCH  16   6
ATOM      6  N   UNL     1      -7.121 -11.562  18.398  0.00  0.00    -0.187 N 
ATOM      8  N   UNL     1      -7.583 -12.745  18.814  0.00  0.00    -0.041 NA
ATOM      9  N   UNL     1      -9.270 -11.338  18.432  0.00  0.00    -0.071 NA
ATOM     10  N   UNL     1      -8.902 -12.602  18.834  0.00  0.00    -0.020 NA
ATOM     20  C   UNL     1      -8.148 -10.711  18.167  0.00  0.00    +0.342 A 
BRANCH  20   3
ATOM      3  O   UNL     1      -8.021  -9.466  17.745  0.00  0.00    -0.423 OA
BRANCH   3  25
ATOM     25  C   UNL     1      -8.969  -8.850  16.941  0.00  0.00    +0.132 A 
ATOM     28  C   UNL     1      -9.047  -9.200  15.607  0.00  0.00    +0.048 A 
ATOM     29  C   UNL     1      -9.806  -7.902  17.499  0.00  0.00    +0.048 A 
ATOM     31  C   UNL     1      -9.998  -8.579  14.798  0.00  0.00    +0.031 A 
ATOM     32  C   UNL     1     -10.758  -7.281  16.689  0.00  0.00    +0.031 A 
ATOM     33  C   UNL     1     -10.854  -7.620  15.340  0.00  0.00    +0.067 A 
BRANCH  33  11
ATOM     11  N   UNL     1     -11.799  -7.004  14.538  0.00  0.00    -0.220 N 
ATOM     12  N   UNL     1     -12.398  -7.647  13.518  0.00  0.00    -0.154 NA
ATOM     13  N   UNL     1     -13.151  -5.495  13.702  0.00  0.00    -0.222 NA
ATOM     35  C   UNL     1     -12.256  -5.723  14.635  0.00  0.00    +0.225 A 
ATOM     36  C   UNL     1     -13.203  -6.693  13.048  0.00  0.00    +0.245 A 
ENDBRANCH  33  11
ENDBRANCH   3  25
ENDBRANCH  20   3
ENDBRANCH  16   6
BRANCH  17   7
ATOM      4  O   UNL     1      -1.833 -11.863  13.150  0.00  0.00    -0.270 OA
ATOM      7  N   UNL     1      -3.899 -11.390  14.094  0.00  0.00    -0.304 N 
ATOM     21  C   UNL     1      -2.986 -11.449  13.050  0.00  0.00    +0.244 C 
ATOM     37  H   UNL     1      -4.793 -10.930  13.964  0.00  0.00    +0.149 HD
BRANCH  21  22
ATOM     22  C   UNL     1      -3.464 -10.943  11.738  0.00  0.00    +0.037 A 
ATOM     23  C   UNL     1      -4.497 -11.602  11.105  0.00  0.00    +0.016 A 
ATOM     24  C   UNL     1      -2.858  -9.830  11.193  0.00  0.00    +0.016 A 
ATOM     26  C   UNL     1      -4.945 -11.128   9.873  0.00  0.00    +0.046 A 
ATOM     27  C   UNL     1      -3.307  -9.354   9.961  0.00  0.00    +0.046 A 
ATOM     30  C   UNL     1      -4.350 -10.004   9.301  0.00  0.00    +0.120 A 
BRANCH  30   5
ATOM      5  O   UNL     1      -4.786  -9.541   8.096  0.00  0.00    -0.495 OA
ATOM     34  C   UNL     1      -5.283 -10.507   7.171  0.00  0.00    +0.277 C 
ENDBRANCH  30   5
ENDBRANCH  21  22
ENDBRANCH  17   7
TORSDOF 7
ENDMDL
MODEL 5
REMARK VINA RESULT:      -7.1     28.508     30.922
REMARK  Name = 11886250
REMARK  8 active torsions:
REMARK  status: ('A' for Active; 'I' for Inactive)
REMARK    1  A    between atoms: O_3  and  C_20
REMARK    2  A    between atoms: O_3  and  C_25
REMARK    3  A    between atoms: O_5  and  C_30
REMARK    4  A    between atoms: O_5  and  C_34
REMARK    5  A    between atoms: N_6  and  C_16
REMARK    6  A    between atoms: N_7  and  C_17
REMARK    7  A    between atoms: N_11  and  C_33
REMARK    8  A    between atoms: C_21  and  C_22
REMARK                            x       y       z     vdW  Elec       q    Type
REMARK                         _______ _______ _______ _____ _____    ______ ____
ROOT
ATOM      1  O   UNL     1      -5.278 -10.718  18.960  0.00  0.00    -0.370 OA
ATOM      2  O   UNL     1      -7.199 -12.250  16.997  0.00  0.00    -0.370 OA
ATOM     14  C   UNL     1      -6.147 -11.284  16.814  0.00  0.00    +0.176 C 
ATOM     15  C   UNL     1      -6.232 -10.305  17.969  0.00  0.00    +0.171 C 
ATOM     16  C   UNL     1      -4.797 -11.955  16.976  0.00  0.00    +0.171 C 
ATOM     17  C   UNL     1      -7.640 -10.470  18.495  0.00  0.00    +0.130 C 
ATOM     18  C   UNL     1      -4.537 -11.845  18.474  0.00  0.00    +0.190 C 
ATOM     19  C   UNL     1      -7.933 -11.926  18.185  0.00  0.00    +0.185 C 
ENDROOT
BRANCH  16   6
ATOM      6  N   UNL     1      -3.767 -11.359  16.122  0.00  0.00    -0.187 N 
ATOM      8  N   UNL     1      -2.709 -10.739  16.653  0.00  0.00    -0.041 NA
ATOM      9  N   UNL     1      -2.605 -10.689  14.426  0.00  0.00    -0.071 NA
ATOM     10  N   UNL     1      -1.999 -10.330  15.609  0.00  0.00    -0.020 NA
ATOM     20  C   UNL     1      -3.701 -11.327  14.769  0.00  0.00    +0.342 A 
BRANCH  20   3
ATOM      3  O   UNL     1      -4.597 -11.851  13.954  0.00  0.00    -0.423 OA
BRANCH   3  25
ATOM     25  C   UNL     1      -5.261 -11.101  12.993  0.00  0.00    +0.132 A 
ATOM     28  C   UNL     1      -5.144 -11.460  11.664  0.00  0.00    +0.048 A 
ATOM     29  C   UNL     1      -6.019 -10.018  13.395  0.00  0.00    +0.048 A 
ATOM     31  C   UNL     1      -5.810 -10.706  10.698  0.00  0.00    +0.031 A 
ATOM     32  C   UNL     1      -6.685  -9.263  12.428  0.00  0.00    +0.031 A 
ATOM     33  C   UNL     1      -6.581  -9.608  11.081  0.00  0.00    +0.067 A 
BRANCH  33  11
ATOM     11  N   UNL     1      -7.243  -8.860  10.123  0.00  0.00    -0.220 N 
ATOM     12  N   UNL     1      -6.582  -8.160   9.182  0.00  0.00    -0.154 NA
ATOM     13  N   UNL     1      -8.846  -7.929   8.954  0.00  0.00    -0.222 NA
ATOM     35  C   UNL     1      -8.590  -8.713   9.976  0.00  0.00    +0.225 A 
ATOM     36  C   UNL     1      -7.595  -7.617   8.504  0.00  0.00    +0.245 A 
ENDBRANCH  33  11
ENDBRANCH   3  25
ENDBRANCH  20   3
ENDBRANCH  16   6
BRANCH  17   7
ATOM      4  O   UNL     1     -10.403 -10.038  19.147  0.00  0.00    -0.270 OA
ATOM      7  N   UNL     1      -8.559  -9.594  17.811  0.00  0.00    -0.304 N 
ATOM     21  C   UNL     1      -9.883  -9.450  18.201  0.00  0.00    +0.244 C 
ATOM     37  H   UNL     1      -8.231  -9.166  16.952  0.00  0.00    +0.149 HD
BRANCH  21  22
ATOM     22  C   UNL     1     -10.708  -8.530  17.376  0.00  0.00    +0.037 A 
ATOM     23  C   UNL     1     -10.111  -7.421  16.815  0.00  0.00    +0.016 A 
ATOM     24  C   UNL     1     -12.046  -8.814  17.199  0.00  0.00    +0.016 A 
ATOM     26  C   UNL     1     -10.885  -6.557  16.042  0.00  0.00    +0.046 A 
ATOM     27  C   UNL     1     -12.822  -7.951  16.424  0.00  0.00    +0.046 A 
ATOM     30  C   UNL     1     -12.241  -6.822  15.847  0.00  0.00    +0.120 A 
BRANCH  30   5
ATOM      5  O   UNL     1     -12.998  -5.977  15.093  0.00  0.00    -0.495 OA
ATOM     34  C   UNL     1     -12.353  -5.331  13.997  0.00  0.00    +0.277 C 
ENDBRANCH  30   5
ENDBRANCH  21  22
ENDBRANCH  17   7
TORSDOF 7
ENDMDL
MODEL 6
REMARK VINA RESULT:      -7.0      3.286      4.208
REMARK  Name = 11886250
REMARK  8 active torsions:
REMARK  status: ('A' for Active; 'I' for Inactive)
REMARK    1  A    between atoms: O_3  and  C_20
REMARK    2  A    between atoms: O_3  and  C_25
REMARK    3  A    between atoms: O_5  and  C_30
REMARK    4  A    between atoms: O_5  and  C_34
REMARK    5  A    between atoms: N_6  and  C_16
REMARK    6  A    between atoms: N_7  and  C_17
REMARK    7  A    between atoms: N_11  and  C_33
REMARK    8  A    between atoms: C_21  and  C_22
REMARK                            x       y       z     vdW  Elec       q    Type
REMARK                         _______ _______ _______ _____ _____    ______ ____
ROOT
ATOM      1  O   UNL     1      13.137   7.336  17.404  0.00  0.00    -0.370 OA
ATOM      2  O   UNL     1      13.440   9.234  19.894  0.00  0.00    -0.370 OA
ATOM     14  C   UNL     1      14.023   9.213  18.578  0.00  0.00    +0.176 C 
ATOM     15  C   UNL     1      14.248   7.758  18.210  0.00  0.00    +0.171 C 
ATOM     16  C   UNL     1      13.017   9.715  17.560  0.00  0.00    +0.171 C 
ATOM     17  C   UNL     1      14.239   7.033  19.538  0.00  0.00    +0.130 C 
ATOM     18  C   UNL     1      12.265   8.449  17.167  0.00  0.00    +0.190 C 
ATOM     19  C   UNL     1      13.299   7.888  20.367  0.00  0.00    +0.185 C 
ENDROOT
BRANCH  16   6
ATOM      6  N   UNL     1      13.651  10.430  16.449  0.00  0.00    -0.187 N 
ATOM      8  N   UNL     1      13.861   9.827  15.275  0.00  0.00    -0.041 NA
ATOM      9  N   UNL     1      14.597  11.931  15.214  0.00  0.00    -0.071 NA
ATOM     10  N   UNL     1      14.440  10.753  14.521  0.00  0.00    -0.020 NA
ATOM     20  C   UNL     1      14.099  11.708  16.409  0.00  0.00    +0.342 A 
BRANCH  20   3
ATOM      3  O   UNL     1      14.039  12.564  17.411  0.00  0.00    -0.423 OA
BRANCH   3  25
ATOM     25  C   UNL     1      14.921  12.523  18.483  0.00  0.00    +0.132 A 
ATOM     28  C   UNL     1      16.271  12.369  18.235  0.00  0.00    +0.048 A 
ATOM     29  C   UNL     1      14.421  12.636  19.766  0.00  0.00    +0.048 A 
ATOM     31  C   UNL     1      17.156  12.326  19.312  0.00  0.00    +0.031 A 
ATOM     32  C   UNL     1      15.307  12.593  20.843  0.00  0.00    +0.031 A 
ATOM     33  C   UNL     1      16.674  12.438  20.616  0.00  0.00    +0.067 A 
BRANCH  33  11
ATOM     11  N   UNL     1      17.552  12.396  21.684  0.00  0.00    -0.220 N 
ATOM     12  N   UNL     1      18.097  13.512  22.204  0.00  0.00    -0.154 NA
ATOM     13  N   UNL     1      18.815  11.642  23.308  0.00  0.00    -0.222 NA
ATOM     35  C   UNL     1      17.990  11.290  22.350  0.00  0.00    +0.225 A 
ATOM     36  C   UNL     1      18.850  13.001  23.180  0.00  0.00    +0.245 A 
ENDBRANCH  33  11
ENDBRANCH   3  25
ENDBRANCH  20   3
ENDBRANCH  16   6
BRANCH  17   7
ATOM      4  O   UNL     1      16.531   5.658  18.489  0.00  0.00    -0.270 OA
ATOM      7  N   UNL     1      15.558   6.991  20.119  0.00  0.00    -0.304 N 
ATOM     21  C   UNL     1      16.608   6.297  19.536  0.00  0.00    +0.244 C 
ATOM     37  H   UNL     1      15.665   7.399  21.042  0.00  0.00    +0.149 HD
BRANCH  21  22
ATOM     22  C   UNL     1      17.898   6.329  20.273  0.00  0.00    +0.037 A 
ATOM     23  C   UNL     1      18.887   5.434  19.925  0.00  0.00    +0.016 A 
ATOM     24  C   UNL     1      18.065   7.255  21.283  0.00  0.00    +0.016 A 
ATOM     26  C   UNL     1      20.098   5.464  20.618  0.00  0.00    +0.046 A 
ATOM     27  C   UNL     1      19.276   7.286  21.975  0.00  0.00    +0.046 A 
ATOM     30  C   UNL     1      20.292   6.390  21.642  0.00  0.00    +0.120 A 
BRANCH  30   5
ATOM      5  O   UNL     1      21.473   6.418  22.320  0.00  0.00    -0.495 OA
ATOM     34  C   UNL     1      22.209   5.198  22.393  0.00  0.00    +0.277 C 
ENDBRANCH  30   5
ENDBRANCH  21  22
ENDBRANCH  17   7
TORSDOF 7
ENDMDL
MODEL 7
REMARK VINA RESULT:      -7.0     13.927     17.327
REMARK  Name = 11886250
REMARK  8 active torsions:
REMARK  status: ('A' for Active; 'I' for Inactive)
REMARK    1  A    between atoms: O_3  and  C_20
REMARK    2  A    between atoms: O_3  and  C_25
REMARK    3  A    between atoms: O_5  and  C_30
REMARK    4  A    between atoms: O_5  and  C_34
REMARK    5  A    between atoms: N_6  and  C_16
REMARK    6  A    between atoms: N_7  and  C_17
REMARK    7  A    between atoms: N_11  and  C_33
REMARK    8  A    between atoms: C_21  and  C_22
REMARK                            x       y       z     vdW  Elec       q    Type
REMARK                         _______ _______ _______ _____ _____    ______ ____
ROOT
ATOM      1  O   UNL     1      12.702   9.733   7.338  0.00  0.00    -0.370 OA
ATOM      2  O   UNL     1      13.224   8.913   4.347  0.00  0.00    -0.370 OA
ATOM     14  C   UNL     1      13.012   8.172   5.564  0.00  0.00    +0.176 C 
ATOM     15  C   UNL     1      13.698   8.937   6.680  0.00  0.00    +0.171 C 
ATOM     16  C   UNL     1      11.541   8.194   5.931  0.00  0.00    +0.171 C 
ATOM     17  C   UNL     1      14.693   9.825   5.967  0.00  0.00    +0.130 C 
ATOM     18  C   UNL     1      11.415   9.462   6.768  0.00  0.00    +0.190 C 
ATOM     19  C   UNL     1      14.005  10.080   4.638  0.00  0.00    +0.185 C 
ENDROOT
BRANCH  16   6
ATOM      6  N   UNL     1      11.110   6.964   6.599  0.00  0.00    -0.187 N 
ATOM      8  N   UNL     1      11.618   6.613   7.784  0.00  0.00    -0.041 NA
ATOM      9  N   UNL     1      10.131   5.101   7.094  0.00  0.00    -0.071 NA
ATOM     10  N   UNL     1      11.014   5.470   8.084  0.00  0.00    -0.020 NA
ATOM     20  C   UNL     1      10.207   6.044   6.183  0.00  0.00    +0.342 A 
BRANCH  20   3
ATOM      3  O   UNL     1       9.532   6.103   5.050  0.00  0.00    -0.423 OA
BRANCH   3  25
ATOM     25  C   UNL     1      10.028   5.593   3.858  0.00  0.00    +0.132 A 
ATOM     28  C   UNL     1      10.640   4.354   3.861  0.00  0.00    +0.048 A 
ATOM     29  C   UNL     1       9.896   6.341   2.704  0.00  0.00    +0.048 A 
ATOM     31  C   UNL     1      11.139   3.843   2.664  0.00  0.00    +0.031 A 
ATOM     32  C   UNL     1      10.396   5.829   1.506  0.00  0.00    +0.031 A 
ATOM     33  C   UNL     1      11.017   4.580   1.486  0.00  0.00    +0.067 A 
BRANCH  33  11
ATOM     11  N   UNL     1      11.511   4.072   0.298  0.00  0.00    -0.220 N 
ATOM     12  N   UNL     1      10.739   3.936  -0.796  0.00  0.00    -0.154 NA
ATOM     13  N   UNL     1      12.880   3.235  -1.195  0.00  0.00    -0.222 NA
ATOM     35  C   UNL     1      12.783   3.650   0.047  0.00  0.00    +0.225 A 
ATOM     36  C   UNL     1      11.613   3.427  -1.667  0.00  0.00    +0.245 A 
ENDBRANCH  33  11
ENDBRANCH   3  25
ENDBRANCH  20   3
ENDBRANCH  16   6
BRANCH  17   7
ATOM      4  O   UNL     1      17.307  10.937   6.387  0.00  0.00    -0.270 OA
ATOM      7  N   UNL     1      15.955   9.152   5.780  0.00  0.00    -0.304 N 
ATOM     21  C   UNL     1      17.174   9.775   6.010  0.00  0.00    +0.244 C 
ATOM     37  H   UNL     1      15.925   8.229   5.361  0.00  0.00    +0.149 HD
BRANCH  21  22
ATOM     22  C   UNL     1      18.384   8.954   5.747  0.00  0.00    +0.037 A 
ATOM     23  C   UNL     1      19.325   8.815   6.746  0.00  0.00    +0.016 A 
ATOM     24  C   UNL     1      18.528   8.358   4.511  0.00  0.00    +0.016 A 
ATOM     26  C   UNL     1      20.461   8.045   6.498  0.00  0.00    +0.046 A 
ATOM     27  C   UNL     1      19.664   7.587   4.264  0.00  0.00    +0.046 A 
ATOM     30  C   UNL     1      20.631   7.431   5.257  0.00  0.00    +0.120 A 
BRANCH  30   5
ATOM      5  O   UNL     1      21.741   6.681   5.015  0.00  0.00    -0.495 OA
ATOM     34  C   UNL     1      21.944   6.236   3.675  0.00  0.00    +0.277 C 
ENDBRANCH  30   5
ENDBRANCH  21  22
ENDBRANCH  17   7
TORSDOF 7
ENDMDL
MODEL 8
REMARK VINA RESULT:      -6.8     20.794     24.867
REMARK  Name = 11886250
REMARK  8 active torsions:
REMARK  status: ('A' for Active; 'I' for Inactive)
REMARK    1  A    between atoms: O_3  and  C_20
REMARK    2  A    between atoms: O_3  and  C_25
REMARK    3  A    between atoms: O_5  and  C_30
REMARK    4  A    between atoms: O_5  and  C_34
REMARK    5  A    between atoms: N_6  and  C_16
REMARK    6  A    between atoms: N_7  and  C_17
REMARK    7  A    between atoms: N_11  and  C_33
REMARK    8  A    between atoms: C_21  and  C_22
REMARK                            x       y       z     vdW  Elec       q    Type
REMARK                         _______ _______ _______ _____ _____    ______ ____
ROOT
ATOM      1  O   UNL     1       9.271   5.588  -5.308  0.00  0.00    -0.370 OA
ATOM      2  O   UNL     1       7.592   6.423  -2.784  0.00  0.00    -0.370 OA
ATOM     14  C   UNL     1       8.279   5.219  -3.172  0.00  0.00    +0.176 C 
ATOM     15  C   UNL     1       8.097   5.063  -4.670  0.00  0.00    +0.171 C 
ATOM     16  C   UNL     1       9.774   5.394  -2.983  0.00  0.00    +0.171 C 
ATOM     17  C   UNL     1       6.896   5.924  -4.992  0.00  0.00    +0.130 C 
ATOM     18  C   UNL     1      10.221   5.991  -4.313  0.00  0.00    +0.190 C 
ATOM     19  C   UNL     1       6.990   7.016  -3.942  0.00  0.00    +0.185 C 
ENDROOT
BRANCH  16   6
ATOM      6  N   UNL     1      10.442   4.146  -2.607  0.00  0.00    -0.187 N 
ATOM      8  N   UNL     1      10.080   2.982  -3.153  0.00  0.00    -0.041 NA
ATOM      9  N   UNL     1      11.740   2.676  -1.697  0.00  0.00    -0.071 NA
ATOM     10  N   UNL     1      10.880   2.083  -2.593  0.00  0.00    -0.020 NA
ATOM     20  C   UNL     1      11.451   3.957  -1.723  0.00  0.00    +0.342 A 
BRANCH  20   3
ATOM      3  O   UNL     1      12.028   4.911  -1.016  0.00  0.00    -0.423 OA
BRANCH   3  25
ATOM     25  C   UNL     1      11.781   5.091   0.338  0.00  0.00    +0.132 A 
ATOM     28  C   UNL     1      12.778   5.614   1.138  0.00  0.00    +0.048 A 
ATOM     29  C   UNL     1      10.544   4.740   0.846  0.00  0.00    +0.048 A 
ATOM     31  C   UNL     1      12.530   5.794   2.499  0.00  0.00    +0.031 A 
ATOM     32  C   UNL     1      10.297   4.919   2.207  0.00  0.00    +0.031 A 
ATOM     33  C   UNL     1      11.289   5.446   3.033  0.00  0.00    +0.067 A 
BRANCH  33  11
ATOM     11  N   UNL     1      11.043   5.625   4.383  0.00  0.00    -0.220 N 
ATOM     12  N   UNL     1      11.745   6.500   5.127  0.00  0.00    -0.154 NA
ATOM     13  N   UNL     1      10.168   5.418   6.381  0.00  0.00    -0.222 NA
ATOM     35  C   UNL     1      10.108   4.987   5.143  0.00  0.00    +0.225 A 
ATOM     36  C   UNL     1      11.178   6.335   6.324  0.00  0.00    +0.245 A 
ENDBRANCH  33  11
ENDBRANCH   3  25
ENDBRANCH  20   3
ENDBRANCH  16   6
BRANCH  17   7
ATOM      4  O   UNL     1       4.366   6.561  -6.192  0.00  0.00    -0.270 OA
ATOM      7  N   UNL     1       5.669   5.178  -4.861  0.00  0.00    -0.304 N 
ATOM     21  C   UNL     1       4.490   5.566  -5.482  0.00  0.00    +0.244 C 
ATOM     37  H   UNL     1       5.667   4.410  -4.198  0.00  0.00    +0.149 HD
BRANCH  21  22
ATOM     22  C   UNL     1       3.306   4.705  -5.227  0.00  0.00    +0.037 A 
ATOM     23  C   UNL     1       2.256   5.216  -4.494  0.00  0.00    +0.016 A 
ATOM     24  C   UNL     1       3.295   3.421  -5.731  0.00  0.00    +0.016 A 
ATOM     26  C   UNL     1       1.145   4.408  -4.254  0.00  0.00    +0.046 A 
ATOM     27  C   UNL     1       2.184   2.612  -5.492  0.00  0.00    +0.046 A 
ATOM     30  C   UNL     1       1.109   3.106  -4.753  0.00  0.00    +0.120 A 
BRANCH  30   5
ATOM      5  O   UNL     1       0.025   2.316  -4.517  0.00  0.00    -0.495 OA
ATOM     34  C   UNL     1       0.030   1.016  -5.103  0.00  0.00    +0.277 C 
ENDBRANCH  30   5
ENDBRANCH  21  22
ENDBRANCH  17   7
TORSDOF 7
ENDMDL
MODEL 9
REMARK VINA RESULT:      -6.8      3.835      5.383
REMARK  Name = 11886250
REMARK  8 active torsions:
REMARK  status: ('A' for Active; 'I' for Inactive)
REMARK    1  A    between atoms: O_3  and  C_20
REMARK    2  A    between atoms: O_3  and  C_25
REMARK    3  A    between atoms: O_5  and  C_30
REMARK    4  A    between atoms: O_5  and  C_34
REMARK    5  A    between atoms: N_6  and  C_16
REMARK    6  A    between atoms: N_7  and  C_17
REMARK    7  A    between atoms: N_11  and  C_33
REMARK    8  A    between atoms: C_21  and  C_22
REMARK                            x       y       z     vdW  Elec       q    Type
REMARK                         _______ _______ _______ _____ _____    ______ ____
ROOT
ATOM      1  O   UNL     1      12.768   6.912  19.302  0.00  0.00    -0.370 OA
ATOM      2  O   UNL     1      13.965   9.451  20.721  0.00  0.00    -0.370 OA
ATOM     14  C   UNL     1      14.111   8.878  19.408  0.00  0.00    +0.176 C 
ATOM     15  C   UNL     1      14.101   7.371  19.573  0.00  0.00    +0.171 C 
ATOM     16  C   UNL     1      12.882   9.182  18.573  0.00  0.00    +0.171 C 
ATOM     17  C   UNL     1      14.446   7.152  21.030  0.00  0.00    +0.130 C 
ATOM     18  C   UNL     1      11.952   8.019  18.896  0.00  0.00    +0.190 C 
ATOM     19  C   UNL     1      13.874   8.395  21.687  0.00  0.00    +0.185 C 
ENDROOT
BRANCH  16   6
ATOM      6  N   UNL     1      13.196   9.350  17.152  0.00  0.00    -0.187 N 
ATOM      8  N   UNL     1      13.038   8.341  16.290  0.00  0.00    -0.041 NA
ATOM      9  N   UNL     1      13.802  10.152  15.238  0.00  0.00    -0.071 NA
ATOM     10  N   UNL     1      13.410   8.838  15.117  0.00  0.00    -0.020 NA
ATOM     20  C   UNL     1      13.660  10.448  16.509  0.00  0.00    +0.342 A 
BRANCH  20   3
ATOM      3  O   UNL     1      13.921  11.608  17.083  0.00  0.00    -0.423 OA
BRANCH   3  25
ATOM     25  C   UNL     1      15.214  12.029  17.361  0.00  0.00    +0.132 A 
ATOM     28  C   UNL     1      16.011  12.477  16.324  0.00  0.00    +0.048 A 
ATOM     29  C   UNL     1      15.667  11.988  18.666  0.00  0.00    +0.048 A 
ATOM     31  C   UNL     1      17.311  12.898  16.603  0.00  0.00    +0.031 A 
ATOM     32  C   UNL     1      16.967  12.410  18.944  0.00  0.00    +0.031 A 
ATOM     33  C   UNL     1      17.789  12.866  17.913  0.00  0.00    +0.067 A 
BRANCH  33  11
ATOM     11  N   UNL     1      19.078  13.285  18.190  0.00  0.00    -0.220 N 
ATOM     12  N   UNL     1      19.725  12.910  19.308  0.00  0.00    -0.154 NA
ATOM     13  N   UNL     1      21.026  14.273  18.011  0.00  0.00    -0.222 NA
ATOM     35  C   UNL     1      19.863  14.097  17.427  0.00  0.00    +0.225 A 
ATOM     36  C   UNL     1      20.895  13.534  19.151  0.00  0.00    +0.245 A 
ENDBRANCH  33  11
ENDBRANCH   3  25
ENDBRANCH  20   3
ENDBRANCH  16   6
BRANCH  17   7
ATOM      4  O   UNL     1      16.333   5.840  19.309  0.00  0.00    -0.270 OA
ATOM      7  N   UNL     1      15.873   7.068  21.222  0.00  0.00    -0.304 N 
ATOM     21  C   UNL     1      16.708   6.410  20.331  0.00  0.00    +0.244 C 
ATOM     37  H   UNL     1      16.237   7.415  22.103  0.00  0.00    +0.149 HD
BRANCH  21  22
ATOM     22  C   UNL     1      18.151   6.390  20.685  0.00  0.00    +0.037 A 
ATOM     23  C   UNL     1      18.629   7.320  21.585  0.00  0.00    +0.016 A 
ATOM     24  C   UNL     1      18.967   5.443  20.101  0.00  0.00    +0.016 A 
ATOM     26  C   UNL     1      19.984   7.302  21.916  0.00  0.00    +0.046 A 
ATOM     27  C   UNL     1      20.322   5.424  20.434  0.00  0.00    +0.046 A 
ATOM     30  C   UNL     1      20.830   6.354  21.341  0.00  0.00    +0.120 A 
BRANCH  30   5
ATOM      5  O   UNL     1      22.153   6.338  21.663  0.00  0.00    -0.495 OA
ATOM     34  C   UNL     1      22.890   5.166  21.320  0.00  0.00    +0.277 C 
ENDBRANCH  30   5
ENDBRANCH  21  22
ENDBRANCH  17   7
TORSDOF 7
ENDMDL
MODEL 10
REMARK VINA RESULT:      -6.8      6.957     10.302
REMARK  Name = 11886250
REMARK  8 active torsions:
REMARK  status: ('A' for Active; 'I' for Inactive)
REMARK    1  A    between atoms: O_3  and  C_20
REMARK    2  A    between atoms: O_3  and  C_25
REMARK    3  A    between atoms: O_5  and  C_30
REMARK    4  A    between atoms: O_5  and  C_34
REMARK    5  A    between atoms: N_6  and  C_16
REMARK    6  A    between atoms: N_7  and  C_17
REMARK    7  A    between atoms: N_11  and  C_33
REMARK    8  A    between atoms: C_21  and  C_22
REMARK                            x       y       z     vdW  Elec       q    Type
REMARK                         _______ _______ _______ _____ _____    ______ ____
ROOT
ATOM      1  O   UNL     1      14.594  14.671  26.154  0.00  0.00    -0.370 OA
ATOM      2  O   UNL     1      14.258  11.544  26.182  0.00  0.00    -0.370 OA
ATOM     14  C   UNL     1      13.341  12.646  26.047  0.00  0.00    +0.176 C 
ATOM     15  C   UNL     1      13.835  13.754  26.957  0.00  0.00    +0.171 C 
ATOM     16  C   UNL     1      13.435  13.225  24.648  0.00  0.00    +0.171 C 
ATOM     17  C   UNL     1      14.738  13.051  27.945  0.00  0.00    +0.130 C 
ATOM     18  C   UNL     1      14.545  14.262  24.780  0.00  0.00    +0.190 C 
ATOM     19  C   UNL     1      15.281  11.896  27.123  0.00  0.00    +0.185 C 
ENDROOT
BRANCH  16   6
ATOM      6  N   UNL     1      12.152  13.748  24.170  0.00  0.00    -0.187 N 
ATOM      8  N   UNL     1      11.953  15.062  24.036  0.00  0.00    -0.041 NA
ATOM      9  N   UNL     1      10.124  13.933  23.446  0.00  0.00    -0.071 NA
ATOM     10  N   UNL     1      10.708  15.171  23.591  0.00  0.00    -0.020 NA
ATOM     20  C   UNL     1      11.039  13.065  23.810  0.00  0.00    +0.342 A 
BRANCH  20   3
ATOM      3  O   UNL     1      10.916  11.751  23.833  0.00  0.00    -0.423 OA
BRANCH   3  25
ATOM     25  C   UNL     1      11.172  10.957  22.724  0.00  0.00    +0.132 A 
ATOM     28  C   UNL     1      11.931  11.472  21.690  0.00  0.00    +0.048 A 
ATOM     29  C   UNL     1      10.659   9.674  22.685  0.00  0.00    +0.048 A 
ATOM     31  C   UNL     1      12.186  10.676  20.575  0.00  0.00    +0.031 A 
ATOM     32  C   UNL     1      10.915   8.877  21.568  0.00  0.00    +0.031 A 
ATOM     33  C   UNL     1      11.679   9.378  20.514  0.00  0.00    +0.067 A 
BRANCH  33  11
ATOM     11  N   UNL     1      11.933   8.587  19.408  0.00  0.00    -0.220 N 
ATOM     12  N   UNL     1      12.943   7.698  19.383  0.00  0.00    -0.154 NA
ATOM     13  N   UNL     1      11.779   7.690  17.414  0.00  0.00    -0.222 NA
ATOM     35  C   UNL     1      11.249   8.572  18.229  0.00  0.00    +0.225 A 
ATOM     36  C   UNL     1      12.806   7.185  18.159  0.00  0.00    +0.245 A 
ENDBRANCH  33  11
ENDBRANCH   3  25
ENDBRANCH  20   3
ENDBRANCH  16   6
BRANCH  17   7
ATOM      4  O   UNL     1      15.761  12.596  30.590  0.00  0.00    -0.270 OA
ATOM      7  N   UNL     1      13.994  12.576  29.086  0.00  0.00    -0.304 N 
ATOM     21  C   UNL     1      14.578  12.386  30.331  0.00  0.00    +0.244 C 
ATOM     37  H   UNL     1      13.041  12.272  28.917  0.00  0.00    +0.149 HD
BRANCH  21  22
ATOM     22  C   UNL     1      13.683  11.867  31.397  0.00  0.00    +0.037 A 
ATOM     23  C   UNL     1      12.838  12.744  32.044  0.00  0.00    +0.016 A 
ATOM     24  C   UNL     1      13.726  10.523  31.706  0.00  0.00    +0.016 A 
ATOM     26  C   UNL     1      11.998  12.256  33.045  0.00  0.00    +0.046 A 
ATOM     27  C   UNL     1      12.885  10.034  32.706  0.00  0.00    +0.046 A 
ATOM     30  C   UNL     1      12.022  10.902  33.376  0.00  0.00    +0.120 A 
BRANCH  30   5
ATOM      5  O   UNL     1      11.203  10.425  34.355  0.00  0.00    -0.495 OA
ATOM     34  C   UNL     1      10.895  11.310  35.431  0.00  0.00    +0.277 C 
ENDBRANCH  30   5
ENDBRANCH  21  22
ENDBRANCH  17   7
TORSDOF 7
ENDMDL
