MODEL 1
REMARK VINA RESULT:      -7.2      0.000      0.000
REMARK  Name = 45783436
REMARK  11 active torsions:
REMARK  status: ('A' for Active; 'I' for Inactive)
REMARK    1  A    between atoms: O_2  and  C_26
REMARK    2  A    between atoms: O_2  and  C_29
REMARK    3  A    between atoms: O_3  and  C_25
REMARK    4  A    between atoms: O_5  and  C_30
REMARK    5  A    between atoms: O_5  and  C_31
REMARK    6  A    between atoms: N_6  and  C_14
REMARK    7  A    between atoms: C_10  and  C_15
REMARK    8  A    between atoms: C_14  and  C_16
REMARK    9  A    between atoms: C_19  and  C_23
REMARK   10  A    between atoms: C_22  and  C_25
REMARK   11  A    between atoms: C_29  and  C_30
REMARK                            x       y       z     vdW  Elec       q    Type
REMARK                         _______ _______ _______ _____ _____    ______ ____
ROOT
ATOM      6  N   UNL     1      12.622   8.479  18.705  0.00  0.00    -0.287 NA
ATOM     10  C   UNL     1      13.579   7.423  18.319  0.00  0.00    +0.146 C 
ATOM     11  C   UNL     1      14.127   7.872  16.952  0.00  0.00    +0.030 C 
ATOM     12  C   UNL     1      13.376   9.154  16.624  0.00  0.00    +0.017 C 
ATOM     13  C   UNL     1      12.114   9.052  17.457  0.00  0.00    +0.085 C 
ENDROOT
BRANCH  10  15
ATOM      1  O   UNL     1      14.312   6.595  20.499  0.00  0.00    -0.336 OA
ATOM      7  N   UNL     1      15.933   7.572  19.300  0.00  0.00    -0.189 NA
ATOM      8  N   UNL     1      15.471   6.528  21.283  0.00  0.00    -0.054 NA
ATOM     15  C   UNL     1      14.672   7.223  19.349  0.00  0.00    +0.245 A 
ATOM     19  C   UNL     1      16.382   7.124  20.508  0.00  0.00    +0.221 A 
BRANCH  19  23
ATOM      9  N   UNL     1      17.987   8.293  21.783  0.00  0.00    -0.252 NA
ATOM     23  C   UNL     1      17.749   7.287  20.910  0.00  0.00    +0.115 A 
ATOM     24  C   UNL     1      18.730   6.445  20.412  0.00  0.00    +0.077 A 
ATOM     26  C   UNL     1      20.039   6.648  20.835  0.00  0.00    +0.124 A 
ATOM     27  C   UNL     1      19.271   8.459  22.171  0.00  0.00    +0.115 A 
ATOM     28  C   UNL     1      20.323   7.672  21.731  0.00  0.00    +0.065 A 
BRANCH  26   2
ATOM      2  O   UNL     1      21.038   5.848  20.374  0.00  0.00    -0.490 OA
BRANCH   2  29
ATOM     29  C   UNL     1      20.927   4.451  20.642  0.00  0.00    +0.257 C 
BRANCH  29  30
ATOM     30  C   UNL     1      22.131   4.005  21.449  0.00  0.00    +0.200 C 
BRANCH  30   5
ATOM      5  O   UNL     1      21.797   4.029  22.832  0.00  0.00    -0.380 OA
ATOM     31  C   UNL     1      22.446   5.098  23.506  0.00  0.00    +0.194 C 
ENDBRANCH  30   5
ENDBRANCH  29  30
ENDBRANCH   2  29
ENDBRANCH  26   2
ENDBRANCH  19  23
ENDBRANCH  10  15
BRANCH   6  14
ATOM     14  C   UNL     1      11.548   7.995  19.562  0.00  0.00    +0.120 C 
BRANCH  14  16
ATOM     16  C   UNL     1      11.376   8.855  20.786  0.00  0.00    -0.033 A 
ATOM     17  C   UNL     1      11.833  10.174  20.780  0.00  0.00    +0.006 A 
ATOM     18  C   UNL     1      10.759   8.337  21.924  0.00  0.00    +0.006 A 
ATOM     20  C   UNL     1      11.672  10.972  21.912  0.00  0.00    +0.015 A 
ATOM     21  C   UNL     1      10.599   9.135  23.057  0.00  0.00    +0.015 A 
ATOM     22  C   UNL     1      11.056  10.452  23.051  0.00  0.00    +0.059 A 
BRANCH  22  25
ATOM      4  O   UNL     1      11.505  11.155  25.294  0.00  0.00    -0.245 OA
ATOM     25  C   UNL     1      10.888  11.285  24.231  0.00  0.00    +0.337 C 
BRANCH  25   3
ATOM      3  O   UNL     1       9.955  12.259  24.052  0.00  0.00    -0.477 OA
ATOM     32  H   UNL     1       9.399  12.091  23.261  0.00  0.00    +0.295 HD
ENDBRANCH  25   3
ENDBRANCH  22  25
ENDBRANCH  14  16
ENDBRANCH   6  14
TORSDOF 10
ENDMDL
MODEL 2
REMARK VINA RESULT:      -6.9      1.652      2.071
REMARK  Name = 45783436
REMARK  11 active torsions:
REMARK  status: ('A' for Active; 'I' for Inactive)
REMARK    1  A    between atoms: O_2  and  C_26
REMARK    2  A    between atoms: O_2  and  C_29
REMARK    3  A    between atoms: O_3  and  C_25
REMARK    4  A    between atoms: O_5  and  C_30
REMARK    5  A    between atoms: O_5  and  C_31
REMARK    6  A    between atoms: N_6  and  C_14
REMARK    7  A    between atoms: C_10  and  C_15
REMARK    8  A    between atoms: C_14  and  C_16
REMARK    9  A    between atoms: C_19  and  C_23
REMARK   10  A    between atoms: C_22  and  C_25
REMARK   11  A    between atoms: C_29  and  C_30
REMARK                            x       y       z     vdW  Elec       q    Type
REMARK                         _______ _______ _______ _____ _____    ______ ____
ROOT
ATOM      6  N   UNL     1      12.529   8.539  18.605  0.00  0.00    -0.287 NA
ATOM     10  C   UNL     1      13.669   7.709  18.166  0.00  0.00    +0.146 C 
ATOM     11  C   UNL     1      13.947   8.159  16.720  0.00  0.00    +0.030 C 
ATOM     12  C   UNL     1      12.877   9.197  16.414  0.00  0.00    +0.017 C 
ATOM     13  C   UNL     1      11.771   8.870  17.398  0.00  0.00    +0.085 C 
ENDROOT
BRANCH  10  15
ATOM      1  O   UNL     1      14.931   8.983  19.828  0.00  0.00    -0.336 OA
ATOM      7  N   UNL     1      15.900   7.055  19.225  0.00  0.00    -0.189 NA
ATOM      8  N   UNL     1      16.120   8.897  20.563  0.00  0.00    -0.054 NA
ATOM     15  C   UNL     1      14.878   7.858  19.067  0.00  0.00    +0.245 A 
ATOM     19  C   UNL     1      16.635   7.734  20.152  0.00  0.00    +0.221 A 
BRANCH  19  23
ATOM      9  N   UNL     1      18.363   6.136  20.007  0.00  0.00    -0.252 NA
ATOM     23  C   UNL     1      17.879   7.222  20.649  0.00  0.00    +0.115 A 
ATOM     24  C   UNL     1      18.509   7.834  21.720  0.00  0.00    +0.077 A 
ATOM     26  C   UNL     1      19.712   7.297  22.162  0.00  0.00    +0.124 A 
ATOM     27  C   UNL     1      19.536   5.641  20.464  0.00  0.00    +0.115 A 
ATOM     28  C   UNL     1      20.243   6.180  21.528  0.00  0.00    +0.065 A 
BRANCH  26   2
ATOM      2  O   UNL     1      20.369   7.862  23.211  0.00  0.00    -0.490 OA
BRANCH   2  29
ATOM     29  C   UNL     1      20.937   6.977  24.175  0.00  0.00    +0.257 C 
BRANCH  29  30
ATOM     30  C   UNL     1      20.328   7.266  25.533  0.00  0.00    +0.200 C 
BRANCH  30   5
ATOM      5  O   UNL     1      20.530   6.141  26.381  0.00  0.00    -0.380 OA
ATOM     31  C   UNL     1      21.907   5.808  26.485  0.00  0.00    +0.194 C 
ENDBRANCH  30   5
ENDBRANCH  29  30
ENDBRANCH   2  29
ENDBRANCH  26   2
ENDBRANCH  19  23
ENDBRANCH  10  15
BRANCH   6  14
ATOM     14  C   UNL     1      11.700   7.888  19.611  0.00  0.00    +0.120 C 
BRANCH  14  16
ATOM     16  C   UNL     1      11.466   8.776  20.804  0.00  0.00    -0.033 A 
ATOM     17  C   UNL     1      11.814  10.125  20.748  0.00  0.00    +0.006 A 
ATOM     18  C   UNL     1      10.899   8.251  21.966  0.00  0.00    +0.006 A 
ATOM     20  C   UNL     1      11.597  10.949  21.852  0.00  0.00    +0.015 A 
ATOM     21  C   UNL     1      10.682   9.074  23.070  0.00  0.00    +0.015 A 
ATOM     22  C   UNL     1      11.031  10.423  23.014  0.00  0.00    +0.059 A 
BRANCH  22  25
ATOM      4  O   UNL     1      11.352  11.165  25.266  0.00  0.00    -0.245 OA
ATOM     25  C   UNL     1      10.803  11.282  24.165  0.00  0.00    +0.337 C 
BRANCH  25   3
ATOM      3  O   UNL     1       9.896  12.264  23.910  0.00  0.00    -0.477 OA
ATOM     32  H   UNL     1       9.317  12.435  24.683  0.00  0.00    +0.295 HD
ENDBRANCH  25   3
ENDBRANCH  22  25
ENDBRANCH  14  16
ENDBRANCH   6  14
TORSDOF 10
ENDMDL
MODEL 3
REMARK VINA RESULT:      -6.7      2.426      4.710
REMARK  Name = 45783436
REMARK  11 active torsions:
REMARK  status: ('A' for Active; 'I' for Inactive)
REMARK    1  A    between atoms: O_2  and  C_26
REMARK    2  A    between atoms: O_2  and  C_29
REMARK    3  A    between atoms: O_3  and  C_25
REMARK    4  A    between atoms: O_5  and  C_30
REMARK    5  A    between atoms: O_5  and  C_31
REMARK    6  A    between atoms: N_6  and  C_14
REMARK    7  A    between atoms: C_10  and  C_15
REMARK    8  A    between atoms: C_14  and  C_16
REMARK    9  A    between atoms: C_19  and  C_23
REMARK   10  A    between atoms: C_22  and  C_25
REMARK   11  A    between atoms: C_29  and  C_30
REMARK                            x       y       z     vdW  Elec       q    Type
REMARK                         _______ _______ _______ _____ _____    ______ ____
ROOT
ATOM      6  N   UNL     1      13.320  11.550  22.743  0.00  0.00    -0.287 NA
ATOM     10  C   UNL     1      14.755  11.218  22.855  0.00  0.00    +0.146 C 
ATOM     11  C   UNL     1      15.077  11.378  24.352  0.00  0.00    +0.030 C 
ATOM     12  C   UNL     1      13.782  11.862  24.988  0.00  0.00    +0.017 C 
ATOM     13  C   UNL     1      13.025  12.482  23.831  0.00  0.00    +0.085 C 
ENDROOT
BRANCH  10  15
ATOM      1  O   UNL     1      14.247   8.829  22.731  0.00  0.00    -0.336 OA
ATOM      7  N   UNL     1      16.046   9.444  21.547  0.00  0.00    -0.189 NA
ATOM      8  N   UNL     1      14.736   7.662  22.133  0.00  0.00    -0.054 NA
ATOM     15  C   UNL     1      15.074   9.832  22.334  0.00  0.00    +0.245 A 
ATOM     19  C   UNL     1      15.797   8.106  21.452  0.00  0.00    +0.221 A 
BRANCH  19  23
ATOM      9  N   UNL     1      16.036   6.686  19.583  0.00  0.00    -0.252 NA
ATOM     23  C   UNL     1      16.627   7.240  20.665  0.00  0.00    +0.115 A 
ATOM     24  C   UNL     1      17.945   7.014  21.030  0.00  0.00    +0.077 A 
ATOM     26  C   UNL     1      18.704   6.165  20.233  0.00  0.00    +0.124 A 
ATOM     27  C   UNL     1      16.805   5.866  18.832  0.00  0.00    +0.115 A 
ATOM     28  C   UNL     1      18.131   5.576  19.111  0.00  0.00    +0.065 A 
BRANCH  26   2
ATOM      2  O   UNL     1      20.003   5.911  20.548  0.00  0.00    -0.490 OA
BRANCH   2  29
ATOM     29  C   UNL     1      20.610   6.754  21.527  0.00  0.00    +0.257 C 
BRANCH  29  30
ATOM     30  C   UNL     1      21.144   5.895  22.657  0.00  0.00    +0.200 C 
BRANCH  30   5
ATOM      5  O   UNL     1      20.593   6.352  23.887  0.00  0.00    -0.380 OA
ATOM     31  C   UNL     1      20.361   7.753  23.864  0.00  0.00    +0.194 C 
ENDBRANCH  30   5
ENDBRANCH  29  30
ENDBRANCH   2  29
ENDBRANCH  26   2
ENDBRANCH  19  23
ENDBRANCH  10  15
BRANCH   6  14
ATOM     14  C   UNL     1      12.958  12.094  21.441  0.00  0.00    +0.120 C 
BRANCH  14  16
ATOM     16  C   UNL     1      12.612  11.010  20.455  0.00  0.00    -0.033 A 
ATOM     17  C   UNL     1      13.198  11.006  19.189  0.00  0.00    +0.006 A 
ATOM     18  C   UNL     1      11.708  10.008  20.807  0.00  0.00    +0.006 A 
ATOM     20  C   UNL     1      12.880  10.002  18.276  0.00  0.00    +0.015 A 
ATOM     21  C   UNL     1      11.388   9.003  19.894  0.00  0.00    +0.015 A 
ATOM     22  C   UNL     1      11.974   9.000  18.628  0.00  0.00    +0.059 A 
BRANCH  22  25
ATOM      4  O   UNL     1      10.838   8.059  16.744  0.00  0.00    -0.245 OA
ATOM     25  C   UNL     1      11.642   7.952  17.676  0.00  0.00    +0.337 C 
BRANCH  25   3
ATOM      3  O   UNL     1      12.324   6.798  17.915  0.00  0.00    -0.477 OA
ATOM     32  H   UNL     1      11.864   6.231  18.570  0.00  0.00    +0.295 HD
ENDBRANCH  25   3
ENDBRANCH  22  25
ENDBRANCH  14  16
ENDBRANCH   6  14
TORSDOF 10
ENDMDL
MODEL 4
REMARK VINA RESULT:      -6.7      3.805      8.029
REMARK  Name = 45783436
REMARK  11 active torsions:
REMARK  status: ('A' for Active; 'I' for Inactive)
REMARK    1  A    between atoms: O_2  and  C_26
REMARK    2  A    between atoms: O_2  and  C_29
REMARK    3  A    between atoms: O_3  and  C_25
REMARK    4  A    between atoms: O_5  and  C_30
REMARK    5  A    between atoms: O_5  and  C_31
REMARK    6  A    between atoms: N_6  and  C_14
REMARK    7  A    between atoms: C_10  and  C_15
REMARK    8  A    between atoms: C_14  and  C_16
REMARK    9  A    between atoms: C_19  and  C_23
REMARK   10  A    between atoms: C_22  and  C_25
REMARK   11  A    between atoms: C_29  and  C_30
REMARK                            x       y       z     vdW  Elec       q    Type
REMARK                         _______ _______ _______ _____ _____    ______ ____
ROOT
ATOM      6  N   UNL     1      13.581   8.079  20.272  0.00  0.00    -0.287 NA
ATOM     10  C   UNL     1      12.429   8.448  19.425  0.00  0.00    +0.146 C 
ATOM     11  C   UNL     1      11.725   9.581  20.195  0.00  0.00    +0.030 C 
ATOM     12  C   UNL     1      12.514   9.735  21.486  0.00  0.00    +0.017 C 
ATOM     13  C   UNL     1      13.199   8.393  21.649  0.00  0.00    +0.085 C 
ENDROOT
BRANCH  10  15
ATOM      1  O   UNL     1      12.583   7.973  17.032  0.00  0.00    -0.336 OA
ATOM      7  N   UNL     1      13.424   9.963  17.625  0.00  0.00    -0.189 NA
ATOM      8  N   UNL     1      13.048   8.567  15.852  0.00  0.00    -0.054 NA
ATOM     15  C   UNL     1      12.842   8.861  18.027  0.00  0.00    +0.245 A 
ATOM     19  C   UNL     1      13.530   9.737  16.284  0.00  0.00    +0.221 A 
BRANCH  19  23
ATOM      9  N   UNL     1      13.300  11.206  14.452  0.00  0.00    -0.252 NA
ATOM     23  C   UNL     1      14.121  10.701  15.401  0.00  0.00    +0.115 A 
ATOM     24  C   UNL     1      15.450  11.062  15.549  0.00  0.00    +0.077 A 
ATOM     26  C   UNL     1      15.972  12.001  14.666  0.00  0.00    +0.124 A 
ATOM     27  C   UNL     1      13.843  12.116  13.613  0.00  0.00    +0.115 A 
ATOM     28  C   UNL     1      15.160  12.543  13.677  0.00  0.00    +0.065 A 
BRANCH  26   2
ATOM      2  O   UNL     1      17.271  12.388  14.770  0.00  0.00    -0.490 OA
BRANCH   2  29
ATOM     29  C   UNL     1      17.940  12.752  13.563  0.00  0.00    +0.257 C 
BRANCH  29  30
ATOM     30  C   UNL     1      19.309  12.100  13.539  0.00  0.00    +0.200 C 
BRANCH  30   5
ATOM      5  O   UNL     1      19.518  11.415  14.769  0.00  0.00    -0.380 OA
ATOM     31  C   UNL     1      20.873  11.498  15.186  0.00  0.00    +0.194 C 
ENDBRANCH  30   5
ENDBRANCH  29  30
ENDBRANCH   2  29
ENDBRANCH  26   2
ENDBRANCH  19  23
ENDBRANCH  10  15
BRANCH   6  14
ATOM     14  C   UNL     1      13.984   6.687  20.118  0.00  0.00    +0.120 C 
BRANCH  14  16
ATOM     16  C   UNL     1      15.479   6.526  20.180  0.00  0.00    -0.033 A 
ATOM     17  C   UNL     1      16.188   6.159  19.035  0.00  0.00    +0.006 A 
ATOM     18  C   UNL     1      16.157   6.744  21.379  0.00  0.00    +0.006 A 
ATOM     20  C   UNL     1      17.574   6.010  19.092  0.00  0.00    +0.015 A 
ATOM     21  C   UNL     1      17.542   6.595  21.435  0.00  0.00    +0.015 A 
ATOM     22  C   UNL     1      18.251   6.228  20.292  0.00  0.00    +0.059 A 
BRANCH  22  25
ATOM      4  O   UNL     1      20.498   6.951  20.684  0.00  0.00    -0.245 OA
ATOM     25  C   UNL     1      19.696   6.073  20.351  0.00  0.00    +0.337 C 
BRANCH  25   3
ATOM      3  O   UNL     1      20.100   4.824  19.991  0.00  0.00    -0.477 OA
ATOM     32  H   UNL     1      20.250   4.753  19.024  0.00  0.00    +0.295 HD
ENDBRANCH  25   3
ENDBRANCH  22  25
ENDBRANCH  14  16
ENDBRANCH   6  14
TORSDOF 10
ENDMDL
MODEL 5
REMARK VINA RESULT:      -6.6     29.846     33.191
REMARK  Name = 45783436
REMARK  11 active torsions:
REMARK  status: ('A' for Active; 'I' for Inactive)
REMARK    1  A    between atoms: O_2  and  C_26
REMARK    2  A    between atoms: O_2  and  C_29
REMARK    3  A    between atoms: O_3  and  C_25
REMARK    4  A    between atoms: O_5  and  C_30
REMARK    5  A    between atoms: O_5  and  C_31
REMARK    6  A    between atoms: N_6  and  C_14
REMARK    7  A    between atoms: C_10  and  C_15
REMARK    8  A    between atoms: C_14  and  C_16
REMARK    9  A    between atoms: C_19  and  C_23
REMARK   10  A    between atoms: C_22  and  C_25
REMARK   11  A    between atoms: C_29  and  C_30
REMARK                            x       y       z     vdW  Elec       q    Type
REMARK                         _______ _______ _______ _____ _____    ______ ____
ROOT
ATOM      6  N   UNL     1     -14.197   5.590  32.391  0.00  0.00    -0.287 NA
ATOM     10  C   UNL     1     -15.629   5.950  32.411  0.00  0.00    +0.146 C 
ATOM     11  C   UNL     1     -15.653   7.471  32.176  0.00  0.00    +0.030 C 
ATOM     12  C   UNL     1     -14.191   7.885  32.098  0.00  0.00    +0.017 C 
ATOM     13  C   UNL     1     -13.467   6.778  32.836  0.00  0.00    +0.085 C 
ENDROOT
BRANCH  10  15
ATOM      1  O   UNL     1     -17.548   4.549  31.834  0.00  0.00    -0.336 OA
ATOM      7  N   UNL     1     -16.220   5.042  30.098  0.00  0.00    -0.189 NA
ATOM      8  N   UNL     1     -18.117   3.923  30.718  0.00  0.00    -0.054 NA
ATOM     15  C   UNL     1     -16.436   5.187  31.382  0.00  0.00    +0.245 A 
ATOM     19  C   UNL     1     -17.277   4.260  29.734  0.00  0.00    +0.221 A 
BRANCH  19  23
ATOM      9  N   UNL     1     -18.738   3.531  28.031  0.00  0.00    -0.252 NA
ATOM     23  C   UNL     1     -17.466   3.833  28.378  0.00  0.00    +0.115 A 
ATOM     24  C   UNL     1     -16.387   3.751  27.514  0.00  0.00    +0.077 A 
ATOM     26  C   UNL     1     -16.627   3.331  26.210  0.00  0.00    +0.124 A 
ATOM     27  C   UNL     1     -18.932   3.127  26.756  0.00  0.00    +0.115 A 
ATOM     28  C   UNL     1     -17.921   3.012  25.816  0.00  0.00    +0.065 A 
BRANCH  26   2
ATOM      2  O   UNL     1     -15.600   3.234  25.324  0.00  0.00    -0.490 OA
BRANCH   2  29
ATOM     29  C   UNL     1     -15.891   3.524  23.957  0.00  0.00    +0.257 C 
BRANCH  29  30
ATOM     30  C   UNL     1     -15.325   4.887  23.609  0.00  0.00    +0.200 C 
BRANCH  30   5
ATOM      5  O   UNL     1     -13.906   4.801  23.557  0.00  0.00    -0.380 OA
ATOM     31  C   UNL     1     -13.407   5.197  22.287  0.00  0.00    +0.194 C 
ENDBRANCH  30   5
ENDBRANCH  29  30
ENDBRANCH   2  29
ENDBRANCH  26   2
ENDBRANCH  19  23
ENDBRANCH  10  15
BRANCH   6  14
ATOM     14  C   UNL     1     -13.889   4.420  33.204  0.00  0.00    +0.120 C 
BRANCH  14  16
ATOM     16  C   UNL     1     -14.058   3.140  32.430  0.00  0.00    -0.033 A 
ATOM     17  C   UNL     1     -13.529   3.028  31.144  0.00  0.00    +0.006 A 
ATOM     18  C   UNL     1     -14.742   2.065  32.999  0.00  0.00    +0.006 A 
ATOM     20  C   UNL     1     -13.684   1.842  30.427  0.00  0.00    +0.015 A 
ATOM     21  C   UNL     1     -14.897   0.879  32.281  0.00  0.00    +0.015 A 
ATOM     22  C   UNL     1     -14.369   0.767  30.996  0.00  0.00    +0.059 A 
BRANCH  22  25
ATOM      4  O   UNL     1     -13.934  -0.761  29.207  0.00  0.00    -0.245 OA
ATOM     25  C   UNL     1     -14.530  -0.470  30.249  0.00  0.00    +0.337 C 
BRANCH  25   3
ATOM      3  O   UNL     1     -15.433  -1.311  30.824  0.00  0.00    -0.477 OA
ATOM     32  H   UNL     1     -15.260  -1.432  31.782  0.00  0.00    +0.295 HD
ENDBRANCH  25   3
ENDBRANCH  22  25
ENDBRANCH  14  16
ENDBRANCH   6  14
TORSDOF 10
ENDMDL
MODEL 6
REMARK VINA RESULT:      -6.5     26.319     29.875
REMARK  Name = 45783436
REMARK  11 active torsions:
REMARK  status: ('A' for Active; 'I' for Inactive)
REMARK    1  A    between atoms: O_2  and  C_26
REMARK    2  A    between atoms: O_2  and  C_29
REMARK    3  A    between atoms: O_3  and  C_25
REMARK    4  A    between atoms: O_5  and  C_30
REMARK    5  A    between atoms: O_5  and  C_31
REMARK    6  A    between atoms: N_6  and  C_14
REMARK    7  A    between atoms: C_10  and  C_15
REMARK    8  A    between atoms: C_14  and  C_16
REMARK    9  A    between atoms: C_19  and  C_23
REMARK   10  A    between atoms: C_22  and  C_25
REMARK   11  A    between atoms: C_29  and  C_30
REMARK                            x       y       z     vdW  Elec       q    Type
REMARK                         _______ _______ _______ _____ _____    ______ ____
ROOT
ATOM      6  N   UNL     1      -3.109 -10.792  14.425  0.00  0.00    -0.287 NA
ATOM     10  C   UNL     1      -2.945 -11.321  15.794  0.00  0.00    +0.146 C 
ATOM     11  C   UNL     1      -1.684 -10.623  16.334  0.00  0.00    +0.030 C 
ATOM     12  C   UNL     1      -1.175  -9.771  15.180  0.00  0.00    +0.017 C 
ATOM     13  C   UNL     1      -1.769 -10.438  13.956  0.00  0.00    +0.085 C 
ENDROOT
BRANCH  10  15
ATOM      1  O   UNL     1      -4.033 -11.366  17.983  0.00  0.00    -0.336 OA
ATOM      7  N   UNL     1      -5.347 -10.630  16.324  0.00  0.00    -0.189 NA
ATOM      8  N   UNL     1      -5.270 -11.068  18.568  0.00  0.00    -0.054 NA
ATOM     15  C   UNL     1      -4.164 -11.079  16.661  0.00  0.00    +0.245 A 
ATOM     19  C   UNL     1      -5.990 -10.640  17.526  0.00  0.00    +0.221 A 
BRANCH  19  23
ATOM      9  N   UNL     1      -8.100 -10.901  18.549  0.00  0.00    -0.252 NA
ATOM     23  C   UNL     1      -7.354 -10.214  17.655  0.00  0.00    +0.115 A 
ATOM     24  C   UNL     1      -7.833  -9.163  16.891  0.00  0.00    +0.077 A 
ATOM     26  C   UNL     1      -9.163  -8.792  17.054  0.00  0.00    +0.124 A 
ATOM     27  C   UNL     1      -9.388 -10.512  18.681  0.00  0.00    +0.115 A 
ATOM     28  C   UNL     1      -9.962  -9.473  17.965  0.00  0.00    +0.065 A 
BRANCH  26   2
ATOM      2  O   UNL     1      -9.680  -7.765  16.327  0.00  0.00    -0.490 OA
BRANCH   2  29
ATOM     29  C   UNL     1     -10.885  -7.171  16.808  0.00  0.00    +0.257 C 
BRANCH  29  30
ATOM     30  C   UNL     1     -11.201  -5.945  15.972  0.00  0.00    +0.200 C 
BRANCH  30   5
ATOM      5  O   UNL     1     -11.608  -6.362  14.673  0.00  0.00    -0.380 OA
ATOM     31  C   UNL     1     -12.514  -5.436  14.090  0.00  0.00    +0.194 C 
ENDBRANCH  30   5
ENDBRANCH  29  30
ENDBRANCH   2  29
ENDBRANCH  26   2
ENDBRANCH  19  23
ENDBRANCH  10  15
BRANCH   6  14
ATOM     14  C   UNL     1      -3.775 -11.725  13.525  0.00  0.00    +0.120 C 
BRANCH  14  16
ATOM     16  C   UNL     1      -4.188 -11.065  12.237  0.00  0.00    -0.033 A 
ATOM     17  C   UNL     1      -3.659 -11.509  11.025  0.00  0.00    +0.006 A 
ATOM     18  C   UNL     1      -5.101 -10.010  12.253  0.00  0.00    +0.006 A 
ATOM     20  C   UNL     1      -4.041 -10.899   9.831  0.00  0.00    +0.015 A 
ATOM     21  C   UNL     1      -5.483  -9.399  11.059  0.00  0.00    +0.015 A 
ATOM     22  C   UNL     1      -4.954  -9.843   9.848  0.00  0.00    +0.059 A 
BRANCH  22  25
ATOM      4  O   UNL     1      -5.340  -9.740   7.489  0.00  0.00    -0.245 OA
ATOM     25  C   UNL     1      -5.353  -9.207   8.603  0.00  0.00    +0.337 C 
BRANCH  25   3
ATOM      3  O   UNL     1      -5.759  -7.920   8.784  0.00  0.00    -0.477 OA
ATOM     32  H   UNL     1      -6.489  -7.856   9.437  0.00  0.00    +0.295 HD
ENDBRANCH  25   3
ENDBRANCH  22  25
ENDBRANCH  14  16
ENDBRANCH   6  14
TORSDOF 10
ENDMDL
MODEL 7
REMARK VINA RESULT:      -6.4     27.438     29.703
REMARK  Name = 45783436
REMARK  11 active torsions:
REMARK  status: ('A' for Active; 'I' for Inactive)
REMARK    1  A    between atoms: O_2  and  C_26
REMARK    2  A    between atoms: O_2  and  C_29
REMARK    3  A    between atoms: O_3  and  C_25
REMARK    4  A    between atoms: O_5  and  C_30
REMARK    5  A    between atoms: O_5  and  C_31
REMARK    6  A    between atoms: N_6  and  C_14
REMARK    7  A    between atoms: C_10  and  C_15
REMARK    8  A    between atoms: C_14  and  C_16
REMARK    9  A    between atoms: C_19  and  C_23
REMARK   10  A    between atoms: C_22  and  C_25
REMARK   11  A    between atoms: C_29  and  C_30
REMARK                            x       y       z     vdW  Elec       q    Type
REMARK                         _______ _______ _______ _____ _____    ______ ____
ROOT
ATOM      6  N   UNL     1      -3.361 -11.810  14.024  0.00  0.00    -0.287 NA
ATOM     10  C   UNL     1      -2.433 -11.763  12.876  0.00  0.00    +0.146 C 
ATOM     11  C   UNL     1      -2.244 -13.236  12.467  0.00  0.00    +0.030 C 
ATOM     12  C   UNL     1      -3.052 -14.037  13.477  0.00  0.00    +0.017 C 
ATOM     13  C   UNL     1      -3.155 -13.107  14.669  0.00  0.00    +0.085 C 
ENDROOT
BRANCH  10  15
ATOM      1  O   UNL     1      -2.138  -9.901  11.321  0.00  0.00    -0.336 OA
ATOM      7  N   UNL     1      -4.089 -10.979  11.097  0.00  0.00    -0.189 NA
ATOM      8  N   UNL     1      -2.824  -9.255  10.284  0.00  0.00    -0.054 NA
ATOM     15  C   UNL     1      -2.953 -10.904  11.743  0.00  0.00    +0.245 A 
ATOM     19  C   UNL     1      -3.964  -9.948  10.212  0.00  0.00    +0.221 A 
BRANCH  19  23
ATOM      9  N   UNL     1      -4.925 -10.290   8.085  0.00  0.00    -0.252 NA
ATOM     23  C   UNL     1      -4.997  -9.637   9.267  0.00  0.00    +0.115 A 
ATOM     24  C   UNL     1      -5.986  -8.721   9.587  0.00  0.00    +0.077 A 
ATOM     26  C   UNL     1      -6.962  -8.456   8.634  0.00  0.00    +0.124 A 
ATOM     27  C   UNL     1      -5.892 -10.007   7.183  0.00  0.00    +0.115 A 
ATOM     28  C   UNL     1      -6.922  -9.108   7.406  0.00  0.00    +0.065 A 
BRANCH  26   2
ATOM      2  O   UNL     1      -7.954  -7.564   8.901  0.00  0.00    -0.490 OA
BRANCH   2  29
ATOM     29  C   UNL     1      -8.058  -6.431   8.040  0.00  0.00    +0.257 C 
BRANCH  29  30
ATOM     30  C   UNL     1      -9.446  -5.834   8.173  0.00  0.00    +0.200 C 
BRANCH  30   5
ATOM      5  O   UNL     1      -9.337  -4.529   8.732  0.00  0.00    -0.380 OA
ATOM     31  C   UNL     1     -10.611  -4.002   9.074  0.00  0.00    +0.194 C 
ENDBRANCH  30   5
ENDBRANCH  29  30
ENDBRANCH   2  29
ENDBRANCH  26   2
ENDBRANCH  19  23
ENDBRANCH  10  15
BRANCH   6  14
ATOM     14  C   UNL     1      -3.181 -10.701  14.953  0.00  0.00    +0.120 C 
BRANCH  14  16
ATOM     16  C   UNL     1      -4.327 -10.590  15.923  0.00  0.00    -0.033 A 
ATOM     17  C   UNL     1      -4.121 -10.851  17.278  0.00  0.00    +0.006 A 
ATOM     18  C   UNL     1      -5.594 -10.224  15.468  0.00  0.00    +0.006 A 
ATOM     20  C   UNL     1      -5.181 -10.747  18.177  0.00  0.00    +0.015 A 
ATOM     21  C   UNL     1      -6.655 -10.121  16.368  0.00  0.00    +0.015 A 
ATOM     22  C   UNL     1      -6.449 -10.382  17.722  0.00  0.00    +0.059 A 
BRANCH  22  25
ATOM      4  O   UNL     1      -8.742 -10.119  18.354  0.00  0.00    -0.245 OA
ATOM     25  C   UNL     1      -7.555 -10.273  18.660  0.00  0.00    +0.337 C 
BRANCH  25   3
ATOM      3  O   UNL     1      -7.148 -10.359  19.956  0.00  0.00    -0.477 OA
ATOM     32  H   UNL     1      -7.520  -9.636  20.504  0.00  0.00    +0.295 HD
ENDBRANCH  25   3
ENDBRANCH  22  25
ENDBRANCH  14  16
ENDBRANCH   6  14
TORSDOF 10
ENDMDL
MODEL 8
REMARK VINA RESULT:      -6.4      4.587      7.690
REMARK  Name = 45783436
REMARK  11 active torsions:
REMARK  status: ('A' for Active; 'I' for Inactive)
REMARK    1  A    between atoms: O_2  and  C_26
REMARK    2  A    between atoms: O_2  and  C_29
REMARK    3  A    between atoms: O_3  and  C_25
REMARK    4  A    between atoms: O_5  and  C_30
REMARK    5  A    between atoms: O_5  and  C_31
REMARK    6  A    between atoms: N_6  and  C_14
REMARK    7  A    between atoms: C_10  and  C_15
REMARK    8  A    between atoms: C_14  and  C_16
REMARK    9  A    between atoms: C_19  and  C_23
REMARK   10  A    between atoms: C_22  and  C_25
REMARK   11  A    between atoms: C_29  and  C_30
REMARK                            x       y       z     vdW  Elec       q    Type
REMARK                         _______ _______ _______ _____ _____    ______ ____
ROOT
ATOM      6  N   UNL     1      13.508   7.942  18.927  0.00  0.00    -0.287 NA
ATOM     10  C   UNL     1      12.893   8.069  17.590  0.00  0.00    +0.146 C 
ATOM     11  C   UNL     1      11.474   8.600  17.862  0.00  0.00    +0.030 C 
ATOM     12  C   UNL     1      11.362   8.680  19.378  0.00  0.00    +0.017 C 
ATOM     13  C   UNL     1      12.412   7.702  19.865  0.00  0.00    +0.085 C 
ENDROOT
BRANCH  10  15
ATOM      1  O   UNL     1      13.908   8.505  15.409  0.00  0.00    -0.336 OA
ATOM      7  N   UNL     1      14.205  10.150  16.901  0.00  0.00    -0.189 NA
ATOM      8  N   UNL     1      14.650   9.496  14.755  0.00  0.00    -0.054 NA
ATOM     15  C   UNL     1      13.687   8.970  16.667  0.00  0.00    +0.245 A 
ATOM     19  C   UNL     1      14.785  10.432  15.700  0.00  0.00    +0.221 A 
BRANCH  19  23
ATOM      9  N   UNL     1      14.773  12.790  15.655  0.00  0.00    -0.252 NA
ATOM     23  C   UNL     1      15.492  11.660  15.474  0.00  0.00    +0.115 A 
ATOM     24  C   UNL     1      16.824  11.640  15.096  0.00  0.00    +0.077 A 
ATOM     26  C   UNL     1      17.461  12.859  14.889  0.00  0.00    +0.124 A 
ATOM     27  C   UNL     1      15.426  13.956  15.446  0.00  0.00    +0.115 A 
ATOM     28  C   UNL     1      16.755  14.044  15.066  0.00  0.00    +0.065 A 
BRANCH  26   2
ATOM      2  O   UNL     1      18.769  12.892  14.517  0.00  0.00    -0.490 OA
BRANCH   2  29
ATOM     29  C   UNL     1      19.397  11.642  14.237  0.00  0.00    +0.257 C 
BRANCH  29  30
ATOM     30  C   UNL     1      20.522  11.864  13.244  0.00  0.00    +0.200 C 
BRANCH  30   5
ATOM      5  O   UNL     1      20.471  10.847  12.251  0.00  0.00    -0.380 OA
ATOM     31  C   UNL     1      19.981  11.350  11.016  0.00  0.00    +0.194 C 
ENDBRANCH  30   5
ENDBRANCH  29  30
ENDBRANCH   2  29
ENDBRANCH  26   2
ENDBRANCH  19  23
ENDBRANCH  10  15
BRANCH   6  14
ATOM     14  C   UNL     1      14.525   6.901  18.993  0.00  0.00    +0.120 C 
BRANCH  14  16
ATOM     16  C   UNL     1      15.759   7.367  19.721  0.00  0.00    -0.033 A 
ATOM     17  C   UNL     1      15.830   8.673  20.204  0.00  0.00    +0.006 A 
ATOM     18  C   UNL     1      16.829   6.493  19.913  0.00  0.00    +0.006 A 
ATOM     20  C   UNL     1      16.972   9.105  20.879  0.00  0.00    +0.015 A 
ATOM     21  C   UNL     1      17.971   6.925  20.587  0.00  0.00    +0.015 A 
ATOM     22  C   UNL     1      18.043   8.231  21.070  0.00  0.00    +0.059 A 
BRANCH  22  25
ATOM      4  O   UNL     1      20.151   9.343  21.279  0.00  0.00    -0.245 OA
ATOM     25  C   UNL     1      19.233   8.682  21.774  0.00  0.00    +0.337 C 
BRANCH  25   3
ATOM      3  O   UNL     1      19.243   8.294  23.079  0.00  0.00    -0.477 OA
ATOM     32  H   UNL     1      19.263   7.317  23.169  0.00  0.00    +0.295 HD
ENDBRANCH  25   3
ENDBRANCH  22  25
ENDBRANCH  14  16
ENDBRANCH   6  14
TORSDOF 10
ENDMDL
MODEL 9
REMARK VINA RESULT:      -6.3      2.718      8.438
REMARK  Name = 45783436
REMARK  11 active torsions:
REMARK  status: ('A' for Active; 'I' for Inactive)
REMARK    1  A    between atoms: O_2  and  C_26
REMARK    2  A    between atoms: O_2  and  C_29
REMARK    3  A    between atoms: O_3  and  C_25
REMARK    4  A    between atoms: O_5  and  C_30
REMARK    5  A    between atoms: O_5  and  C_31
REMARK    6  A    between atoms: N_6  and  C_14
REMARK    7  A    between atoms: C_10  and  C_15
REMARK    8  A    between atoms: C_14  and  C_16
REMARK    9  A    between atoms: C_19  and  C_23
REMARK   10  A    between atoms: C_22  and  C_25
REMARK   11  A    between atoms: C_29  and  C_30
REMARK                            x       y       z     vdW  Elec       q    Type
REMARK                         _______ _______ _______ _____ _____    ______ ____
ROOT
ATOM      6  N   UNL     1      13.080   7.704  20.028  0.00  0.00    -0.287 NA
ATOM     10  C   UNL     1      12.089   8.667  19.507  0.00  0.00    +0.146 C 
ATOM     11  C   UNL     1      10.822   8.416  20.345  0.00  0.00    +0.030 C 
ATOM     12  C   UNL     1      11.176   7.257  21.264  0.00  0.00    +0.017 C 
ATOM     13  C   UNL     1      12.318   6.567  20.546  0.00  0.00    +0.085 C 
ENDROOT
BRANCH  10  15
ATOM      1  O   UNL     1      13.137  10.616  18.468  0.00  0.00    -0.336 OA
ATOM      7  N   UNL     1      12.527  10.934  20.600  0.00  0.00    -0.189 NA
ATOM      8  N   UNL     1      13.499  11.931  18.785  0.00  0.00    -0.054 NA
ATOM     15  C   UNL     1      12.571  10.101  19.591  0.00  0.00    +0.245 A 
ATOM     19  C   UNL     1      13.107  12.043  20.058  0.00  0.00    +0.221 A 
BRANCH  19  23
ATOM      9  N   UNL     1      14.059  14.193  20.243  0.00  0.00    -0.252 NA
ATOM     23  C   UNL     1      13.279  13.249  20.815  0.00  0.00    +0.115 A 
ATOM     24  C   UNL     1      12.666  13.394  22.049  0.00  0.00    +0.077 A 
ATOM     26  C   UNL     1      12.867  14.583  22.740  0.00  0.00    +0.124 A 
ATOM     27  C   UNL     1      14.231  15.336  20.944  0.00  0.00    +0.115 A 
ATOM     28  C   UNL     1      13.662  15.578  22.185  0.00  0.00    +0.065 A 
BRANCH  26   2
ATOM      2  O   UNL     1      12.286  14.773  23.956  0.00  0.00    -0.490 OA
BRANCH   2  29
ATOM     29  C   UNL     1      12.716  13.927  25.021  0.00  0.00    +0.257 C 
BRANCH  29  30
ATOM     30  C   UNL     1      11.521  13.166  25.562  0.00  0.00    +0.200 C 
BRANCH  30   5
ATOM      5  O   UNL     1      11.810  11.772  25.540  0.00  0.00    -0.380 OA
ATOM     31  C   UNL     1      11.108  11.113  24.496  0.00  0.00    +0.194 C 
ENDBRANCH  30   5
ENDBRANCH  29  30
ENDBRANCH   2  29
ENDBRANCH  26   2
ENDBRANCH  19  23
ENDBRANCH  10  15
BRANCH   6  14
ATOM     14  C   UNL     1      14.063   7.297  19.032  0.00  0.00    +0.120 C 
BRANCH  14  16
ATOM     16  C   UNL     1      15.442   7.172  19.624  0.00  0.00    -0.033 A 
ATOM     17  C   UNL     1      16.332   6.221  19.123  0.00  0.00    +0.006 A 
ATOM     18  C   UNL     1      15.832   8.007  20.672  0.00  0.00    +0.006 A 
ATOM     20  C   UNL     1      17.609   6.106  19.669  0.00  0.00    +0.015 A 
ATOM     21  C   UNL     1      17.109   7.890  21.219  0.00  0.00    +0.015 A 
ATOM     22  C   UNL     1      17.998   6.940  20.718  0.00  0.00    +0.059 A 
BRANCH  22  25
ATOM      4  O   UNL     1      20.389   6.884  20.654  0.00  0.00    -0.245 OA
ATOM     25  C   UNL     1      19.331   6.820  21.288  0.00  0.00    +0.337 C 
BRANCH  25   3
ATOM      3  O   UNL     1      19.304   6.623  22.634  0.00  0.00    -0.477 OA
ATOM     32  H   UNL     1      18.388   6.532  22.972  0.00  0.00    +0.295 HD
ENDBRANCH  25   3
ENDBRANCH  22  25
ENDBRANCH  14  16
ENDBRANCH   6  14
TORSDOF 10
ENDMDL
MODEL 10
REMARK VINA RESULT:      -6.2     14.548     17.018
REMARK  Name = 45783436
REMARK  11 active torsions:
REMARK  status: ('A' for Active; 'I' for Inactive)
REMARK    1  A    between atoms: O_2  and  C_26
REMARK    2  A    between atoms: O_2  and  C_29
REMARK    3  A    between atoms: O_3  and  C_25
REMARK    4  A    between atoms: O_5  and  C_30
REMARK    5  A    between atoms: O_5  and  C_31
REMARK    6  A    between atoms: N_6  and  C_14
REMARK    7  A    between atoms: C_10  and  C_15
REMARK    8  A    between atoms: C_14  and  C_16
REMARK    9  A    between atoms: C_19  and  C_23
REMARK   10  A    between atoms: C_22  and  C_25
REMARK   11  A    between atoms: C_29  and  C_30
REMARK                            x       y       z     vdW  Elec       q    Type
REMARK                         _______ _______ _______ _____ _____    ______ ____
ROOT
ATOM      6  N   UNL     1       9.969   6.734   5.643  0.00  0.00    -0.287 NA
ATOM     10  C   UNL     1      10.505   7.906   6.363  0.00  0.00    +0.146 C 
ATOM     11  C   UNL     1       9.852   7.842   7.756  0.00  0.00    +0.030 C 
ATOM     12  C   UNL     1       8.921   6.640   7.704  0.00  0.00    +0.017 C 
ATOM     13  C   UNL     1       8.654   6.459   6.224  0.00  0.00    +0.085 C 
ENDROOT
BRANCH  10  15
ATOM      1  O   UNL     1      12.614   6.723   6.722  0.00  0.00    -0.336 OA
ATOM      7  N   UNL     1      12.856   8.897   6.238  0.00  0.00    -0.189 NA
ATOM      8  N   UNL     1      13.992   6.972   6.725  0.00  0.00    -0.054 NA
ATOM     15  C   UNL     1      12.018   7.909   6.426  0.00  0.00    +0.245 A 
ATOM     19  C   UNL     1      14.054   8.275   6.432  0.00  0.00    +0.221 A 
BRANCH  19  23
ATOM      9  N   UNL     1      15.238  10.311   6.566  0.00  0.00    -0.252 NA
ATOM     23  C   UNL     1      15.297   8.982   6.323  0.00  0.00    +0.115 A 
ATOM     24  C   UNL     1      16.459   8.307   5.987  0.00  0.00    +0.077 A 
ATOM     26  C   UNL     1      17.636   9.042   5.895  0.00  0.00    +0.124 A 
ATOM     27  C   UNL     1      16.402  10.992   6.467  0.00  0.00    +0.115 A 
ATOM     28  C   UNL     1      17.615  10.410   6.138  0.00  0.00    +0.065 A 
BRANCH  26   2
ATOM      2  O   UNL     1      18.803   8.424   5.568  0.00  0.00    -0.490 OA
BRANCH   2  29
ATOM     29  C   UNL     1      19.897   8.584   6.470  0.00  0.00    +0.257 C 
BRANCH  29  30
ATOM     30  C   UNL     1      20.965   7.559   6.140  0.00  0.00    +0.200 C 
BRANCH  30   5
ATOM      5  O   UNL     1      20.612   6.894   4.932  0.00  0.00    -0.380 OA
ATOM     31  C   UNL     1      21.760   6.577   4.158  0.00  0.00    +0.194 C 
ENDBRANCH  30   5
ENDBRANCH  29  30
ENDBRANCH   2  29
ENDBRANCH  26   2
ENDBRANCH  19  23
ENDBRANCH  10  15
BRANCH   6  14
ATOM     14  C   UNL     1       9.902   6.928   4.201  0.00  0.00    +0.120 C 
BRANCH  14  16
ATOM     16  C   UNL     1      10.849   6.015   3.467  0.00  0.00    -0.033 A 
ATOM     17  C   UNL     1      10.531   4.667   3.305  0.00  0.00    +0.006 A 
ATOM     18  C   UNL     1      12.042   6.518   2.949  0.00  0.00    +0.006 A 
ATOM     20  C   UNL     1      11.407   3.821   2.625  0.00  0.00    +0.015 A 
ATOM     21  C   UNL     1      12.919   5.672   2.269  0.00  0.00    +0.015 A 
ATOM     22  C   UNL     1      12.601   4.324   2.107  0.00  0.00    +0.059 A 
BRANCH  22  25
ATOM      4  O   UNL     1      14.626   3.086   1.802  0.00  0.00    -0.245 OA
ATOM     25  C   UNL     1      13.515   3.442   1.398  0.00  0.00    +0.337 C 
BRANCH  25   3
ATOM      3  O   UNL     1      13.014   3.028   0.202  0.00  0.00    -0.477 OA
ATOM     32  H   UNL     1      12.220   2.463   0.314  0.00  0.00    +0.295 HD
ENDBRANCH  25   3
ENDBRANCH  22  25
ENDBRANCH  14  16
ENDBRANCH   6  14
TORSDOF 10
ENDMDL
