REMARK  Name = 11941648
REMARK  5 active torsions:
REMARK  status: ('A' for Active; 'I' for Inactive)
REMARK    1  A    between atoms: N_5  and  C_12
REMARK    2  A    between atoms: N_6  and  C_13
REMARK    3  A    between atoms: N_7  and  C_19
REMARK    4  A    between atoms: C_18  and  C_22
REMARK    5  A    between atoms: C_19  and  C_23
REMARK                            x       y       z     vdW  Elec       q    Type
REMARK                         _______ _______ _______ _____ _____    ______ ____
ROOT
ATOM      1  O   UNL     1      -1.587  -2.861   0.559  0.00  0.00    -0.370 OA
ATOM      2  O   UNL     1      -0.406  -1.261  -1.845  0.00  0.00    -0.370 OA
ATOM     10  C   UNL     1      -0.363  -1.071  -0.421  0.00  0.00    +0.171 C 
ATOM     11  C   UNL     1      -1.711  -1.495   0.130  0.00  0.00    +0.171 C 
ATOM     12  C   UNL     1       0.613  -2.038   0.207  0.00  0.00    +0.130 C 
ATOM     13  C   UNL     1      -2.640  -1.399  -1.058  0.00  0.00    +0.131 C 
ATOM     14  C   UNL     1      -0.227  -3.288   0.390  0.00  0.00    +0.185 C 
ATOM     15  C   UNL     1      -1.716  -1.713  -2.220  0.00  0.00    +0.185 C 
ENDROOT
BRANCH  12   5
ATOM      5  N   UNL     1       1.050  -1.536   1.492  0.00  0.00    -0.306 N 
ATOM      8  N   UNL     1       2.741  -0.225   0.528  0.00  0.00    -0.211 NA
ATOM      9  N   UNL     1       2.402  -0.251   2.914  0.00  0.00    -0.223 NA
ATOM     16  C   UNL     1       2.096  -0.644   1.649  0.00  0.00    +0.216 A 
ATOM     18  C   UNL     1       3.755   0.645   0.719  0.00  0.00    +0.111 A 
ATOM     20  C   UNL     1       3.427   0.620   3.031  0.00  0.00    +0.116 A 
ATOM     21  C   UNL     1       4.146   1.106   1.959  0.00  0.00    +0.051 A 
ATOM     28  H   UNL     1       0.543  -1.800   2.328  0.00  0.00    +0.149 HD
BRANCH  18  22
ATOM      4  O   UNL     1       3.932   0.536  -1.634  0.00  0.00    -0.461 OA
ATOM     22  C   UNL     1       4.419   1.069  -0.485  0.00  0.00    +0.153 A 
ATOM     24  C   UNL     1       5.467   1.917  -0.747  0.00  0.00    +0.051 A 
ATOM     25  C   UNL     1       5.637   1.905  -2.152  0.00  0.00    +0.042 A 
ATOM     27  C   UNL     1       4.679   1.050  -2.646  0.00  0.00    +0.196 A 
ENDBRANCH  18  22
ENDBRANCH  12   5
BRANCH  13   6
ATOM      3  O   UNL     1      -5.176  -0.482  -0.027  0.00  0.00    -0.253 OA
ATOM      6  N   UNL     1      -3.200  -0.074  -1.177  0.00  0.00    -0.292 N 
ATOM      7  N   UNL     1      -4.734   1.619  -0.906  0.00  0.00    -0.296 N 
ATOM     17  C   UNL     1      -4.438   0.283  -0.647  0.00  0.00    +0.300 C 
ATOM     29  H   UNL     1      -2.639   0.651  -1.614  0.00  0.00    +0.151 HD
ATOM     30  H   UNL     1      -4.054   2.181  -1.410  0.00  0.00    +0.151 HD
BRANCH   7  19
ATOM     19  C   UNL     1      -5.957   2.249  -0.468  0.00  0.00    +0.132 C 
BRANCH  19  23
ATOM     23  C   UNL     1      -5.745   2.835   0.888  0.00  0.00    -0.016 C 
ATOM     26  C   UNL     1      -6.464   2.502   1.966  0.00  0.00    +0.005 C 
ENDBRANCH  19  23
ENDBRANCH   7  19
ENDBRANCH  13   6
TORSDOF 5
