MODEL 1
REMARK VINA RESULT:      -7.2      0.000      0.000
REMARK  Name = 25390203
REMARK  10 active torsions:
REMARK  status: ('A' for Active; 'I' for Inactive)
REMARK    1  A    between atoms: O_3  and  C_9
REMARK    2  A    between atoms: O_4  and  C_11
REMARK    3  A    between atoms: N_7  and  C_14
REMARK    4  A    between atoms: N_8  and  C_16
REMARK    5  A    between atoms: N_8  and  C_18
REMARK    6  A    between atoms: C_10  and  C_13
REMARK    7  A    between atoms: C_12  and  C_14
REMARK    8  A    between atoms: C_13  and  C_15
REMARK    9  A    between atoms: C_16  and  C_19
REMARK   10  A    between atoms: C_17  and  C_20
REMARK                            x       y       z     vdW  Elec       q    Type
REMARK                         _______ _______ _______ _____ _____    ______ ____
ROOT
ATOM      2  O   UNL     1      12.798   7.689  21.853  0.00  0.00    -0.366 OA
ATOM      9  C   UNL     1      11.216   9.429  21.496  0.00  0.00    +0.175 C 
ATOM     10  C   UNL     1      12.438   9.014  22.307  0.00  0.00    +0.159 C 
ATOM     11  C   UNL     1      11.417   8.660  20.207  0.00  0.00    +0.176 C 
ATOM     12  C   UNL     1      11.980   7.345  20.722  0.00  0.00    +0.167 C 
ENDROOT
BRANCH   9   3
ATOM      3  O   UNL     1      10.053   8.960  22.177  0.00  0.00    -0.387 OA
ATOM     31  H   UNL     1       9.405   8.699  21.499  0.00  0.00    +0.210 HD
ENDBRANCH   9   3
BRANCH  11   4
ATOM      4  O   UNL     1      10.224   8.475  19.474  0.00  0.00    -0.387 OA
ATOM     32  H   UNL     1       9.674   9.265  19.609  0.00  0.00    +0.210 HD
ENDBRANCH  11   4
BRANCH  10  13
ATOM     13  C   UNL     1      13.639   9.924  22.084  0.00  0.00    +0.130 C 
BRANCH  13  15
ATOM      5  O   UNL     1      13.397  11.439  23.924  0.00  0.00    -0.276 OA
ATOM      8  N   UNL     1      13.354  12.374  21.802  0.00  0.00    -0.300 N 
ATOM     15  C   UNL     1      13.454  11.305  22.699  0.00  0.00    +0.218 C 
ATOM     18  C   UNL     1      13.423  12.190  20.357  0.00  0.00    +0.132 C 
BRANCH   8  16
ATOM     16  C   UNL     1      13.175  13.754  22.245  0.00  0.00    +0.142 C 
BRANCH  16  19
ATOM     19  C   UNL     1      11.729  14.087  22.477  0.00  0.00    -0.030 A 
ATOM     21  C   UNL     1      11.221  14.122  23.775  0.00  0.00    +0.005 A 
ATOM     22  C   UNL     1      10.894  14.361  21.393  0.00  0.00    +0.005 A 
ATOM     25  C   UNL     1       9.878  14.431  23.991  0.00  0.00    +0.000 A 
ATOM     26  C   UNL     1       9.552  14.670  21.609  0.00  0.00    +0.000 A 
ATOM     29  C   UNL     1       9.043  14.705  22.907  0.00  0.00    +0.000 A 
ENDBRANCH  16  19
ENDBRANCH   8  16
ENDBRANCH  13  15
ENDBRANCH  10  13
BRANCH  12  14
ATOM     14  C   UNL     1      12.815   6.604  19.693  0.00  0.00    +0.138 C 
BRANCH  14   7
ATOM      6  O   UNL     1      14.934   8.284  18.728  0.00  0.00    -0.270 OA
ATOM      7  N   UNL     1      14.193   6.553  20.084  0.00  0.00    -0.309 N 
ATOM     17  C   UNL     1      15.158   7.411  19.562  0.00  0.00    +0.244 C 
ATOM     33  H   UNL     1      14.437   5.890  20.811  0.00  0.00    +0.149 HD
BRANCH  17  20
ATOM      1  F   UNL     1      19.260   4.806  19.757  0.00  0.00    -0.205 F 
ATOM     20  C   UNL     1      16.547   7.212  20.051  0.00  0.00    +0.039 A 
ATOM     23  C   UNL     1      17.265   6.080  19.668  0.00  0.00    +0.051 A 
ATOM     24  C   UNL     1      17.132   8.158  20.893  0.00  0.00    +0.013 A 
ATOM     27  C   UNL     1      18.569   5.894  20.127  0.00  0.00    +0.124 A 
ATOM     28  C   UNL     1      18.435   7.971  21.352  0.00  0.00    +0.004 A 
ATOM     30  C   UNL     1      19.154   6.839  20.970  0.00  0.00    +0.038 A 
ENDBRANCH  17  20
ENDBRANCH  14   7
ENDBRANCH  12  14
TORSDOF 9
ENDMDL
MODEL 2
REMARK VINA RESULT:      -7.0      3.512      9.500
REMARK  Name = 25390203
REMARK  10 active torsions:
REMARK  status: ('A' for Active; 'I' for Inactive)
REMARK    1  A    between atoms: O_3  and  C_9
REMARK    2  A    between atoms: O_4  and  C_11
REMARK    3  A    between atoms: N_7  and  C_14
REMARK    4  A    between atoms: N_8  and  C_16
REMARK    5  A    between atoms: N_8  and  C_18
REMARK    6  A    between atoms: C_10  and  C_13
REMARK    7  A    between atoms: C_12  and  C_14
REMARK    8  A    between atoms: C_13  and  C_15
REMARK    9  A    between atoms: C_16  and  C_19
REMARK   10  A    between atoms: C_17  and  C_20
REMARK                            x       y       z     vdW  Elec       q    Type
REMARK                         _______ _______ _______ _____ _____    ______ ____
ROOT
ATOM      2  O   UNL     1      15.020   8.458  20.899  0.00  0.00    -0.366 OA
ATOM      9  C   UNL     1      14.830   6.966  19.056  0.00  0.00    +0.175 C 
ATOM     10  C   UNL     1      15.812   7.640  20.007  0.00  0.00    +0.159 C 
ATOM     11  C   UNL     1      13.579   6.879  19.905  0.00  0.00    +0.176 C 
ATOM     12  C   UNL     1      13.627   8.200  20.655  0.00  0.00    +0.167 C 
ENDROOT
BRANCH   9   3
ATOM      3  O   UNL     1      14.617   7.839  17.948  0.00  0.00    -0.387 OA
ATOM     31  H   UNL     1      14.205   7.315  17.239  0.00  0.00    +0.210 HD
ENDBRANCH   9   3
BRANCH  11   4
ATOM      4  O   UNL     1      12.396   6.743  19.145  0.00  0.00    -0.387 OA
ATOM     32  H   UNL     1      12.229   7.597  18.710  0.00  0.00    +0.210 HD
ENDBRANCH  11   4
BRANCH  10  13
ATOM     13  C   UNL     1      16.595   6.648  20.858  0.00  0.00    +0.130 C 
BRANCH  13  15
ATOM      5  O   UNL     1      18.129   5.613  19.335  0.00  0.00    -0.276 OA
ATOM      8  N   UNL     1      19.051   6.997  20.952  0.00  0.00    -0.300 N 
ATOM     15  C   UNL     1      17.984   6.364  20.303  0.00  0.00    +0.218 C 
ATOM     18  C   UNL     1      18.855   7.881  22.096  0.00  0.00    +0.132 C 
BRANCH   8  16
ATOM     16  C   UNL     1      20.438   6.821  20.533  0.00  0.00    +0.142 C 
BRANCH  16  19
ATOM     19  C   UNL     1      21.087   5.651  21.213  0.00  0.00    -0.030 A 
ATOM     21  C   UNL     1      21.081   4.397  20.602  0.00  0.00    +0.005 A 
ATOM     22  C   UNL     1      21.696   5.818  22.457  0.00  0.00    +0.005 A 
ATOM     25  C   UNL     1      21.684   3.310  21.234  0.00  0.00    +0.000 A 
ATOM     26  C   UNL     1      22.299   4.731  23.089  0.00  0.00    +0.000 A 
ATOM     29  C   UNL     1      22.293   3.477  22.479  0.00  0.00    +0.000 A 
ENDBRANCH  16  19
ENDBRANCH   8  16
ENDBRANCH  13  15
ENDBRANCH  10  13
BRANCH  12  14
ATOM     14  C   UNL     1      12.873   8.172  21.972  0.00  0.00    +0.138 C 
BRANCH  14   7
ATOM      6  O   UNL     1      10.222   9.218  22.324  0.00  0.00    -0.270 OA
ATOM      7  N   UNL     1      12.524   9.496  22.397  0.00  0.00    -0.309 N 
ATOM     17  C   UNL     1      11.206   9.920  22.542  0.00  0.00    +0.244 C 
ATOM     33  H   UNL     1      13.291  10.112  22.646  0.00  0.00    +0.149 HD
BRANCH  17  20
ATOM      1  F   UNL     1      10.345  13.238  25.991  0.00  0.00    -0.205 F 
ATOM     20  C   UNL     1      11.012  11.331  22.966  0.00  0.00    +0.039 A 
ATOM     23  C   UNL     1      10.764  11.629  24.305  0.00  0.00    +0.051 A 
ATOM     24  C   UNL     1      11.076  12.358  22.024  0.00  0.00    +0.013 A 
ATOM     27  C   UNL     1      10.582  12.953  24.704  0.00  0.00    +0.124 A 
ATOM     28  C   UNL     1      10.894  13.682  22.422  0.00  0.00    +0.004 A 
ATOM     30  C   UNL     1      10.646  13.979  23.761  0.00  0.00    +0.038 A 
ENDBRANCH  17  20
ENDBRANCH  14   7
ENDBRANCH  12  14
TORSDOF 9
ENDMDL
MODEL 3
REMARK VINA RESULT:      -6.9      3.144      8.344
REMARK  Name = 25390203
REMARK  10 active torsions:
REMARK  status: ('A' for Active; 'I' for Inactive)
REMARK    1  A    between atoms: O_3  and  C_9
REMARK    2  A    between atoms: O_4  and  C_11
REMARK    3  A    between atoms: N_7  and  C_14
REMARK    4  A    between atoms: N_8  and  C_16
REMARK    5  A    between atoms: N_8  and  C_18
REMARK    6  A    between atoms: C_10  and  C_13
REMARK    7  A    between atoms: C_12  and  C_14
REMARK    8  A    between atoms: C_13  and  C_15
REMARK    9  A    between atoms: C_16  and  C_19
REMARK   10  A    between atoms: C_17  and  C_20
REMARK                            x       y       z     vdW  Elec       q    Type
REMARK                         _______ _______ _______ _____ _____    ______ ____
ROOT
ATOM      2  O   UNL     1      12.319   9.268  19.573  0.00  0.00    -0.366 OA
ATOM      9  C   UNL     1      12.894   7.200  18.546  0.00  0.00    +0.175 C 
ATOM     10  C   UNL     1      13.181   8.698  18.561  0.00  0.00    +0.159 C 
ATOM     11  C   UNL     1      12.458   6.949  19.975  0.00  0.00    +0.176 C 
ATOM     12  C   UNL     1      11.653   8.203  20.273  0.00  0.00    +0.167 C 
ENDROOT
BRANCH   9   3
ATOM      3  O   UNL     1      11.809   6.966  17.649  0.00  0.00    -0.387 OA
ATOM     31  H   UNL     1      12.144   6.404  16.929  0.00  0.00    +0.210 HD
ENDBRANCH   9   3
BRANCH  11   4
ATOM      4  O   UNL     1      11.687   5.775  20.126  0.00  0.00    -0.387 OA
ATOM     32  H   UNL     1      10.759   6.013  19.963  0.00  0.00    +0.210 HD
ENDBRANCH  11   4
BRANCH  10  13
ATOM     13  C   UNL     1      14.620   9.025  18.939  0.00  0.00    +0.130 C 
BRANCH  13  15
ATOM      5  O   UNL     1      15.726   6.936  18.548  0.00  0.00    -0.276 OA
ATOM      8  N   UNL     1      15.734   7.719  20.731  0.00  0.00    -0.300 N 
ATOM     15  C   UNL     1      15.409   7.797  19.373  0.00  0.00    +0.218 C 
ATOM     18  C   UNL     1      15.347   8.749  21.688  0.00  0.00    +0.132 C 
BRANCH   8  16
ATOM     16  C   UNL     1      16.488   6.601  21.293  0.00  0.00    +0.142 C 
BRANCH  16  19
ATOM     19  C   UNL     1      17.970   6.799  21.161  0.00  0.00    -0.030 A 
ATOM     21  C   UNL     1      18.737   5.878  20.448  0.00  0.00    +0.005 A 
ATOM     22  C   UNL     1      18.581   7.905  21.753  0.00  0.00    +0.005 A 
ATOM     25  C   UNL     1      20.113   6.062  20.325  0.00  0.00    +0.000 A 
ATOM     26  C   UNL     1      19.957   8.090  21.630  0.00  0.00    +0.000 A 
ATOM     29  C   UNL     1      20.724   7.169  20.917  0.00  0.00    +0.000 A 
ENDBRANCH  16  19
ENDBRANCH   8  16
ENDBRANCH  13  15
ENDBRANCH  10  13
BRANCH  12  14
ATOM     14  C   UNL     1      11.578   8.532  21.753  0.00  0.00    +0.138 C 
BRANCH  14   7
ATOM      6  O   UNL     1      12.924  10.637  23.168  0.00  0.00    -0.270 OA
ATOM      7  N   UNL     1      11.097   9.866  21.963  0.00  0.00    -0.309 N 
ATOM     17  C   UNL     1      11.819  10.827  22.664  0.00  0.00    +0.244 C 
ATOM     33  H   UNL     1      10.214  10.107  21.526  0.00  0.00    +0.149 HD
BRANCH  17  20
ATOM      1  F   UNL     1       9.983  14.360  25.456  0.00  0.00    -0.205 F 
ATOM     20  C   UNL     1      11.171  12.155  22.817  0.00  0.00    +0.039 A 
ATOM     23  C   UNL     1      10.875  12.644  24.089  0.00  0.00    +0.051 A 
ATOM     24  C   UNL     1      10.857  12.912  21.689  0.00  0.00    +0.013 A 
ATOM     27  C   UNL     1      10.266  13.890  24.234  0.00  0.00    +0.124 A 
ATOM     28  C   UNL     1      10.248  14.159  21.833  0.00  0.00    +0.004 A 
ATOM     30  C   UNL     1       9.952  14.648  23.105  0.00  0.00    +0.038 A 
ENDBRANCH  17  20
ENDBRANCH  14   7
ENDBRANCH  12  14
TORSDOF 9
ENDMDL
MODEL 4
REMARK VINA RESULT:      -6.9     27.135     28.966
REMARK  Name = 25390203
REMARK  10 active torsions:
REMARK  status: ('A' for Active; 'I' for Inactive)
REMARK    1  A    between atoms: O_3  and  C_9
REMARK    2  A    between atoms: O_4  and  C_11
REMARK    3  A    between atoms: N_7  and  C_14
REMARK    4  A    between atoms: N_8  and  C_16
REMARK    5  A    between atoms: N_8  and  C_18
REMARK    6  A    between atoms: C_10  and  C_13
REMARK    7  A    between atoms: C_12  and  C_14
REMARK    8  A    between atoms: C_13  and  C_15
REMARK    9  A    between atoms: C_16  and  C_19
REMARK   10  A    between atoms: C_17  and  C_20
REMARK                            x       y       z     vdW  Elec       q    Type
REMARK                         _______ _______ _______ _____ _____    ______ ____
ROOT
ATOM      2  O   UNL     1      -3.605 -10.130  16.655  0.00  0.00    -0.366 OA
ATOM      9  C   UNL     1      -5.125 -11.959  16.696  0.00  0.00    +0.175 C 
ATOM     10  C   UNL     1      -4.973 -10.469  16.981  0.00  0.00    +0.159 C 
ATOM     11  C   UNL     1      -4.107 -12.176  15.596  0.00  0.00    +0.176 C 
ATOM     12  C   UNL     1      -2.973 -11.270  16.048  0.00  0.00    +0.167 C 
ENDROOT
BRANCH   9   3
ATOM      3  O   UNL     1      -4.745 -12.676  17.870  0.00  0.00    -0.387 OA
ATOM     31  H   UNL     1      -4.940 -12.106  18.635  0.00  0.00    +0.210 HD
ENDBRANCH   9   3
BRANCH  11   4
ATOM      4  O   UNL     1      -3.694 -13.520  15.473  0.00  0.00    -0.387 OA
ATOM     32  H   UNL     1      -4.135 -13.890  14.689  0.00  0.00    +0.210 HD
ENDBRANCH  11   4
BRANCH  10  13
ATOM     13  C   UNL     1      -5.884  -9.602  16.122  0.00  0.00    +0.130 C 
BRANCH  13  15
ATOM      5  O   UNL     1      -7.568  -9.435  17.818  0.00  0.00    -0.276 OA
ATOM      8  N   UNL     1      -8.316  -9.762  15.647  0.00  0.00    -0.300 N 
ATOM     15  C   UNL     1      -7.324  -9.589  16.619  0.00  0.00    +0.218 C 
ATOM     18  C   UNL     1      -8.002  -9.944  14.235  0.00  0.00    +0.132 C 
BRANCH   8  16
ATOM     16  C   UNL     1      -9.739  -9.771  15.973  0.00  0.00    +0.142 C 
BRANCH  16  19
ATOM     19  C   UNL     1     -10.421  -8.503  15.551  0.00  0.00    -0.030 A 
ATOM     21  C   UNL     1     -11.344  -8.521  14.506  0.00  0.00    +0.005 A 
ATOM     22  C   UNL     1     -10.130  -7.304  16.205  0.00  0.00    +0.005 A 
ATOM     25  C   UNL     1     -11.978  -7.342  14.114  0.00  0.00    +0.000 A 
ATOM     26  C   UNL     1     -10.764  -6.126  15.812  0.00  0.00    +0.000 A 
ATOM     29  C   UNL     1     -11.688  -6.144  14.767  0.00  0.00    +0.000 A 
ENDBRANCH  16  19
ENDBRANCH   8  16
ENDBRANCH  13  15
ENDBRANCH  10  13
BRANCH  12  14
ATOM     14  C   UNL     1      -2.078 -10.813  14.910  0.00  0.00    +0.138 C 
BRANCH  14   7
ATOM      6  O   UNL     1      -2.165 -11.671  12.171  0.00  0.00    -0.270 OA
ATOM      7  N   UNL     1      -2.846 -10.224  13.852  0.00  0.00    -0.309 N 
ATOM     17  C   UNL     1      -2.828 -10.708  12.547  0.00  0.00    +0.244 C 
ATOM     33  H   UNL     1      -3.459  -9.457  14.105  0.00  0.00    +0.149 HD
BRANCH  17  20
ATOM      1  F   UNL     1      -7.054  -8.712  11.203  0.00  0.00    -0.205 F 
ATOM     20  C   UNL     1      -3.659  -9.970  11.560  0.00  0.00    +0.039 A 
ATOM     23  C   UNL     1      -4.993  -9.682  11.850  0.00  0.00    +0.051 A 
ATOM     24  C   UNL     1      -3.107  -9.567  10.345  0.00  0.00    +0.013 A 
ATOM     27  C   UNL     1      -5.774  -8.990  10.924  0.00  0.00    +0.124 A 
ATOM     28  C   UNL     1      -3.887  -8.875   9.419  0.00  0.00    +0.004 A 
ATOM     30  C   UNL     1      -5.221  -8.587   9.709  0.00  0.00    +0.038 A 
ENDBRANCH  17  20
ENDBRANCH  14   7
ENDBRANCH  12  14
TORSDOF 9
ENDMDL
MODEL 5
REMARK VINA RESULT:      -6.7      4.211      6.282
REMARK  Name = 25390203
REMARK  10 active torsions:
REMARK  status: ('A' for Active; 'I' for Inactive)
REMARK    1  A    between atoms: O_3  and  C_9
REMARK    2  A    between atoms: O_4  and  C_11
REMARK    3  A    between atoms: N_7  and  C_14
REMARK    4  A    between atoms: N_8  and  C_16
REMARK    5  A    between atoms: N_8  and  C_18
REMARK    6  A    between atoms: C_10  and  C_13
REMARK    7  A    between atoms: C_12  and  C_14
REMARK    8  A    between atoms: C_13  and  C_15
REMARK    9  A    between atoms: C_16  and  C_19
REMARK   10  A    between atoms: C_17  and  C_20
REMARK                            x       y       z     vdW  Elec       q    Type
REMARK                         _______ _______ _______ _____ _____    ______ ____
ROOT
ATOM      2  O   UNL     1      12.788   9.637  19.326  0.00  0.00    -0.366 OA
ATOM      9  C   UNL     1      12.374   7.933  17.719  0.00  0.00    +0.175 C 
ATOM     10  C   UNL     1      12.861   9.365  17.908  0.00  0.00    +0.159 C 
ATOM     11  C   UNL     1      12.746   7.297  19.042  0.00  0.00    +0.176 C 
ATOM     12  C   UNL     1      12.445   8.423  20.017  0.00  0.00    +0.167 C 
ENDROOT
BRANCH   9   3
ATOM      3  O   UNL     1      10.955   7.964  17.566  0.00  0.00    -0.387 OA
ATOM     31  H   UNL     1      10.751   7.625  16.677  0.00  0.00    +0.210 HD
ENDBRANCH   9   3
BRANCH  11   4
ATOM      4  O   UNL     1      12.002   6.132  19.332  0.00  0.00    -0.387 OA
ATOM     32  H   UNL     1      11.100   6.272  18.997  0.00  0.00    +0.210 HD
ENDBRANCH  11   4
BRANCH  10  13
ATOM     13  C   UNL     1      14.306   9.566  17.469  0.00  0.00    +0.130 C 
BRANCH  13  15
ATOM      5  O   UNL     1      14.310   9.379  15.080  0.00  0.00    -0.276 OA
ATOM      8  N   UNL     1      14.652  11.501  15.952  0.00  0.00    -0.300 N 
ATOM     15  C   UNL     1      14.420  10.125  16.057  0.00  0.00    +0.218 C 
ATOM     18  C   UNL     1      14.779  12.363  17.122  0.00  0.00    +0.132 C 
BRANCH   8  16
ATOM     16  C   UNL     1      14.784  12.177  14.664  0.00  0.00    +0.142 C 
BRANCH  16  19
ATOM     19  C   UNL     1      16.186  12.654  14.421  0.00  0.00    -0.030 A 
ATOM     21  C   UNL     1      16.430  14.003  14.161  0.00  0.00    +0.005 A 
ATOM     22  C   UNL     1      17.247  11.748  14.455  0.00  0.00    +0.005 A 
ATOM     25  C   UNL     1      17.732  14.446  13.936  0.00  0.00    +0.000 A 
ATOM     26  C   UNL     1      18.549  12.191  14.229  0.00  0.00    +0.000 A 
ATOM     29  C   UNL     1      18.793  13.539  13.969  0.00  0.00    +0.000 A 
ENDBRANCH  16  19
ENDBRANCH   8  16
ENDBRANCH  13  15
ENDBRANCH  10  13
BRANCH  12  14
ATOM     14  C   UNL     1      13.237   8.329  21.309  0.00  0.00    +0.138 C 
BRANCH  14   7
ATOM      6  O   UNL     1      15.788   9.533  20.779  0.00  0.00    -0.270 OA
ATOM      7  N   UNL     1      14.480   7.646  21.105  0.00  0.00    -0.309 N 
ATOM     17  C   UNL     1      15.675   8.313  20.853  0.00  0.00    +0.244 C 
ATOM     33  H   UNL     1      14.468   6.636  21.207  0.00  0.00    +0.149 HD
BRANCH  17  20
ATOM      1  F   UNL     1      20.185   6.943  22.050  0.00  0.00    -0.205 F 
ATOM     20  C   UNL     1      16.872   7.459  20.638  0.00  0.00    +0.039 A 
ATOM     23  C   UNL     1      17.989   7.604  21.460  0.00  0.00    +0.051 A 
ATOM     24  C   UNL     1      16.879   6.512  19.613  0.00  0.00    +0.013 A 
ATOM     27  C   UNL     1      19.113   6.803  21.259  0.00  0.00    +0.124 A 
ATOM     28  C   UNL     1      18.003   5.711  19.412  0.00  0.00    +0.004 A 
ATOM     30  C   UNL     1      19.120   5.857  20.234  0.00  0.00    +0.038 A 
ENDBRANCH  17  20
ENDBRANCH  14   7
ENDBRANCH  12  14
TORSDOF 9
ENDMDL
MODEL 6
REMARK VINA RESULT:      -6.7      1.840      2.599
REMARK  Name = 25390203
REMARK  10 active torsions:
REMARK  status: ('A' for Active; 'I' for Inactive)
REMARK    1  A    between atoms: O_3  and  C_9
REMARK    2  A    between atoms: O_4  and  C_11
REMARK    3  A    between atoms: N_7  and  C_14
REMARK    4  A    between atoms: N_8  and  C_16
REMARK    5  A    between atoms: N_8  and  C_18
REMARK    6  A    between atoms: C_10  and  C_13
REMARK    7  A    between atoms: C_12  and  C_14
REMARK    8  A    between atoms: C_13  and  C_15
REMARK    9  A    between atoms: C_16  and  C_19
REMARK   10  A    between atoms: C_17  and  C_20
REMARK                            x       y       z     vdW  Elec       q    Type
REMARK                         _______ _______ _______ _____ _____    ______ ____
ROOT
ATOM      2  O   UNL     1      12.067   9.201  19.549  0.00  0.00    -0.366 OA
ATOM      9  C   UNL     1      13.140   9.751  17.498  0.00  0.00    +0.175 C 
ATOM     10  C   UNL     1      12.669  10.307  18.837  0.00  0.00    +0.159 C 
ATOM     11  C   UNL     1      13.417   8.302  17.838  0.00  0.00    +0.176 C 
ATOM     12  C   UNL     1      12.283   7.992  18.801  0.00  0.00    +0.167 C 
ENDROOT
BRANCH   9   3
ATOM      3  O   UNL     1      12.055   9.844  16.575  0.00  0.00    -0.387 OA
ATOM     31  H   UNL     1      12.285   9.300  15.801  0.00  0.00    +0.210 HD
ENDBRANCH   9   3
BRANCH  11   4
ATOM      4  O   UNL     1      13.404   7.450  16.711  0.00  0.00    -0.387 OA
ATOM     32  H   UNL     1      12.488   7.408  16.389  0.00  0.00    +0.210 HD
ENDBRANCH  11   4
BRANCH  10  13
ATOM     13  C   UNL     1      13.809  10.844  19.693  0.00  0.00    +0.130 C 
BRANCH  13  15
ATOM      5  O   UNL     1      13.727  13.184  19.183  0.00  0.00    -0.276 OA
ATOM      8  N   UNL     1      13.369  12.594  21.398  0.00  0.00    -0.300 N 
ATOM     15  C   UNL     1      13.634  12.313  20.053  0.00  0.00    +0.218 C 
ATOM     18  C   UNL     1      13.264  11.547  22.408  0.00  0.00    +0.132 C 
BRANCH   8  16
ATOM     16  C   UNL     1      13.177  13.955  21.891  0.00  0.00    +0.142 C 
BRANCH  16  19
ATOM     19  C   UNL     1      11.753  14.212  22.290  0.00  0.00    -0.030 A 
ATOM     21  C   UNL     1      11.421  14.357  23.637  0.00  0.00    +0.005 A 
ATOM     22  C   UNL     1      10.761  14.307  21.313  0.00  0.00    +0.005 A 
ATOM     25  C   UNL     1      10.098  14.596  24.008  0.00  0.00    +0.000 A 
ATOM     26  C   UNL     1       9.438  14.546  21.684  0.00  0.00    +0.000 A 
ATOM     29  C   UNL     1       9.106  14.691  23.031  0.00  0.00    +0.000 A 
ENDBRANCH  16  19
ENDBRANCH   8  16
ENDBRANCH  13  15
ENDBRANCH  10  13
BRANCH  12  14
ATOM     14  C   UNL     1      12.596   6.851  19.752  0.00  0.00    +0.138 C 
BRANCH  14   7
ATOM      6  O   UNL     1      14.579   7.854  21.570  0.00  0.00    -0.270 OA
ATOM      7  N   UNL     1      13.996   6.542  19.748  0.00  0.00    -0.309 N 
ATOM     17  C   UNL     1      14.890   7.076  20.671  0.00  0.00    +0.244 C 
ATOM     33  H   UNL     1      14.311   5.862  19.064  0.00  0.00    +0.149 HD
BRANCH  17  20
ATOM      1  F   UNL     1      19.443   6.843  22.361  0.00  0.00    -0.205 F 
ATOM     20  C   UNL     1      16.312   6.678  20.516  0.00  0.00    +0.039 A 
ATOM     23  C   UNL     1      17.228   6.954  21.531  0.00  0.00    +0.051 A 
ATOM     24  C   UNL     1      16.732   6.030  19.354  0.00  0.00    +0.013 A 
ATOM     27  C   UNL     1      18.564   6.580  21.385  0.00  0.00    +0.124 A 
ATOM     28  C   UNL     1      18.068   5.656  19.209  0.00  0.00    +0.004 A 
ATOM     30  C   UNL     1      18.984   5.932  20.223  0.00  0.00    +0.038 A 
ENDBRANCH  17  20
ENDBRANCH  14   7
ENDBRANCH  12  14
TORSDOF 9
ENDMDL
MODEL 7
REMARK VINA RESULT:      -6.6     16.411     18.184
REMARK  Name = 25390203
REMARK  10 active torsions:
REMARK  status: ('A' for Active; 'I' for Inactive)
REMARK    1  A    between atoms: O_3  and  C_9
REMARK    2  A    between atoms: O_4  and  C_11
REMARK    3  A    between atoms: N_7  and  C_14
REMARK    4  A    between atoms: N_8  and  C_16
REMARK    5  A    between atoms: N_8  and  C_18
REMARK    6  A    between atoms: C_10  and  C_13
REMARK    7  A    between atoms: C_12  and  C_14
REMARK    8  A    between atoms: C_13  and  C_15
REMARK    9  A    between atoms: C_16  and  C_19
REMARK   10  A    between atoms: C_17  and  C_20
REMARK                            x       y       z     vdW  Elec       q    Type
REMARK                         _______ _______ _______ _____ _____    ______ ____
ROOT
ATOM      2  O   UNL     1      11.033   6.911   7.291  0.00  0.00    -0.366 OA
ATOM      9  C   UNL     1       9.745   4.934   7.594  0.00  0.00    +0.175 C 
ATOM     10  C   UNL     1      10.015   6.332   8.139  0.00  0.00    +0.159 C 
ATOM     11  C   UNL     1      10.074   5.100   6.125  0.00  0.00    +0.176 C 
ATOM     12  C   UNL     1      11.278   6.025   6.185  0.00  0.00    +0.167 C 
ENDROOT
BRANCH   9   3
ATOM      3  O   UNL     1      10.665   4.034   8.209  0.00  0.00    -0.387 OA
ATOM     31  H   UNL     1      10.975   3.420   7.521  0.00  0.00    +0.210 HD
ENDBRANCH   9   3
BRANCH  11   4
ATOM      4  O   UNL     1      10.373   3.881   5.478  0.00  0.00    -0.387 OA
ATOM     32  H   UNL     1      10.938   4.088   4.714  0.00  0.00    +0.210 HD
ENDBRANCH  11   4
BRANCH  10  13
ATOM     13  C   UNL     1       8.793   7.240   8.084  0.00  0.00    +0.130 C 
BRANCH  13  15
ATOM      5  O   UNL     1       9.649   9.467   7.860  0.00  0.00    -0.276 OA
ATOM      8  N   UNL     1       8.579   8.578   6.004  0.00  0.00    -0.300 N 
ATOM     15  C   UNL     1       9.053   8.531   7.320  0.00  0.00    +0.218 C 
ATOM     18  C   UNL     1       7.875   7.460   5.387  0.00  0.00    +0.132 C 
BRANCH   8  16
ATOM     16  C   UNL     1       8.754   9.749   5.149  0.00  0.00    +0.142 C 
BRANCH  16  19
ATOM     19  C   UNL     1       7.691   9.839   4.094  0.00  0.00    -0.030 A 
ATOM     21  C   UNL     1       6.429  10.340   4.415  0.00  0.00    +0.005 A 
ATOM     22  C   UNL     1       7.965   9.421   2.791  0.00  0.00    +0.005 A 
ATOM     25  C   UNL     1       5.441  10.423   3.435  0.00  0.00    +0.000 A 
ATOM     26  C   UNL     1       6.976   9.505   1.810  0.00  0.00    +0.000 A 
ATOM     29  C   UNL     1       5.715  10.005   2.131  0.00  0.00    +0.000 A 
ENDBRANCH  16  19
ENDBRANCH   8  16
ENDBRANCH  13  15
ENDBRANCH  10  13
BRANCH  12  14
ATOM     14  C   UNL     1      11.480   6.834   4.916  0.00  0.00    +0.138 C 
BRANCH  14   7
ATOM      6  O   UNL     1       9.976   6.284   2.533  0.00  0.00    -0.270 OA
ATOM      7  N   UNL     1      11.881   5.995   3.825  0.00  0.00    -0.309 N 
ATOM     17  C   UNL     1      11.084   5.784   2.703  0.00  0.00    +0.244 C 
ATOM     33  H   UNL     1      12.810   5.593   3.877  0.00  0.00    +0.149 HD
BRANCH  17  20
ATOM      1  F   UNL     1      10.991   3.886  -1.773  0.00  0.00    -0.205 F 
ATOM     20  C   UNL     1      11.632   4.866   1.672  0.00  0.00    +0.039 A 
ATOM     23  C   UNL     1      11.043   4.805   0.409  0.00  0.00    +0.051 A 
ATOM     24  C   UNL     1      12.734   4.063   1.966  0.00  0.00    +0.013 A 
ATOM     27  C   UNL     1      11.557   3.943  -0.560  0.00  0.00    +0.124 A 
ATOM     28  C   UNL     1      13.248   3.201   0.998  0.00  0.00    +0.004 A 
ATOM     30  C   UNL     1      12.659   3.140  -0.265  0.00  0.00    +0.038 A 
ENDBRANCH  17  20
ENDBRANCH  14   7
ENDBRANCH  12  14
TORSDOF 9
ENDMDL
MODEL 8
REMARK VINA RESULT:      -6.6      1.807      2.778
REMARK  Name = 25390203
REMARK  10 active torsions:
REMARK  status: ('A' for Active; 'I' for Inactive)
REMARK    1  A    between atoms: O_3  and  C_9
REMARK    2  A    between atoms: O_4  and  C_11
REMARK    3  A    between atoms: N_7  and  C_14
REMARK    4  A    between atoms: N_8  and  C_16
REMARK    5  A    between atoms: N_8  and  C_18
REMARK    6  A    between atoms: C_10  and  C_13
REMARK    7  A    between atoms: C_12  and  C_14
REMARK    8  A    between atoms: C_13  and  C_15
REMARK    9  A    between atoms: C_16  and  C_19
REMARK   10  A    between atoms: C_17  and  C_20
REMARK                            x       y       z     vdW  Elec       q    Type
REMARK                         _______ _______ _______ _____ _____    ______ ____
ROOT
ATOM      2  O   UNL     1      11.803   8.672  19.583  0.00  0.00    -0.366 OA
ATOM      9  C   UNL     1      12.907   9.650  17.716  0.00  0.00    +0.175 C 
ATOM     10  C   UNL     1      12.154   9.951  19.007  0.00  0.00    +0.159 C 
ATOM     11  C   UNL     1      13.532   8.305  18.023  0.00  0.00    +0.176 C 
ATOM     12  C   UNL     1      12.426   7.628  18.816  0.00  0.00    +0.167 C 
ENDROOT
BRANCH   9   3
ATOM      3  O   UNL     1      11.950   9.522  16.665  0.00  0.00    -0.387 OA
ATOM     31  H   UNL     1      12.205  10.145  15.963  0.00  0.00    +0.210 HD
ENDBRANCH   9   3
BRANCH  11   4
ATOM      4  O   UNL     1      13.881   7.573  16.868  0.00  0.00    -0.387 OA
ATOM     32  H   UNL     1      14.828   7.362  16.931  0.00  0.00    +0.210 HD
ENDBRANCH  11   4
BRANCH  10  13
ATOM     13  C   UNL     1      12.998  10.704  20.027  0.00  0.00    +0.130 C 
BRANCH  13  15
ATOM      5  O   UNL     1      12.661  13.067  19.810  0.00  0.00    -0.276 OA
ATOM      8  N   UNL     1      11.509  12.011  21.524  0.00  0.00    -0.300 N 
ATOM     15  C   UNL     1      12.383  12.038  20.431  0.00  0.00    +0.218 C 
ATOM     18  C   UNL     1      11.196  10.782  22.244  0.00  0.00    +0.132 C 
BRANCH   8  16
ATOM     16  C   UNL     1      10.844  13.211  22.024  0.00  0.00    +0.142 C 
BRANCH  16  19
ATOM     19  C   UNL     1      11.242  13.526  23.437  0.00  0.00    -0.030 A 
ATOM     21  C   UNL     1      10.283  13.523  24.450  0.00  0.00    +0.005 A 
ATOM     22  C   UNL     1      12.573  13.822  23.737  0.00  0.00    +0.005 A 
ATOM     25  C   UNL     1      10.653  13.816  25.762  0.00  0.00    +0.000 A 
ATOM     26  C   UNL     1      12.943  14.115  25.049  0.00  0.00    +0.000 A 
ATOM     29  C   UNL     1      11.984  14.112  26.062  0.00  0.00    +0.000 A 
ENDBRANCH  16  19
ENDBRANCH   8  16
ENDBRANCH  13  15
ENDBRANCH  10  13
BRANCH  12  14
ATOM     14  C   UNL     1      12.931   6.541  19.747  0.00  0.00    +0.138 C 
BRANCH  14   7
ATOM      6  O   UNL     1      14.311   7.849  21.899  0.00  0.00    -0.270 OA
ATOM      7  N   UNL     1      14.351   6.630  19.925  0.00  0.00    -0.309 N 
ATOM     17  C   UNL     1      14.937   7.287  21.003  0.00  0.00    +0.244 C 
ATOM     33  H   UNL     1      14.927   6.140  19.249  0.00  0.00    +0.149 HD
BRANCH  17  20
ATOM      1  F   UNL     1      19.237   5.226  20.053  0.00  0.00    -0.205 F 
ATOM     20  C   UNL     1      16.422   7.313  21.029  0.00  0.00    +0.039 A 
ATOM     23  C   UNL     1      17.147   6.236  20.520  0.00  0.00    +0.051 A 
ATOM     24  C   UNL     1      17.091   8.413  21.564  0.00  0.00    +0.013 A 
ATOM     27  C   UNL     1      18.542   6.260  20.544  0.00  0.00    +0.124 A 
ATOM     28  C   UNL     1      18.486   8.437  21.588  0.00  0.00    +0.004 A 
ATOM     30  C   UNL     1      19.211   7.360  21.079  0.00  0.00    +0.038 A 
ENDBRANCH  17  20
ENDBRANCH  14   7
ENDBRANCH  12  14
TORSDOF 9
ENDMDL
MODEL 9
REMARK VINA RESULT:      -6.6      3.149      8.718
REMARK  Name = 25390203
REMARK  10 active torsions:
REMARK  status: ('A' for Active; 'I' for Inactive)
REMARK    1  A    between atoms: O_3  and  C_9
REMARK    2  A    between atoms: O_4  and  C_11
REMARK    3  A    between atoms: N_7  and  C_14
REMARK    4  A    between atoms: N_8  and  C_16
REMARK    5  A    between atoms: N_8  and  C_18
REMARK    6  A    between atoms: C_10  and  C_13
REMARK    7  A    between atoms: C_12  and  C_14
REMARK    8  A    between atoms: C_13  and  C_15
REMARK    9  A    between atoms: C_16  and  C_19
REMARK   10  A    between atoms: C_17  and  C_20
REMARK                            x       y       z     vdW  Elec       q    Type
REMARK                         _______ _______ _______ _____ _____    ______ ____
ROOT
ATOM      2  O   UNL     1      12.165   9.601  21.042  0.00  0.00    -0.366 OA
ATOM      9  C   UNL     1      12.502   7.402  20.200  0.00  0.00    +0.175 C 
ATOM     10  C   UNL     1      13.121   8.790  20.321  0.00  0.00    +0.159 C 
ATOM     11  C   UNL     1      11.625   7.339  21.433  0.00  0.00    +0.176 C 
ATOM     12  C   UNL     1      11.091   8.760  21.500  0.00  0.00    +0.167 C 
ENDROOT
BRANCH   9   3
ATOM      3  O   UNL     1      11.700   7.376  19.020  0.00  0.00    -0.387 OA
ATOM     31  H   UNL     1      12.044   8.060  18.420  0.00  0.00    +0.210 HD
ENDBRANCH   9   3
BRANCH  11   4
ATOM      4  O   UNL     1      10.586   6.387  21.333  0.00  0.00    -0.387 OA
ATOM     32  H   UNL     1      10.994   5.533  21.110  0.00  0.00    +0.210 HD
ENDBRANCH  11   4
BRANCH  10  13
ATOM     13  C   UNL     1      14.424   8.795  21.110  0.00  0.00    +0.130 C 
BRANCH  13  15
ATOM      5  O   UNL     1      16.033   9.195  19.380  0.00  0.00    -0.276 OA
ATOM      8  N   UNL     1      16.227   7.190  20.530  0.00  0.00    -0.300 N 
ATOM     15  C   UNL     1      15.630   8.426  20.257  0.00  0.00    +0.218 C 
ATOM     18  C   UNL     1      15.732   6.297  21.571  0.00  0.00    +0.132 C 
BRANCH   8  16
ATOM     16  C   UNL     1      17.391   6.702  19.795  0.00  0.00    +0.142 C 
BRANCH  16  19
ATOM     19  C   UNL     1      18.637   6.733  20.631  0.00  0.00    -0.030 A 
ATOM     21  C   UNL     1      18.875   7.804  21.491  0.00  0.00    +0.005 A 
ATOM     22  C   UNL     1      19.559   5.688  20.547  0.00  0.00    +0.005 A 
ATOM     25  C   UNL     1      20.033   7.833  22.268  0.00  0.00    +0.000 A 
ATOM     26  C   UNL     1      20.717   5.716  21.323  0.00  0.00    +0.000 A 
ATOM     29  C   UNL     1      20.954   6.788  22.184  0.00  0.00    +0.000 A 
ENDBRANCH  16  19
ENDBRANCH   8  16
ENDBRANCH  13  15
ENDBRANCH  10  13
BRANCH  12  14
ATOM     14  C   UNL     1      10.672   9.181  22.897  0.00  0.00    +0.138 C 
BRANCH  14   7
ATOM      6  O   UNL     1      11.230  10.803  25.199  0.00  0.00    -0.270 OA
ATOM      7  N   UNL     1      10.544  10.605  22.992  0.00  0.00    -0.309 N 
ATOM     17  C   UNL     1      10.838  11.314  24.154  0.00  0.00    +0.244 C 
ATOM     33  H   UNL     1      10.275  11.097  22.146  0.00  0.00    +0.149 HD
BRANCH  17  20
ATOM      1  F   UNL     1      10.092  15.405  21.634  0.00  0.00    -0.205 F 
ATOM     20  C   UNL     1      10.628  12.784  24.099  0.00  0.00    +0.039 A 
ATOM     23  C   UNL     1      10.456  13.418  22.868  0.00  0.00    +0.051 A 
ATOM     24  C   UNL     1      10.604  13.530  25.277  0.00  0.00    +0.013 A 
ATOM     27  C   UNL     1      10.259  14.797  22.816  0.00  0.00    +0.124 A 
ATOM     28  C   UNL     1      10.407  14.910  25.224  0.00  0.00    +0.004 A 
ATOM     30  C   UNL     1      10.235  15.543  23.994  0.00  0.00    +0.038 A 
ENDBRANCH  17  20
ENDBRANCH  14   7
ENDBRANCH  12  14
TORSDOF 9
ENDMDL
MODEL 10
REMARK VINA RESULT:      -6.5      3.508      5.470
REMARK  Name = 25390203
REMARK  10 active torsions:
REMARK  status: ('A' for Active; 'I' for Inactive)
REMARK    1  A    between atoms: O_3  and  C_9
REMARK    2  A    between atoms: O_4  and  C_11
REMARK    3  A    between atoms: N_7  and  C_14
REMARK    4  A    between atoms: N_8  and  C_16
REMARK    5  A    between atoms: N_8  and  C_18
REMARK    6  A    between atoms: C_10  and  C_13
REMARK    7  A    between atoms: C_12  and  C_14
REMARK    8  A    between atoms: C_13  and  C_15
REMARK    9  A    between atoms: C_16  and  C_19
REMARK   10  A    between atoms: C_17  and  C_20
REMARK                            x       y       z     vdW  Elec       q    Type
REMARK                         _______ _______ _______ _____ _____    ______ ____
ROOT
ATOM      2  O   UNL     1      13.922  11.249  16.757  0.00  0.00    -0.366 OA
ATOM      9  C   UNL     1      15.551  12.176  15.292  0.00  0.00    +0.175 C 
ATOM     10  C   UNL     1      14.920  12.292  16.675  0.00  0.00    +0.159 C 
ATOM     11  C   UNL     1      15.389  10.700  14.995  0.00  0.00    +0.176 C 
ATOM     12  C   UNL     1      14.018  10.418  15.587  0.00  0.00    +0.167 C 
ENDROOT
BRANCH   9   3
ATOM      3  O   UNL     1      14.771  12.952  14.383  0.00  0.00    -0.387 OA
ATOM     31  H   UNL     1      15.285  13.043  13.563  0.00  0.00    +0.210 HD
ENDBRANCH   9   3
BRANCH  11   4
ATOM      4  O   UNL     1      15.443  10.397  13.617  0.00  0.00    -0.387 OA
ATOM     32  H   UNL     1      14.741   9.751  13.433  0.00  0.00    +0.210 HD
ENDBRANCH  11   4
BRANCH  10  13
ATOM     13  C   UNL     1      15.917  12.072  17.805  0.00  0.00    +0.130 C 
BRANCH  13  15
ATOM      5  O   UNL     1      15.382  14.067  19.019  0.00  0.00    -0.276 OA
ATOM      8  N   UNL     1      15.451  12.099  20.244  0.00  0.00    -0.300 N 
ATOM     15  C   UNL     1      15.559  12.847  19.066  0.00  0.00    +0.218 C 
ATOM     18  C   UNL     1      15.666  10.657  20.275  0.00  0.00    +0.132 C 
BRANCH   8  16
ATOM     16  C   UNL     1      15.114  12.705  21.529  0.00  0.00    +0.142 C 
BRANCH  16  19
ATOM     19  C   UNL     1      13.728  12.343  21.975  0.00  0.00    -0.030 A 
ATOM     21  C   UNL     1      13.533  11.694  23.194  0.00  0.00    +0.005 A 
ATOM     22  C   UNL     1      12.632  12.656  21.169  0.00  0.00    +0.005 A 
ATOM     25  C   UNL     1      12.245  11.358  23.609  0.00  0.00    +0.000 A 
ATOM     26  C   UNL     1      11.344  12.320  21.583  0.00  0.00    +0.000 A 
ATOM     29  C   UNL     1      11.149  11.671  22.802  0.00  0.00    +0.000 A 
ENDBRANCH  16  19
ENDBRANCH   8  16
ENDBRANCH  13  15
ENDBRANCH  10  13
BRANCH  12  14
ATOM     14  C   UNL     1      13.816   8.964  15.975  0.00  0.00    +0.138 C 
BRANCH  14   7
ATOM      6  O   UNL     1      11.522   7.684  17.132  0.00  0.00    -0.270 OA
ATOM      7  N   UNL     1      13.521   8.837  17.371  0.00  0.00    -0.309 N 
ATOM     17  C   UNL     1      12.379   8.197  17.846  0.00  0.00    +0.244 C 
ATOM     33  H   UNL     1      14.216   9.191  18.019  0.00  0.00    +0.149 HD
BRANCH  17  20
ATOM      1  F   UNL     1      14.160   7.537  22.322  0.00  0.00    -0.205 F 
ATOM     20  C   UNL     1      12.205   8.172  19.321  0.00  0.00    +0.039 A 
ATOM     23  C   UNL     1      13.285   7.859  20.146  0.00  0.00    +0.051 A 
ATOM     24  C   UNL     1      10.960   8.460  19.881  0.00  0.00    +0.013 A 
ATOM     27  C   UNL     1      13.121   7.836  21.531  0.00  0.00    +0.124 A 
ATOM     28  C   UNL     1      10.797   8.436  21.266  0.00  0.00    +0.004 A 
ATOM     30  C   UNL     1      11.877   8.124  22.091  0.00  0.00    +0.038 A 
ENDBRANCH  17  20
ENDBRANCH  14   7
ENDBRANCH  12  14
TORSDOF 9
ENDMDL
