MODEL 1
REMARK VINA RESULT:      -7.1      0.000      0.000
REMARK  Name = 45360871
REMARK  7 active torsions:
REMARK  status: ('A' for Active; 'I' for Inactive)
REMARK    1  A    between atoms: N_3  and  C_16
REMARK    2  A    between atoms: N_4  and  C_15
REMARK    3  A    between atoms: C_11  and  C_14
REMARK    4  A    between atoms: C_14  and  C_17
REMARK    5  A    between atoms: C_15  and  C_18
REMARK    6  A    between atoms: C_17  and  C_19
REMARK    7  A    between atoms: C_28  and  C_29
REMARK                            x       y       z     vdW  Elec       q    Type
REMARK                         _______ _______ _______ _____ _____    ______ ____
ROOT
ATOM      1  O   UNL     1     -13.648   4.910  22.711  0.00  0.00    -0.274 OA
ATOM      3  N   UNL     1     -17.291   3.606  22.833  0.00  0.00    -0.296 NA
ATOM      4  N   UNL     1     -15.366   6.143  21.032  0.00  0.00    -0.286 NA
ATOM      5  N   UNL     1     -15.151   4.707  24.424  0.00  0.00    -0.312 N 
ATOM      7  C   UNL     1     -17.148   4.871  22.079  0.00  0.00    +0.084 C 
ATOM      8  C   UNL     1     -15.900   5.760  22.352  0.00  0.00    +0.161 C 
ATOM      9  C   UNL     1     -17.078   4.682  20.551  0.00  0.00    +0.036 C 
ATOM     10  C   UNL     1     -16.444   5.969  20.066  0.00  0.00    +0.087 C 
ATOM     11  C   UNL     1     -17.445   3.781  24.305  0.00  0.00    +0.074 C 
ATOM     12  C   UNL     1     -14.785   5.083  23.146  0.00  0.00    +0.232 C 
ATOM     13  C   UNL     1     -16.501   4.823  24.937  0.00  0.00    +0.123 C 
ATOM     16  C   UNL     1     -18.400   2.798  22.297  0.00  0.00    +0.105 C 
ATOM     30  H   UNL     1     -14.434   4.323  25.032  0.00  0.00    +0.149 HD
ENDROOT
BRANCH  11  14
ATOM     14  C   UNL     1     -17.212   2.442  25.035  0.00  0.00    +0.029 C 
BRANCH  14  17
ATOM     17  C   UNL     1     -17.742   2.470  26.455  0.00  0.00    +0.097 C 
BRANCH  17  19
ATOM      2  O   UNL     1     -17.477   0.198  27.117  0.00  0.00    -0.276 OA
ATOM      6  N   UNL     1     -16.201   1.775  28.221  0.00  0.00    -0.301 N 
ATOM     19  C   UNL     1     -17.135   1.368  27.286  0.00  0.00    +0.216 C 
ATOM     20  C   UNL     1     -15.749   3.140  28.468  0.00  0.00    +0.108 C 
ATOM     21  C   UNL     1     -15.527   0.835  29.106  0.00  0.00    +0.108 C 
ATOM     22  C   UNL     1     -14.950   3.049  29.760  0.00  0.00    +0.020 C 
ATOM     23  C   UNL     1     -14.385   1.635  29.714  0.00  0.00    +0.020 C 
ENDBRANCH  17  19
ENDBRANCH  14  17
ENDBRANCH  11  14
BRANCH   4  15
ATOM     15  C   UNL     1     -14.815   7.492  21.001  0.00  0.00    +0.120 C 
BRANCH  15  18
ATOM     18  C   UNL     1     -13.695   7.618  20.002  0.00  0.00    -0.033 A 
ATOM     24  C   UNL     1     -12.399   7.243  20.356  0.00  0.00    +0.005 A 
ATOM     25  C   UNL     1     -13.954   8.113  18.724  0.00  0.00    +0.005 A 
ATOM     26  C   UNL     1     -11.362   7.362  19.431  0.00  0.00    +0.003 A 
ATOM     27  C   UNL     1     -12.916   8.232  17.799  0.00  0.00    +0.003 A 
ATOM     28  C   UNL     1     -11.620   7.857  18.153  0.00  0.00    -0.050 A 
ATOM     29  C   UNL     1     -10.510   7.985  17.165  0.00  0.00    +0.044 C 
ENDBRANCH  15  18
ENDBRANCH   4  15
TORSDOF 5
ENDMDL
MODEL 2
REMARK VINA RESULT:      -6.8     29.201     34.904
REMARK  Name = 45360871
REMARK  7 active torsions:
REMARK  status: ('A' for Active; 'I' for Inactive)
REMARK    1  A    between atoms: N_3  and  C_16
REMARK    2  A    between atoms: N_4  and  C_15
REMARK    3  A    between atoms: C_11  and  C_14
REMARK    4  A    between atoms: C_14  and  C_17
REMARK    5  A    between atoms: C_15  and  C_18
REMARK    6  A    between atoms: C_17  and  C_19
REMARK    7  A    between atoms: C_28  and  C_29
REMARK                            x       y       z     vdW  Elec       q    Type
REMARK                         _______ _______ _______ _____ _____    ______ ____
ROOT
ATOM      1  O   UNL     1      10.816   3.634   3.753  0.00  0.00    -0.274 OA
ATOM      3  N   UNL     1      13.272   5.472   1.390  0.00  0.00    -0.296 NA
ATOM      4  N   UNL     1      11.182   6.255   4.289  0.00  0.00    -0.286 NA
ATOM      5  N   UNL     1      10.864   3.886   1.479  0.00  0.00    -0.312 N 
ATOM      7  C   UNL     1      12.492   6.389   2.250  0.00  0.00    +0.084 C 
ATOM      8  C   UNL     1      11.158   5.874   2.865  0.00  0.00    +0.161 C 
ATOM      9  C   UNL     1      13.254   6.872   3.500  0.00  0.00    +0.036 C 
ATOM     10  C   UNL     1      12.152   7.336   4.428  0.00  0.00    +0.087 C 
ATOM     11  C   UNL     1      12.577   5.066   0.136  0.00  0.00    +0.074 C 
ATOM     12  C   UNL     1      10.942   4.366   2.772  0.00  0.00    +0.232 C 
ATOM     13  C   UNL     1      11.088   4.706   0.306  0.00  0.00    +0.123 C 
ATOM     16  C   UNL     1      14.594   6.042   1.079  0.00  0.00    +0.105 C 
ATOM     30  H   UNL     1      10.643   2.903   1.348  0.00  0.00    +0.149 HD
ENDROOT
BRANCH  11  14
ATOM     14  C   UNL     1      13.279   3.848  -0.500  0.00  0.00    +0.029 C 
BRANCH  14  17
ATOM     17  C   UNL     1      13.180   3.861  -2.013  0.00  0.00    +0.097 C 
BRANCH  17  19
ATOM      2  O   UNL     1      12.100   1.755  -2.271  0.00  0.00    -0.276 OA
ATOM      6  N   UNL     1      11.051   3.598  -3.187  0.00  0.00    -0.301 N 
ATOM     19  C   UNL     1      12.067   2.966  -2.495  0.00  0.00    +0.216 C 
ATOM     20  C   UNL     1      10.951   5.024  -3.481  0.00  0.00    +0.108 C 
ATOM     21  C   UNL     1       9.907   2.874  -3.723  0.00  0.00    +0.108 C 
ATOM     22  C   UNL     1       9.811   5.127  -4.484  0.00  0.00    +0.020 C 
ATOM     23  C   UNL     1       8.911   3.960  -4.099  0.00  0.00    +0.020 C 
ENDBRANCH  17  19
ENDBRANCH  14  17
ENDBRANCH  11  14
BRANCH   4  15
ATOM     15  C   UNL     1       9.872   6.625   4.810  0.00  0.00    +0.120 C 
BRANCH  15  18
ATOM     18  C   UNL     1       9.672   6.138   6.221  0.00  0.00    -0.033 A 
ATOM     24  C   UNL     1       9.191   7.009   7.199  0.00  0.00    +0.005 A 
ATOM     25  C   UNL     1       9.971   4.816   6.551  0.00  0.00    +0.005 A 
ATOM     26  C   UNL     1       9.009   6.558   8.506  0.00  0.00    +0.003 A 
ATOM     27  C   UNL     1       9.789   4.365   7.859  0.00  0.00    +0.003 A 
ATOM     28  C   UNL     1       9.308   5.236   8.836  0.00  0.00    -0.050 A 
ATOM     29  C   UNL     1       9.113   4.754  10.234  0.00  0.00    +0.044 C 
ENDBRANCH  15  18
ENDBRANCH   4  15
TORSDOF 5
ENDMDL
MODEL 3
REMARK VINA RESULT:      -6.5     17.031     18.478
REMARK  Name = 45360871
REMARK  7 active torsions:
REMARK  status: ('A' for Active; 'I' for Inactive)
REMARK    1  A    between atoms: N_3  and  C_16
REMARK    2  A    between atoms: N_4  and  C_15
REMARK    3  A    between atoms: C_11  and  C_14
REMARK    4  A    between atoms: C_14  and  C_17
REMARK    5  A    between atoms: C_15  and  C_18
REMARK    6  A    between atoms: C_17  and  C_19
REMARK    7  A    between atoms: C_28  and  C_29
REMARK                            x       y       z     vdW  Elec       q    Type
REMARK                         _______ _______ _______ _____ _____    ______ ____
ROOT
ATOM      1  O   UNL     1      -6.481  -9.183  16.515  0.00  0.00    -0.274 OA
ATOM      3  N   UNL     1      -9.978  -9.795  18.058  0.00  0.00    -0.296 NA
ATOM      4  N   UNL     1      -6.928 -11.700  17.386  0.00  0.00    -0.286 NA
ATOM      5  N   UNL     1      -8.596  -8.874  15.700  0.00  0.00    -0.312 N 
ATOM      7  C   UNL     1      -9.228 -11.043  17.800  0.00  0.00    +0.084 C 
ATOM      8  C   UNL     1      -8.070 -11.010  16.759  0.00  0.00    +0.161 C 
ATOM      9  C   UNL     1      -8.523 -11.617  19.044  0.00  0.00    +0.036 C 
ATOM     10  C   UNL     1      -7.464 -12.529  18.460  0.00  0.00    +0.087 C 
ATOM     11  C   UNL     1     -10.734  -9.276  16.883  0.00  0.00    +0.074 C 
ATOM     12  C   UNL     1      -7.619  -9.614  16.338  0.00  0.00    +0.232 C 
ATOM     13  C   UNL     1      -9.966  -9.319  15.548  0.00  0.00    +0.123 C 
ATOM     16  C   UNL     1     -10.879  -9.954  19.213  0.00  0.00    +0.105 C 
ATOM     30  H   UNL     1      -8.337  -7.966  15.324  0.00  0.00    +0.149 HD
ENDROOT
BRANCH  11  14
ATOM     14  C   UNL     1     -11.166  -7.814  17.123  0.00  0.00    +0.029 C 
BRANCH  14  17
ATOM     17  C   UNL     1     -12.273  -7.388  16.178  0.00  0.00    +0.097 C 
BRANCH  17  19
ATOM      2  O   UNL     1     -10.675  -5.824  15.360  0.00  0.00    -0.276 OA
ATOM      6  N   UNL     1     -12.791  -5.751  14.437  0.00  0.00    -0.301 N 
ATOM     19  C   UNL     1     -11.828  -6.252  15.292  0.00  0.00    +0.216 C 
ATOM     20  C   UNL     1     -14.168  -6.215  14.306  0.00  0.00    +0.108 C 
ATOM     21  C   UNL     1     -12.522  -4.651  13.522  0.00  0.00    +0.108 C 
ATOM     22  C   UNL     1     -14.846  -5.156  13.448  0.00  0.00    +0.020 C 
ATOM     23  C   UNL     1     -13.710  -4.647  12.572  0.00  0.00    +0.020 C 
ENDBRANCH  17  19
ENDBRANCH  14  17
ENDBRANCH  11  14
BRANCH   4  15
ATOM     15  C   UNL     1      -6.132 -12.474  16.442  0.00  0.00    +0.120 C 
BRANCH  15  18
ATOM     18  C   UNL     1      -4.780 -11.853  16.208  0.00  0.00    -0.033 A 
ATOM     24  C   UNL     1      -3.987 -11.478  17.293  0.00  0.00    +0.005 A 
ATOM     25  C   UNL     1      -4.321 -11.650  14.906  0.00  0.00    +0.005 A 
ATOM     26  C   UNL     1      -2.736 -10.901  17.075  0.00  0.00    +0.003 A 
ATOM     27  C   UNL     1      -3.070 -11.073  14.689  0.00  0.00    +0.003 A 
ATOM     28  C   UNL     1      -2.278 -10.698  15.774  0.00  0.00    -0.050 A 
ATOM     29  C   UNL     1      -0.940 -10.080  15.542  0.00  0.00    +0.044 C 
ENDBRANCH  15  18
ENDBRANCH   4  15
TORSDOF 5
ENDMDL
MODEL 4
REMARK VINA RESULT:      -6.5     30.754     34.746
REMARK  Name = 45360871
REMARK  7 active torsions:
REMARK  status: ('A' for Active; 'I' for Inactive)
REMARK    1  A    between atoms: N_3  and  C_16
REMARK    2  A    between atoms: N_4  and  C_15
REMARK    3  A    between atoms: C_11  and  C_14
REMARK    4  A    between atoms: C_14  and  C_17
REMARK    5  A    between atoms: C_15  and  C_18
REMARK    6  A    between atoms: C_17  and  C_19
REMARK    7  A    between atoms: C_28  and  C_29
REMARK                            x       y       z     vdW  Elec       q    Type
REMARK                         _______ _______ _______ _____ _____    ______ ____
ROOT
ATOM      1  O   UNL     1      18.171   9.545  20.861  0.00  0.00    -0.274 OA
ATOM      3  N   UNL     1      20.040   6.154  20.860  0.00  0.00    -0.296 NA
ATOM      4  N   UNL     1      16.680   7.412  20.139  0.00  0.00    -0.286 NA
ATOM      5  N   UNL     1      19.340   8.433  22.484  0.00  0.00    -0.312 N 
ATOM      7  C   UNL     1      18.573   6.013  20.733  0.00  0.00    +0.084 C 
ATOM      8  C   UNL     1      17.670   7.189  21.209  0.00  0.00    +0.161 C 
ATOM      9  C   UNL     1      18.088   5.803  19.285  0.00  0.00    +0.036 C 
ATOM     10  C   UNL     1      16.625   6.191  19.344  0.00  0.00    +0.087 C 
ATOM     11  C   UNL     1      20.528   6.272  22.263  0.00  0.00    +0.074 C 
ATOM     12  C   UNL     1      18.404   8.502  21.470  0.00  0.00    +0.232 C 
ATOM     13  C   UNL     1      19.695   7.204  23.164  0.00  0.00    +0.123 C 
ATOM     16  C   UNL     1      20.734   5.054  20.169  0.00  0.00    +0.105 C 
ATOM     30  H   UNL     1      19.807   9.292  22.760  0.00  0.00    +0.149 HD
ENDROOT
BRANCH  11  14
ATOM     14  C   UNL     1      21.984   6.783  22.286  0.00  0.00    +0.029 C 
BRANCH  14  17
ATOM     17  C   UNL     1      22.818   6.073  23.335  0.00  0.00    +0.097 C 
BRANCH  17  19
ATOM      2  O   UNL     1      22.075   3.877  23.880  0.00  0.00    -0.276 OA
ATOM      6  N   UNL     1      23.558   4.083  22.121  0.00  0.00    -0.301 N 
ATOM     19  C   UNL     1      22.773   4.578  23.146  0.00  0.00    +0.216 C 
ATOM     20  C   UNL     1      24.401   4.857  21.216  0.00  0.00    +0.108 C 
ATOM     21  C   UNL     1      23.630   2.662  21.813  0.00  0.00    +0.108 C 
ATOM     22  C   UNL     1      25.237   3.813  20.489  0.00  0.00    +0.020 C 
ATOM     23  C   UNL     1      24.317   2.600  20.457  0.00  0.00    +0.020 C 
ENDBRANCH  17  19
ENDBRANCH  14  17
ENDBRANCH  11  14
BRANCH   4  15
ATOM     15  C   UNL     1      15.367   7.800  20.639  0.00  0.00    +0.120 C 
BRANCH  15  18
ATOM     18  C   UNL     1      14.422   8.149  19.520  0.00  0.00    -0.033 A 
ATOM     24  C   UNL     1      14.699   9.229  18.683  0.00  0.00    +0.005 A 
ATOM     25  C   UNL     1      13.266   7.392  19.322  0.00  0.00    +0.005 A 
ATOM     26  C   UNL     1      13.822   9.554  17.649  0.00  0.00    +0.003 A 
ATOM     27  C   UNL     1      12.389   7.717  18.287  0.00  0.00    +0.003 A 
ATOM     28  C   UNL     1      12.667   8.797  17.451  0.00  0.00    -0.050 A 
ATOM     29  C   UNL     1      11.729   9.145  16.344  0.00  0.00    +0.044 C 
ENDBRANCH  15  18
ENDBRANCH   4  15
TORSDOF 5
ENDMDL
MODEL 5
REMARK VINA RESULT:      -6.5     19.216     21.425
REMARK  Name = 45360871
REMARK  7 active torsions:
REMARK  status: ('A' for Active; 'I' for Inactive)
REMARK    1  A    between atoms: N_3  and  C_16
REMARK    2  A    between atoms: N_4  and  C_15
REMARK    3  A    between atoms: C_11  and  C_14
REMARK    4  A    between atoms: C_14  and  C_17
REMARK    5  A    between atoms: C_15  and  C_18
REMARK    6  A    between atoms: C_17  and  C_19
REMARK    7  A    between atoms: C_28  and  C_29
REMARK                            x       y       z     vdW  Elec       q    Type
REMARK                         _______ _______ _______ _____ _____    ______ ____
ROOT
ATOM      1  O   UNL     1      -6.409  -9.431  16.331  0.00  0.00    -0.274 OA
ATOM      3  N   UNL     1      -4.392 -12.592  15.369  0.00  0.00    -0.296 NA
ATOM      4  N   UNL     1      -7.096 -11.680  17.659  0.00  0.00    -0.286 NA
ATOM      5  N   UNL     1      -4.165  -9.879  16.324  0.00  0.00    -0.312 N 
ATOM      7  C   UNL     1      -5.208 -12.769  16.590  0.00  0.00    +0.084 C 
ATOM      8  C   UNL     1      -5.661 -11.501  17.370  0.00  0.00    +0.161 C 
ATOM      9  C   UNL     1      -6.549 -13.489  16.345  0.00  0.00    +0.036 C 
ATOM     10  C   UNL     1      -7.380 -13.106  17.552  0.00  0.00    +0.087 C 
ATOM     11  C   UNL     1      -3.057 -11.974  15.607  0.00  0.00    +0.074 C 
ATOM     12  C   UNL     1      -5.480 -10.182  16.622  0.00  0.00    +0.232 C 
ATOM     13  C   UNL     1      -3.058 -10.778  16.579  0.00  0.00    +0.123 C 
ATOM     16  C   UNL     1      -4.242 -13.867  14.649  0.00  0.00    +0.105 C 
ATOM     30  H   UNL     1      -3.969  -8.979  15.896  0.00  0.00    +0.149 HD
ENDROOT
BRANCH  11  14
ATOM     14  C   UNL     1      -2.442 -11.489  14.277  0.00  0.00    +0.029 C 
BRANCH  14  17
ATOM     17  C   UNL     1      -3.462 -10.784  13.404  0.00  0.00    +0.097 C 
BRANCH  17  19
ATOM      2  O   UNL     1      -1.647 -10.500  11.889  0.00  0.00    -0.276 OA
ATOM      6  N   UNL     1      -3.713  -9.713  11.220  0.00  0.00    -0.301 N 
ATOM     19  C   UNL     1      -2.847 -10.326  12.107  0.00  0.00    +0.216 C 
ATOM     20  C   UNL     1      -5.140  -9.480  11.415  0.00  0.00    +0.108 C 
ATOM     21  C   UNL     1      -3.274  -9.209   9.927  0.00  0.00    +0.108 C 
ATOM     22  C   UNL     1      -5.530  -8.542  10.281  0.00  0.00    +0.020 C 
ATOM     23  C   UNL     1      -4.563  -8.928   9.170  0.00  0.00    +0.020 C 
ENDBRANCH  17  19
ENDBRANCH  14  17
ENDBRANCH  11  14
BRANCH   4  15
ATOM     15  C   UNL     1      -7.497 -11.137  18.951  0.00  0.00    +0.120 C 
BRANCH  15  18
ATOM     18  C   UNL     1      -8.949 -10.738  18.964  0.00  0.00    -0.033 A 
ATOM     24  C   UNL     1      -9.784 -11.174  19.993  0.00  0.00    +0.005 A 
ATOM     25  C   UNL     1      -9.460  -9.933  17.946  0.00  0.00    +0.005 A 
ATOM     26  C   UNL     1     -11.129 -10.806  20.003  0.00  0.00    +0.003 A 
ATOM     27  C   UNL     1     -10.806  -9.565  17.956  0.00  0.00    +0.003 A 
ATOM     28  C   UNL     1     -11.640 -10.002  18.985  0.00  0.00    -0.050 A 
ATOM     29  C   UNL     1     -13.079  -9.609  18.996  0.00  0.00    +0.044 C 
ENDBRANCH  15  18
ENDBRANCH   4  15
TORSDOF 5
ENDMDL
MODEL 6
REMARK VINA RESULT:      -6.4     29.110     34.919
REMARK  Name = 45360871
REMARK  7 active torsions:
REMARK  status: ('A' for Active; 'I' for Inactive)
REMARK    1  A    between atoms: N_3  and  C_16
REMARK    2  A    between atoms: N_4  and  C_15
REMARK    3  A    between atoms: C_11  and  C_14
REMARK    4  A    between atoms: C_14  and  C_17
REMARK    5  A    between atoms: C_15  and  C_18
REMARK    6  A    between atoms: C_17  and  C_19
REMARK    7  A    between atoms: C_28  and  C_29
REMARK                            x       y       z     vdW  Elec       q    Type
REMARK                         _______ _______ _______ _____ _____    ______ ____
ROOT
ATOM      1  O   UNL     1      10.106   4.538  -0.922  0.00  0.00    -0.274 OA
ATOM      3  N   UNL     1      12.788   5.679   1.626  0.00  0.00    -0.296 NA
ATOM      4  N   UNL     1      12.634   3.781  -1.498  0.00  0.00    -0.286 NA
ATOM      5  N   UNL     1      10.312   4.227   1.335  0.00  0.00    -0.312 N 
ATOM      7  C   UNL     1      13.288   4.676   0.662  0.00  0.00    +0.084 C 
ATOM      8  C   UNL     1      12.255   3.772  -0.072  0.00  0.00    +0.161 C 
ATOM      9  C   UNL     1      14.078   5.280  -0.516  0.00  0.00    +0.036 C 
ATOM     10  C   UNL     1      14.031   4.192  -1.567  0.00  0.00    +0.087 C 
ATOM     11  C   UNL     1      12.097   5.101   2.813  0.00  0.00    +0.074 C 
ATOM     12  C   UNL     1      10.802   4.227   0.043  0.00  0.00    +0.232 C 
ATOM     13  C   UNL     1      11.126   3.945   2.500  0.00  0.00    +0.123 C 
ATOM     16  C   UNL     1      13.871   6.580   2.056  0.00  0.00    +0.105 C 
ATOM     30  H   UNL     1       9.329   4.444   1.472  0.00  0.00    +0.149 HD
ENDROOT
BRANCH  11  14
ATOM     14  C   UNL     1      11.295   6.191   3.555  0.00  0.00    +0.029 C 
BRANCH  14  17
ATOM     17  C   UNL     1      10.302   5.597   4.534  0.00  0.00    +0.097 C 
BRANCH  17  19
ATOM      2  O   UNL     1      10.193   7.715   5.618  0.00  0.00    -0.276 OA
ATOM      6  N   UNL     1       9.871   5.841   6.929  0.00  0.00    -0.301 N 
ATOM     19  C   UNL     1      10.117   6.491   5.734  0.00  0.00    +0.216 C 
ATOM     20  C   UNL     1       9.766   4.400   7.133  0.00  0.00    +0.108 C 
ATOM     21  C   UNL     1       9.677   6.560   8.180  0.00  0.00    +0.108 C 
ATOM     22  C   UNL     1       9.771   4.229   8.646  0.00  0.00    +0.020 C 
ATOM     23  C   UNL     1       9.123   5.516   9.138  0.00  0.00    +0.020 C 
ENDBRANCH  17  19
ENDBRANCH  14  17
ENDBRANCH  11  14
BRANCH   4  15
ATOM     15  C   UNL     1      12.405   2.504  -2.163  0.00  0.00    +0.120 C 
BRANCH  15  18
ATOM     18  C   UNL     1      11.600   2.667  -3.426  0.00  0.00    -0.033 A 
ATOM     24  C   UNL     1      12.224   3.082  -4.602  0.00  0.00    +0.005 A 
ATOM     25  C   UNL     1      10.230   2.406  -3.418  0.00  0.00    +0.005 A 
ATOM     26  C   UNL     1      11.478   3.236  -5.771  0.00  0.00    +0.003 A 
ATOM     27  C   UNL     1       9.484   2.559  -4.587  0.00  0.00    +0.003 A 
ATOM     28  C   UNL     1      10.109   2.974  -5.763  0.00  0.00    -0.050 A 
ATOM     29  C   UNL     1       9.311   3.139  -7.013  0.00  0.00    +0.044 C 
ENDBRANCH  15  18
ENDBRANCH   4  15
TORSDOF 5
ENDMDL
MODEL 7
REMARK VINA RESULT:      -6.4     29.237     35.649
REMARK  Name = 45360871
REMARK  7 active torsions:
REMARK  status: ('A' for Active; 'I' for Inactive)
REMARK    1  A    between atoms: N_3  and  C_16
REMARK    2  A    between atoms: N_4  and  C_15
REMARK    3  A    between atoms: C_11  and  C_14
REMARK    4  A    between atoms: C_14  and  C_17
REMARK    5  A    between atoms: C_15  and  C_18
REMARK    6  A    between atoms: C_17  and  C_19
REMARK    7  A    between atoms: C_28  and  C_29
REMARK                            x       y       z     vdW  Elec       q    Type
REMARK                         _______ _______ _______ _____ _____    ______ ____
ROOT
ATOM      1  O   UNL     1      12.958   7.034   7.173  0.00  0.00    -0.274 OA
ATOM      3  N   UNL     1      14.335   9.487   4.513  0.00  0.00    -0.296 NA
ATOM      4  N   UNL     1      11.156   7.878   5.347  0.00  0.00    -0.286 NA
ATOM      5  N   UNL     1      14.691   6.876   5.688  0.00  0.00    -0.312 N 
ATOM      7  C   UNL     1      12.990   8.965   4.186  0.00  0.00    +0.084 C 
ATOM      8  C   UNL     1      12.526   7.638   4.855  0.00  0.00    +0.161 C 
ATOM      9  C   UNL     1      11.841   9.926   4.551  0.00  0.00    +0.036 C 
ATOM     10  C   UNL     1      10.629   9.020   4.610  0.00  0.00    +0.087 C 
ATOM     11  C   UNL     1      15.458   8.604   4.088  0.00  0.00    +0.074 C 
ATOM     12  C   UNL     1      13.385   7.171   6.028  0.00  0.00    +0.232 C 
ATOM     13  C   UNL     1      15.246   7.104   4.369  0.00  0.00    +0.123 C 
ATOM     16  C   UNL     1      14.518  10.843   3.969  0.00  0.00    +0.105 C 
ATOM     30  H   UNL     1      15.294   6.485   6.406  0.00  0.00    +0.149 HD
ENDROOT
BRANCH  11  14
ATOM     14  C   UNL     1      16.769   9.026   4.785  0.00  0.00    +0.029 C 
BRANCH  14  17
ATOM     17  C   UNL     1      17.958   8.230   4.284  0.00  0.00    +0.097 C 
BRANCH  17  19
ATOM      2  O   UNL     1      19.160  10.285   4.236  0.00  0.00    -0.276 OA
ATOM      6  N   UNL     1      20.397   8.343   4.413  0.00  0.00    -0.301 N 
ATOM     19  C   UNL     1      19.218   9.057   4.310  0.00  0.00    +0.216 C 
ATOM     20  C   UNL     1      20.535   6.893   4.508  0.00  0.00    +0.108 C 
ATOM     21  C   UNL     1      21.700   8.993   4.445  0.00  0.00    +0.108 C 
ATOM     22  C   UNL     1      22.023   6.639   4.318  0.00  0.00    +0.020 C 
ATOM     23  C   UNL     1      22.661   7.900   4.886  0.00  0.00    +0.020 C 
ENDBRANCH  17  19
ENDBRANCH  14  17
ENDBRANCH  11  14
BRANCH   4  15
ATOM     15  C   UNL     1      10.291   6.709   5.238  0.00  0.00    +0.120 C 
BRANCH  15  18
ATOM     18  C   UNL     1       9.920   6.159   6.590  0.00  0.00    -0.033 A 
ATOM     24  C   UNL     1      10.125   4.810   6.875  0.00  0.00    +0.005 A 
ATOM     25  C   UNL     1       9.368   7.000   7.557  0.00  0.00    +0.005 A 
ATOM     26  C   UNL     1       9.779   4.300   8.127  0.00  0.00    +0.003 A 
ATOM     27  C   UNL     1       9.021   6.491   8.809  0.00  0.00    +0.003 A 
ATOM     28  C   UNL     1       9.227   5.141   9.093  0.00  0.00    -0.050 A 
ATOM     29  C   UNL     1       8.856   4.595  10.431  0.00  0.00    +0.044 C 
ENDBRANCH  15  18
ENDBRANCH   4  15
TORSDOF 5
ENDMDL
MODEL 8
REMARK VINA RESULT:      -6.4     17.455     18.768
REMARK  Name = 45360871
REMARK  7 active torsions:
REMARK  status: ('A' for Active; 'I' for Inactive)
REMARK    1  A    between atoms: N_3  and  C_16
REMARK    2  A    between atoms: N_4  and  C_15
REMARK    3  A    between atoms: C_11  and  C_14
REMARK    4  A    between atoms: C_14  and  C_17
REMARK    5  A    between atoms: C_15  and  C_18
REMARK    6  A    between atoms: C_17  and  C_19
REMARK    7  A    between atoms: C_28  and  C_29
REMARK                            x       y       z     vdW  Elec       q    Type
REMARK                         _______ _______ _______ _____ _____    ______ ____
ROOT
ATOM      1  O   UNL     1      -8.445  -8.731  16.578  0.00  0.00    -0.274 OA
ATOM      3  N   UNL     1      -7.807 -12.376  17.715  0.00  0.00    -0.296 NA
ATOM      4  N   UNL     1     -10.659 -10.139  17.218  0.00  0.00    -0.286 NA
ATOM      5  N   UNL     1      -7.154  -9.617  18.246  0.00  0.00    -0.312 N 
ATOM      7  C   UNL     1      -9.190 -11.918  17.972  0.00  0.00    +0.084 C 
ATOM      8  C   UNL     1      -9.462 -10.387  18.044  0.00  0.00    +0.161 C 
ATOM      9  C   UNL     1     -10.207 -12.374  16.909  0.00  0.00    +0.036 C 
ATOM     10  C   UNL     1     -11.361 -11.410  17.088  0.00  0.00    +0.087 C 
ATOM     11  C   UNL     1      -6.830 -12.013  18.780  0.00  0.00    +0.074 C 
ATOM     12  C   UNL     1      -8.329  -9.504  17.528  0.00  0.00    +0.232 C 
ATOM     13  C   UNL     1      -6.959 -10.574  19.317  0.00  0.00    +0.123 C 
ATOM     16  C   UNL     1      -7.773 -13.827  17.466  0.00  0.00    +0.105 C 
ATOM     30  H   UNL     1      -6.386  -8.999  18.004  0.00  0.00    +0.149 HD
ENDROOT
BRANCH  11  14
ATOM     14  C   UNL     1      -5.385 -12.190  18.270  0.00  0.00    +0.029 C 
BRANCH  14  17
ATOM     17  C   UNL     1      -4.788 -10.881  17.790  0.00  0.00    +0.097 C 
BRANCH  17  19
ATOM      2  O   UNL     1      -5.771 -10.841  15.622  0.00  0.00    -0.276 OA
ATOM      6  N   UNL     1      -3.466 -10.765  15.737  0.00  0.00    -0.301 N 
ATOM     19  C   UNL     1      -4.734 -10.826  16.285  0.00  0.00    +0.216 C 
ATOM     20  C   UNL     1      -2.201 -10.740  16.464  0.00  0.00    +0.108 C 
ATOM     21  C   UNL     1      -3.242 -10.713  14.299  0.00  0.00    +0.108 C 
ATOM     22  C   UNL     1      -1.142 -10.953  15.392  0.00  0.00    +0.020 C 
ATOM     23  C   UNL     1      -1.776 -10.330  14.156  0.00  0.00    +0.020 C 
ENDBRANCH  17  19
ENDBRANCH  14  17
ENDBRANCH  11  14
BRANCH   4  15
ATOM     15  C   UNL     1     -11.520  -9.090  17.750  0.00  0.00    +0.120 C 
BRANCH  15  18
ATOM     18  C   UNL     1     -11.824  -8.037  16.717  0.00  0.00    -0.033 A 
ATOM     24  C   UNL     1     -12.833  -8.251  15.778  0.00  0.00    +0.005 A 
ATOM     25  C   UNL     1     -11.094  -6.848  16.698  0.00  0.00    +0.005 A 
ATOM     26  C   UNL     1     -13.112  -7.276  14.820  0.00  0.00    +0.003 A 
ATOM     27  C   UNL     1     -11.373  -5.874  15.740  0.00  0.00    +0.003 A 
ATOM     28  C   UNL     1     -12.382  -6.088  14.801  0.00  0.00    -0.050 A 
ATOM     29  C   UNL     1     -12.681  -5.047  13.775  0.00  0.00    +0.044 C 
ENDBRANCH  15  18
ENDBRANCH   4  15
TORSDOF 5
ENDMDL
MODEL 9
REMARK VINA RESULT:      -6.3     19.616     20.668
REMARK  Name = 45360871
REMARK  7 active torsions:
REMARK  status: ('A' for Active; 'I' for Inactive)
REMARK    1  A    between atoms: N_3  and  C_16
REMARK    2  A    between atoms: N_4  and  C_15
REMARK    3  A    between atoms: C_11  and  C_14
REMARK    4  A    between atoms: C_14  and  C_17
REMARK    5  A    between atoms: C_15  and  C_18
REMARK    6  A    between atoms: C_17  and  C_19
REMARK    7  A    between atoms: C_28  and  C_29
REMARK                            x       y       z     vdW  Elec       q    Type
REMARK                         _______ _______ _______ _____ _____    ______ ____
ROOT
ATOM      1  O   UNL     1      -5.891  -9.566  13.373  0.00  0.00    -0.274 OA
ATOM      3  N   UNL     1      -3.132 -10.831  15.777  0.00  0.00    -0.296 NA
ATOM      4  N   UNL     1      -3.706 -10.602  12.171  0.00  0.00    -0.286 NA
ATOM      5  N   UNL     1      -5.920 -11.087  15.083  0.00  0.00    -0.312 N 
ATOM      7  C   UNL     1      -2.922 -11.251  14.375  0.00  0.00    +0.084 C 
ATOM      8  C   UNL     1      -4.147 -11.263  13.413  0.00  0.00    +0.161 C 
ATOM      9  C   UNL     1      -1.918 -10.374  13.602  0.00  0.00    +0.036 C 
ATOM     10  C   UNL     1      -2.249 -10.653  12.151  0.00  0.00    +0.087 C 
ATOM     11  C   UNL     1      -4.035 -11.721  16.559  0.00  0.00    +0.074 C 
ATOM     12  C   UNL     1      -5.384 -10.537  13.934  0.00  0.00    +0.232 C 
ATOM     13  C   UNL     1      -5.303 -12.177  15.811  0.00  0.00    +0.123 C 
ATOM     16  C   UNL     1      -1.844 -10.672  16.475  0.00  0.00    +0.105 C 
ATOM     30  H   UNL     1      -6.789 -10.699  15.436  0.00  0.00    +0.149 HD
ENDROOT
BRANCH  11  14
ATOM     14  C   UNL     1      -4.490 -11.023  17.858  0.00  0.00    +0.029 C 
BRANCH  14  17
ATOM     17  C   UNL     1      -5.259 -11.961  18.767  0.00  0.00    +0.097 C 
BRANCH  17  19
ATOM      2  O   UNL     1      -6.333 -10.297  20.089  0.00  0.00    -0.276 OA
ATOM      6  N   UNL     1      -7.687 -11.838  19.028  0.00  0.00    -0.301 N 
ATOM     19  C   UNL     1      -6.466 -11.280  19.359  0.00  0.00    +0.216 C 
ATOM     20  C   UNL     1      -7.913 -12.996  18.169  0.00  0.00    +0.108 C 
ATOM     21  C   UNL     1      -8.947 -11.302  19.523  0.00  0.00    +0.108 C 
ATOM     22  C   UNL     1      -9.382 -13.339  18.372  0.00  0.00    +0.020 C 
ATOM     23  C   UNL     1     -10.010 -11.985  18.676  0.00  0.00    +0.020 C 
ENDBRANCH  17  19
ENDBRANCH  14  17
ENDBRANCH  11  14
BRANCH   4  15
ATOM     15  C   UNL     1      -4.291 -11.183  10.969  0.00  0.00    +0.120 C 
BRANCH  15  18
ATOM     18  C   UNL     1      -5.211 -10.217  10.270  0.00  0.00    -0.033 A 
ATOM     24  C   UNL     1      -4.816  -8.894  10.074  0.00  0.00    +0.005 A 
ATOM     25  C   UNL     1      -6.461 -10.645   9.823  0.00  0.00    +0.005 A 
ATOM     26  C   UNL     1      -5.670  -7.999   9.429  0.00  0.00    +0.003 A 
ATOM     27  C   UNL     1      -7.315  -9.750   9.178  0.00  0.00    +0.003 A 
ATOM     28  C   UNL     1      -6.919  -8.427   8.981  0.00  0.00    -0.050 A 
ATOM     29  C   UNL     1      -7.832  -7.469   8.292  0.00  0.00    +0.044 C 
ENDBRANCH  15  18
ENDBRANCH   4  15
TORSDOF 5
ENDMDL
MODEL 10
REMARK VINA RESULT:      -6.2     18.140     19.702
REMARK  Name = 45360871
REMARK  7 active torsions:
REMARK  status: ('A' for Active; 'I' for Inactive)
REMARK    1  A    between atoms: N_3  and  C_16
REMARK    2  A    between atoms: N_4  and  C_15
REMARK    3  A    between atoms: C_11  and  C_14
REMARK    4  A    between atoms: C_14  and  C_17
REMARK    5  A    between atoms: C_15  and  C_18
REMARK    6  A    between atoms: C_17  and  C_19
REMARK    7  A    between atoms: C_28  and  C_29
REMARK                            x       y       z     vdW  Elec       q    Type
REMARK                         _______ _______ _______ _____ _____    ______ ____
ROOT
ATOM      1  O   UNL     1      -8.683  -9.384  14.818  0.00  0.00    -0.274 OA
ATOM      3  N   UNL     1      -6.913 -11.737  17.332  0.00  0.00    -0.296 NA
ATOM      4  N   UNL     1      -9.572  -9.224  17.363  0.00  0.00    -0.286 NA
ATOM      5  N   UNL     1      -6.483  -9.648  15.390  0.00  0.00    -0.312 N 
ATOM      7  C   UNL     1      -7.762 -10.717  17.985  0.00  0.00    +0.084 C 
ATOM      8  C   UNL     1      -8.122  -9.430  17.186  0.00  0.00    +0.161 C 
ATOM      9  C   UNL     1      -9.152 -11.235  18.402  0.00  0.00    +0.036 C 
ATOM     10  C   UNL     1      -9.969  -9.969  18.553  0.00  0.00    +0.087 C 
ATOM     11  C   UNL     1      -5.536 -11.273  17.001  0.00  0.00    +0.074 C 
ATOM     12  C   UNL     1      -7.823  -9.493  15.691  0.00  0.00    +0.232 C 
ATOM     13  C   UNL     1      -5.457  -9.860  16.391  0.00  0.00    +0.123 C 
ATOM     16  C   UNL     1      -6.855 -12.967  18.140  0.00  0.00    +0.105 C 
ATOM     30  H   UNL     1      -6.208  -9.618  14.413  0.00  0.00    +0.149 HD
ENDROOT
BRANCH  11  14
ATOM     14  C   UNL     1      -4.863 -12.245  16.009  0.00  0.00    +0.029 C 
BRANCH  14  17
ATOM     17  C   UNL     1      -3.507 -11.741  15.554  0.00  0.00    +0.097 C 
BRANCH  17  19
ATOM      2  O   UNL     1      -2.555 -13.604  14.417  0.00  0.00    -0.276 OA
ATOM      6  N   UNL     1      -3.186 -11.792  13.130  0.00  0.00    -0.301 N 
ATOM     19  C   UNL     1      -3.037 -12.475  14.324  0.00  0.00    +0.216 C 
ATOM     20  C   UNL     1      -3.751 -10.459  12.952  0.00  0.00    +0.108 C 
ATOM     21  C   UNL     1      -2.776 -12.360  11.853  0.00  0.00    +0.108 C 
ATOM     22  C   UNL     1      -3.418 -10.094  11.512  0.00  0.00    +0.020 C 
ATOM     23  C   UNL     1      -3.403 -11.446  10.812  0.00  0.00    +0.020 C 
ENDBRANCH  17  19
ENDBRANCH  14  17
ENDBRANCH  11  14
BRANCH   4  15
ATOM     15  C   UNL     1      -9.949  -7.818  17.446  0.00  0.00    +0.120 C 
BRANCH  15  18
ATOM     18  C   UNL     1     -11.029  -7.469  16.456  0.00  0.00    -0.033 A 
ATOM     24  C   UNL     1     -11.931  -8.445  16.033  0.00  0.00    +0.005 A 
ATOM     25  C   UNL     1     -11.126  -6.169  15.960  0.00  0.00    +0.005 A 
ATOM     26  C   UNL     1     -12.929  -8.122  15.115  0.00  0.00    +0.003 A 
ATOM     27  C   UNL     1     -12.124  -5.845  15.041  0.00  0.00    +0.003 A 
ATOM     28  C   UNL     1     -13.026  -6.822  14.619  0.00  0.00    -0.050 A 
ATOM     29  C   UNL     1     -14.093  -6.477  13.636  0.00  0.00    +0.044 C 
ENDBRANCH  15  18
ENDBRANCH   4  15
TORSDOF 5
ENDMDL
