REMARK  Name = 75536656
REMARK  7 active torsions:
REMARK  status: ('A' for Active; 'I' for Inactive)
REMARK    1  A    between atoms: S_1  and  N_9
REMARK    2  A    between atoms: S_1  and  C_21
REMARK    3  A    between atoms: O_5  and  C_12
REMARK    4  A    between atoms: N_8  and  C_10
REMARK    5  A    between atoms: N_8  and  C_11
REMARK    6  A    between atoms: N_9  and  C_20
REMARK    7  A    between atoms: C_13  and  C_20
REMARK                            x       y       z     vdW  Elec       q    Type
REMARK                         _______ _______ _______ _____ _____    ______ ____
ROOT
ATOM      4  O   UNL     1       1.758   0.906   0.585  0.00  0.00    -0.371 OA
ATOM     10  C   UNL     1      -0.258  -0.241   0.071  0.00  0.00    +0.111 C 
ATOM     12  C   UNL     1       0.921  -1.081  -0.388  0.00  0.00    +0.164 C 
ATOM     13  C   UNL     1       2.043  -0.497   0.459  0.00  0.00    +0.164 C 
ATOM     16  C   UNL     1       0.386   1.128   0.213  0.00  0.00    +0.181 C 
ENDROOT
BRANCH  12   5
ATOM      5  O   UNL     1       0.737  -2.461  -0.140  0.00  0.00    -0.388 OA
ATOM     23  H   UNL     1       0.561  -2.581   0.809  0.00  0.00    +0.210 HD
ENDBRANCH  12   5
BRANCH  10   8
ATOM      8  N   UNL     1      -1.375  -0.248  -0.859  0.00  0.00    -0.306 NA
ATOM     22  H   UNL     1      -1.544  -1.193  -1.201  0.00  0.00    +0.123 HD
BRANCH   8  11
ATOM      2  F   UNL     1      -6.593   0.725   0.813  0.00  0.00    -0.206 F 
ATOM      3  F   UNL     1      -5.921  -0.803  -0.580  0.00  0.00    -0.206 F 
ATOM     11  C   UNL     1      -2.582   0.275  -0.222  0.00  0.00    +0.054 C 
ATOM     14  C   UNL     1      -3.235  -0.818   0.633  0.00  0.00    +0.024 C 
ATOM     15  C   UNL     1      -3.550   0.797  -1.291  0.00  0.00    +0.024 C 
ATOM     17  C   UNL     1      -4.540  -0.329   1.258  0.00  0.00    +0.077 C 
ATOM     18  C   UNL     1      -4.856   1.287  -0.666  0.00  0.00    +0.077 C 
ATOM     19  C   UNL     1      -5.491   0.217   0.206  0.00  0.00    +0.249 C 
ENDBRANCH   8  11
ENDBRANCH  10   8
BRANCH  13  20
ATOM     20  C   UNL     1       3.419  -0.687  -0.154  0.00  0.00    +0.139 C 
BRANCH  20   9
ATOM      9  N   UNL     1       4.442  -0.094   0.729  0.00  0.00    -0.192 NA
ATOM     24  H   UNL     1       4.539  -0.585   1.628  0.00  0.00    +0.148 HD
BRANCH   9   1
ATOM      1  S   UNL     1       5.881   0.513   0.043  0.00  0.00    +0.027 S 
ATOM      6  O   UNL     1       6.857   0.763   1.086  0.00  0.00    -0.158 OA
ATOM      7  O   UNL     1       5.533   1.549  -0.911  0.00  0.00    -0.158 OA
ATOM     21  C   UNL     1       6.423  -0.903  -0.886  0.00  0.00    +0.214 C 
ENDBRANCH   9   1
ENDBRANCH  20   9
ENDBRANCH  13  20
TORSDOF 6
