MODEL 1
REMARK VINA RESULT:      -6.5      0.000      0.000
REMARK  Name = 25389533
REMARK  9 active torsions:
REMARK  status: ('A' for Active; 'I' for Inactive)
REMARK    1  A    between atoms: O_1  and  C_16
REMARK    2  A    between atoms: O_1  and  C_21
REMARK    3  A    between atoms: O_3  and  C_36
REMARK    4  A    between atoms: O_3  and  C_37
REMARK    5  A    between atoms: N_5  and  C_19
REMARK    6  A    between atoms: N_7  and  C_27
REMARK    7  A    between atoms: C_9  and  C_15
REMARK    8  A    between atoms: C_10  and  C_16
REMARK    9  A    between atoms: C_18  and  C_20
REMARK                            x       y       z     vdW  Elec       q    Type
REMARK                         _______ _______ _______ _____ _____    ______ ____
ROOT
ATOM      4  N   UNL     1      -6.170 -10.328  17.832  0.00  0.00    -0.296 NA
ATOM      8  C   UNL     1      -4.493 -12.141  17.007  0.00  0.00    +0.002 C 
ATOM      9  C   UNL     1      -4.126 -10.751  16.416  0.00  0.00    +0.055 C 
ATOM     10  C   UNL     1      -6.911 -11.500  17.300  0.00  0.00    +0.095 C 
ATOM     11  C   UNL     1      -5.944 -12.492  16.619  0.00  0.00    +0.026 C 
ATOM     12  C   UNL     1      -4.457 -11.994  18.544  0.00  0.00    +0.019 C 
ATOM     13  C   UNL     1      -5.277  -9.772  16.786  0.00  0.00    +0.094 C 
ATOM     14  C   UNL     1      -5.327 -10.796  18.959  0.00  0.00    +0.085 C 
ENDROOT
BRANCH   9  15
ATOM      5  N   UNL     1      -2.460 -10.636  14.505  0.00  0.00    -0.270 N 
ATOM      6  N   UNL     1      -2.342 -10.567  13.168  0.00  0.00    -0.171 NA
ATOM     15  C   UNL     1      -3.751 -10.672  14.943  0.00  0.00    +0.044 A 
ATOM     17  C   UNL     1      -4.532 -10.621  13.815  0.00  0.00    +0.053 A 
ATOM     18  C   UNL     1      -3.611 -10.558  12.752  0.00  0.00    +0.093 A 
ATOM     19  C   UNL     1      -1.266 -10.664  15.318  0.00  0.00    +0.172 C 
BRANCH  18  20
ATOM     20  C   UNL     1      -3.920 -10.487  11.348  0.00  0.00    +0.003 A 
ATOM     22  C   UNL     1      -4.355 -11.628  10.672  0.00  0.00    +0.018 A 
ATOM     23  C   UNL     1      -3.788  -9.282  10.666  0.00  0.00    +0.011 A 
ATOM     24  C   UNL     1      -4.661 -11.576   9.302  0.00  0.00    -0.017 A 
ATOM     25  C   UNL     1      -4.088  -9.211   9.306  0.00  0.00    +0.009 A 
ATOM     26  C   UNL     1      -4.525 -10.349   8.609  0.00  0.00    -0.018 A 
ATOM     28  C   UNL     1      -5.100 -12.714   8.605  0.00  0.00    +0.008 A 
ATOM     29  C   UNL     1      -4.832 -10.297   7.239  0.00  0.00    +0.008 A 
ATOM     32  C   UNL     1      -5.400 -12.643   7.244  0.00  0.00    +0.001 A 
ATOM     33  C   UNL     1      -5.266 -11.437   6.563  0.00  0.00    +0.001 A 
ENDBRANCH  18  20
ENDBRANCH   9  15
BRANCH  10  16
ATOM     16  C   UNL     1      -8.057 -11.093  16.371  0.00  0.00    +0.252 C 
BRANCH  16   1
ATOM      1  O   UNL     1      -7.791 -11.608  15.081  0.00  0.00    -0.449 OA
BRANCH   1  21
ATOM      2  O   UNL     1      -9.266 -10.155  14.109  0.00  0.00    -0.226 OA
ATOM      7  N   UNL     1      -7.544 -11.165  12.887  0.00  0.00    -0.251 N 
ATOM     21  C   UNL     1      -8.296 -10.897  14.015  0.00  0.00    +0.405 C 
ATOM     38  H   UNL     1      -6.768 -11.813  13.007  0.00  0.00    +0.158 HD
BRANCH   7  27
ATOM     27  C   UNL     1      -7.716 -10.649  11.583  0.00  0.00    +0.037 A 
ATOM     30  C   UNL     1      -7.441  -9.306  11.322  0.00  0.00    +0.027 A 
ATOM     31  C   UNL     1      -8.161 -11.481  10.557  0.00  0.00    +0.027 A 
ATOM     34  C   UNL     1      -7.612  -8.797  10.035  0.00  0.00    +0.047 A 
ATOM     35  C   UNL     1      -8.331 -10.972   9.269  0.00  0.00    +0.047 A 
ATOM     36  C   UNL     1      -8.056  -9.630   9.009  0.00  0.00    +0.120 A 
BRANCH  36   3
ATOM      3  O   UNL     1      -8.222  -9.132   7.752  0.00  0.00    -0.495 OA
ATOM     37  C   UNL     1      -7.899  -7.757   7.551  0.00  0.00    +0.277 C 
ENDBRANCH  36   3
ENDBRANCH   7  27
ENDBRANCH   1  21
ENDBRANCH  16   1
ENDBRANCH  10  16
TORSDOF 7
ENDMDL
MODEL 2
REMARK VINA RESULT:      -6.2      1.828      4.346
REMARK  Name = 25389533
REMARK  9 active torsions:
REMARK  status: ('A' for Active; 'I' for Inactive)
REMARK    1  A    between atoms: O_1  and  C_16
REMARK    2  A    between atoms: O_1  and  C_21
REMARK    3  A    between atoms: O_3  and  C_36
REMARK    4  A    between atoms: O_3  and  C_37
REMARK    5  A    between atoms: N_5  and  C_19
REMARK    6  A    between atoms: N_7  and  C_27
REMARK    7  A    between atoms: C_9  and  C_15
REMARK    8  A    between atoms: C_10  and  C_16
REMARK    9  A    between atoms: C_18  and  C_20
REMARK                            x       y       z     vdW  Elec       q    Type
REMARK                         _______ _______ _______ _____ _____    ______ ____
ROOT
ATOM      4  N   UNL     1      -4.473 -12.365  17.227  0.00  0.00    -0.296 NA
ATOM      8  C   UNL     1      -5.797 -10.125  17.329  0.00  0.00    +0.002 C 
ATOM      9  C   UNL     1      -6.588 -11.187  16.516  0.00  0.00    +0.055 C 
ATOM     10  C   UNL     1      -3.589 -11.235  16.842  0.00  0.00    +0.095 C 
ATOM     11  C   UNL     1      -4.404  -9.931  16.696  0.00  0.00    +0.026 C 
ATOM     12  C   UNL     1      -5.577 -10.716  18.738  0.00  0.00    +0.019 C 
ATOM     13  C   UNL     1      -5.653 -12.417  16.329  0.00  0.00    +0.094 C 
ATOM     14  C   UNL     1      -4.953 -12.117  18.608  0.00  0.00    +0.085 C 
ENDROOT
BRANCH   9  15
ATOM      5  N   UNL     1      -8.327  -9.931  15.161  0.00  0.00    -0.270 N 
ATOM      6  N   UNL     1      -8.753  -9.669  13.914  0.00  0.00    -0.171 NA
ATOM     15  C   UNL     1      -7.241 -10.754  15.212  0.00  0.00    +0.044 A 
ATOM     17  C   UNL     1      -6.935 -11.052  13.907  0.00  0.00    +0.053 A 
ATOM     18  C   UNL     1      -7.898 -10.357  13.152  0.00  0.00    +0.093 A 
ATOM     19  C   UNL     1      -9.026  -9.346  16.283  0.00  0.00    +0.172 C 
BRANCH  18  20
ATOM     20  C   UNL     1      -8.019 -10.339  11.717  0.00  0.00    +0.003 A 
ATOM     22  C   UNL     1      -7.758  -9.164  11.011  0.00  0.00    +0.018 A 
ATOM     23  C   UNL     1      -8.394 -11.493  11.036  0.00  0.00    +0.011 A 
ATOM     24  C   UNL     1      -7.871  -9.129   9.611  0.00  0.00    -0.017 A 
ATOM     25  C   UNL     1      -8.511 -11.476   9.646  0.00  0.00    +0.009 A 
ATOM     26  C   UNL     1      -8.253 -10.303   8.919  0.00  0.00    -0.018 A 
ATOM     28  C   UNL     1      -7.612  -7.956   8.884  0.00  0.00    +0.008 A 
ATOM     29  C   UNL     1      -8.365 -10.269   7.519  0.00  0.00    +0.008 A 
ATOM     32  C   UNL     1      -7.729  -7.940   7.493  0.00  0.00    +0.001 A 
ATOM     33  C   UNL     1      -8.105  -9.095   6.813  0.00  0.00    +0.001 A 
ENDBRANCH  18  20
ENDBRANCH   9  15
BRANCH  10  16
ATOM     16  C   UNL     1      -2.768 -11.537  15.586  0.00  0.00    +0.252 C 
BRANCH  16   1
ATOM      1  O   UNL     1      -2.989 -10.502  14.648  0.00  0.00    -0.449 OA
BRANCH   1  21
ATOM      2  O   UNL     1      -2.030 -11.610  12.892  0.00  0.00    -0.226 OA
ATOM      7  N   UNL     1      -3.863 -10.185  12.598  0.00  0.00    -0.251 N 
ATOM     21  C   UNL     1      -2.883 -10.841  13.317  0.00  0.00    +0.405 C 
ATOM     38  H   UNL     1      -4.486  -9.582  13.131  0.00  0.00    +0.158 HD
BRANCH   7  27
ATOM     27  C   UNL     1      -4.112 -10.248  11.208  0.00  0.00    +0.037 A 
ATOM     30  C   UNL     1      -3.918  -9.118  10.413  0.00  0.00    +0.027 A 
ATOM     31  C   UNL     1      -4.554 -11.438  10.631  0.00  0.00    +0.027 A 
ATOM     34  C   UNL     1      -4.164  -9.180   9.041  0.00  0.00    +0.047 A 
ATOM     35  C   UNL     1      -4.800 -11.500   9.260  0.00  0.00    +0.047 A 
ATOM     36  C   UNL     1      -4.604 -10.371   8.465  0.00  0.00    +0.120 A 
BRANCH  36   3
ATOM      3  O   UNL     1      -4.845 -10.430   7.126  0.00  0.00    -0.495 OA
ATOM     37  C   UNL     1      -5.016 -11.726   6.555  0.00  0.00    +0.277 C 
ENDBRANCH  36   3
ENDBRANCH   7  27
ENDBRANCH   1  21
ENDBRANCH  16   1
ENDBRANCH  10  16
TORSDOF 7
ENDMDL
MODEL 3
REMARK VINA RESULT:      -6.1     27.444     30.668
REMARK  Name = 25389533
REMARK  9 active torsions:
REMARK  status: ('A' for Active; 'I' for Inactive)
REMARK    1  A    between atoms: O_1  and  C_16
REMARK    2  A    between atoms: O_1  and  C_21
REMARK    3  A    between atoms: O_3  and  C_36
REMARK    4  A    between atoms: O_3  and  C_37
REMARK    5  A    between atoms: N_5  and  C_19
REMARK    6  A    between atoms: N_7  and  C_27
REMARK    7  A    between atoms: C_9  and  C_15
REMARK    8  A    between atoms: C_10  and  C_16
REMARK    9  A    between atoms: C_18  and  C_20
REMARK                            x       y       z     vdW  Elec       q    Type
REMARK                         _______ _______ _______ _____ _____    ______ ____
ROOT
ATOM      4  N   UNL     1      12.529   9.335  19.536  0.00  0.00    -0.296 NA
ATOM      8  C   UNL     1      13.209   7.951  21.635  0.00  0.00    +0.002 C 
ATOM      9  C   UNL     1      14.282   9.031  21.324  0.00  0.00    +0.055 C 
ATOM     10  C   UNL     1      12.427   7.882  19.241  0.00  0.00    +0.095 C 
ATOM     11  C   UNL     1      13.020   7.049  20.397  0.00  0.00    +0.026 C 
ATOM     12  C   UNL     1      11.876   8.700  21.857  0.00  0.00    +0.019 C 
ATOM     13  C   UNL     1      13.911   9.673  19.956  0.00  0.00    +0.094 C 
ATOM     14  C   UNL     1      11.615   9.635  20.665  0.00  0.00    +0.085 C 
ENDROOT
BRANCH   9  15
ATOM      5  N   UNL     1      16.747   9.506  21.699  0.00  0.00    -0.270 N 
ATOM      6  N   UNL     1      17.971   8.952  21.709  0.00  0.00    -0.171 NA
ATOM     15  C   UNL     1      15.748   8.628  21.394  0.00  0.00    +0.044 A 
ATOM     17  C   UNL     1      16.362   7.417  21.190  0.00  0.00    +0.053 A 
ATOM     18  C   UNL     1      17.730   7.676  21.398  0.00  0.00    +0.093 A 
ATOM     19  C   UNL     1      16.606  10.912  21.995  0.00  0.00    +0.172 C 
BRANCH  18  20
ATOM     20  C   UNL     1      18.810   6.729  21.302  0.00  0.00    +0.003 A 
ATOM     22  C   UNL     1      19.787   6.683  22.298  0.00  0.00    +0.018 A 
ATOM     23  C   UNL     1      18.878   5.858  20.219  0.00  0.00    +0.011 A 
ATOM     24  C   UNL     1      20.847   5.765  22.220  0.00  0.00    -0.017 A 
ATOM     25  C   UNL     1      19.923   4.939  20.125  0.00  0.00    +0.009 A 
ATOM     26  C   UNL     1      20.916   4.880  21.117  0.00  0.00    -0.018 A 
ATOM     28  C   UNL     1      21.839   5.705  23.212  0.00  0.00    +0.008 A 
ATOM     29  C   UNL     1      21.975   3.961  21.040  0.00  0.00    +0.008 A 
ATOM     32  C   UNL     1      22.884   4.785  23.118  0.00  0.00    +0.001 A 
ATOM     33  C   UNL     1      22.952   3.916  22.034  0.00  0.00    +0.001 A 
ENDBRANCH  18  20
ENDBRANCH   9  15
BRANCH  10  16
ATOM     16  C   UNL     1      13.052   7.515  17.894  0.00  0.00    +0.252 C 
BRANCH  16   1
ATOM      1  O   UNL     1      12.471   8.328  16.894  0.00  0.00    -0.449 OA
BRANCH   1  21
ATOM      2  O   UNL     1      13.912   8.459  15.123  0.00  0.00    -0.226 OA
ATOM      7  N   UNL     1      13.429  10.319  16.459  0.00  0.00    -0.251 N 
ATOM     21  C   UNL     1      13.338   8.999  16.060  0.00  0.00    +0.405 C 
ATOM     38  H   UNL     1      12.871  10.584  17.268  0.00  0.00    +0.158 HD
BRANCH   7  27
ATOM     27  C   UNL     1      14.204  11.351  15.884  0.00  0.00    +0.037 A 
ATOM     30  C   UNL     1      15.382  11.767  16.503  0.00  0.00    +0.027 A 
ATOM     31  C   UNL     1      13.790  11.954  14.697  0.00  0.00    +0.027 A 
ATOM     34  C   UNL     1      16.146  12.786  15.935  0.00  0.00    +0.047 A 
ATOM     35  C   UNL     1      14.554  12.973  14.129  0.00  0.00    +0.047 A 
ATOM     36  C   UNL     1      15.732  13.389  14.748  0.00  0.00    +0.120 A 
BRANCH  36   3
ATOM      3  O   UNL     1      16.479  14.384  14.193  0.00  0.00    -0.495 OA
ATOM     37  C   UNL     1      17.740  14.663  14.799  0.00  0.00    +0.277 C 
ENDBRANCH  36   3
ENDBRANCH   7  27
ENDBRANCH   1  21
ENDBRANCH  16   1
ENDBRANCH  10  16
TORSDOF 7
ENDMDL
MODEL 4
REMARK VINA RESULT:      -6.0      3.344      6.470
REMARK  Name = 25389533
REMARK  9 active torsions:
REMARK  status: ('A' for Active; 'I' for Inactive)
REMARK    1  A    between atoms: O_1  and  C_16
REMARK    2  A    between atoms: O_1  and  C_21
REMARK    3  A    between atoms: O_3  and  C_36
REMARK    4  A    between atoms: O_3  and  C_37
REMARK    5  A    between atoms: N_5  and  C_19
REMARK    6  A    between atoms: N_7  and  C_27
REMARK    7  A    between atoms: C_9  and  C_15
REMARK    8  A    between atoms: C_10  and  C_16
REMARK    9  A    between atoms: C_18  and  C_20
REMARK                            x       y       z     vdW  Elec       q    Type
REMARK                         _______ _______ _______ _____ _____    ______ ____
ROOT
ATOM      4  N   UNL     1     -11.585 -11.775  18.469  0.00  0.00    -0.296 NA
ATOM      8  C   UNL     1     -11.425  -9.326  17.597  0.00  0.00    +0.002 C 
ATOM      9  C   UNL     1     -11.392 -10.329  16.411  0.00  0.00    +0.055 C 
ATOM     10  C   UNL     1     -10.531 -11.039  19.213  0.00  0.00    +0.095 C 
ATOM     11  C   UNL     1     -10.279  -9.656  18.576  0.00  0.00    +0.026 C 
ATOM     12  C   UNL     1     -12.750  -9.573  18.351  0.00  0.00    +0.019 C 
ATOM     13  C   UNL     1     -11.287 -11.759  17.015  0.00  0.00    +0.094 C 
ATOM     14  C   UNL     1     -12.872 -11.069  18.685  0.00  0.00    +0.085 C 
ENDROOT
BRANCH   9  15
ATOM      5  N   UNL     1     -10.606  -9.259  14.247  0.00  0.00    -0.270 N 
ATOM      6  N   UNL     1      -9.586  -9.192  13.376  0.00  0.00    -0.171 NA
ATOM     15  C   UNL     1     -10.378 -10.095  15.300  0.00  0.00    +0.044 A 
ATOM     17  C   UNL     1      -9.121 -10.612  15.103  0.00  0.00    +0.053 A 
ATOM     18  C   UNL     1      -8.681 -10.021  13.904  0.00  0.00    +0.093 A 
ATOM     19  C   UNL     1     -11.797  -8.479  14.002  0.00  0.00    +0.172 C 
BRANCH  18  20
ATOM     20  C   UNL     1      -7.415 -10.234  13.252  0.00  0.00    +0.003 A 
ATOM     22  C   UNL     1      -6.927  -9.286  12.351  0.00  0.00    +0.018 A 
ATOM     23  C   UNL     1      -6.678 -11.383  13.522  0.00  0.00    +0.011 A 
ATOM     24  C   UNL     1      -5.694  -9.479  11.707  0.00  0.00    -0.017 A 
ATOM     25  C   UNL     1      -5.452 -11.590  12.892  0.00  0.00    +0.009 A 
ATOM     26  C   UNL     1      -4.945 -10.648  11.981  0.00  0.00    -0.018 A 
ATOM     28  C   UNL     1      -5.187  -8.536  10.797  0.00  0.00    +0.008 A 
ATOM     29  C   UNL     1      -3.712 -10.840  11.338  0.00  0.00    +0.008 A 
ATOM     32  C   UNL     1      -3.960  -8.744  10.167  0.00  0.00    +0.001 A 
ATOM     33  C   UNL     1      -3.224  -9.894  10.437  0.00  0.00    +0.001 A 
ENDBRANCH  18  20
ENDBRANCH   9  15
BRANCH  10  16
ATOM     16  C   UNL     1      -9.240 -11.848  19.349  0.00  0.00    +0.252 C 
BRANCH  16   1
ATOM      1  O   UNL     1      -8.285 -11.057  20.029  0.00  0.00    -0.449 OA
BRANCH   1  21
ATOM      2  O   UNL     1      -6.029 -11.170  20.382  0.00  0.00    -0.226 OA
ATOM      7  N   UNL     1      -6.946 -11.263  18.231  0.00  0.00    -0.251 N 
ATOM     21  C   UNL     1      -6.978 -11.165  19.609  0.00  0.00    +0.405 C 
ATOM     38  H   UNL     1      -7.847 -11.242  17.757  0.00  0.00    +0.158 HD
BRANCH   7  27
ATOM     27  C   UNL     1      -5.816 -11.390  17.393  0.00  0.00    +0.037 A 
ATOM     30  C   UNL     1      -5.403 -12.651  16.963  0.00  0.00    +0.027 A 
ATOM     31  C   UNL     1      -5.110 -10.254  16.996  0.00  0.00    +0.027 A 
ATOM     34  C   UNL     1      -4.287 -12.776  16.136  0.00  0.00    +0.047 A 
ATOM     35  C   UNL     1      -3.994 -10.379  16.170  0.00  0.00    +0.047 A 
ATOM     36  C   UNL     1      -3.583 -11.640  15.739  0.00  0.00    +0.120 A 
BRANCH  36   3
ATOM      3  O   UNL     1      -2.493 -11.763  14.932  0.00  0.00    -0.495 OA
ATOM     37  C   UNL     1      -1.847 -10.557  14.526  0.00  0.00    +0.277 C 
ENDBRANCH  36   3
ENDBRANCH   7  27
ENDBRANCH   1  21
ENDBRANCH  16   1
ENDBRANCH  10  16
TORSDOF 7
ENDMDL
MODEL 5
REMARK VINA RESULT:      -6.0     27.449     30.657
REMARK  Name = 25389533
REMARK  9 active torsions:
REMARK  status: ('A' for Active; 'I' for Inactive)
REMARK    1  A    between atoms: O_1  and  C_16
REMARK    2  A    between atoms: O_1  and  C_21
REMARK    3  A    between atoms: O_3  and  C_36
REMARK    4  A    between atoms: O_3  and  C_37
REMARK    5  A    between atoms: N_5  and  C_19
REMARK    6  A    between atoms: N_7  and  C_27
REMARK    7  A    between atoms: C_9  and  C_15
REMARK    8  A    between atoms: C_10  and  C_16
REMARK    9  A    between atoms: C_18  and  C_20
REMARK                            x       y       z     vdW  Elec       q    Type
REMARK                         _______ _______ _______ _____ _____    ______ ____
ROOT
ATOM      4  N   UNL     1      13.343   6.937  20.105  0.00  0.00    -0.296 NA
ATOM      8  C   UNL     1      12.171   9.236  19.755  0.00  0.00    +0.002 C 
ATOM      9  C   UNL     1      12.279   8.469  18.408  0.00  0.00    +0.055 C 
ATOM     10  C   UNL     1      14.148   8.017  20.732  0.00  0.00    +0.095 C 
ATOM     11  C   UNL     1      13.581   9.404  20.359  0.00  0.00    +0.026 C 
ATOM     12  C   UNL     1      11.370   8.334  20.718  0.00  0.00    +0.019 C 
ATOM     13  C   UNL     1      13.160   7.212  18.659  0.00  0.00    +0.094 C 
ATOM     14  C   UNL     1      12.007   6.934  20.748  0.00  0.00    +0.085 C 
ENDROOT
BRANCH   9  15
ATOM      5  N   UNL     1      11.941   9.362  16.056  0.00  0.00    -0.270 N 
ATOM      6  N   UNL     1      12.508  10.086  15.076  0.00  0.00    -0.171 NA
ATOM     15  C   UNL     1      12.715   9.244  17.172  0.00  0.00    +0.044 A 
ATOM     17  C   UNL     1      13.870   9.937  16.903  0.00  0.00    +0.053 A 
ATOM     18  C   UNL     1      13.686  10.434  15.600  0.00  0.00    +0.093 A 
ATOM     19  C   UNL     1      10.626   8.800  15.848  0.00  0.00    +0.172 C 
BRANCH  18  20
ATOM     20  C   UNL     1      14.615  11.234  14.844  0.00  0.00    +0.003 A 
ATOM     22  C   UNL     1      15.985  11.124  15.085  0.00  0.00    +0.018 A 
ATOM     23  C   UNL     1      14.147  12.114  13.873  0.00  0.00    +0.011 A 
ATOM     24  C   UNL     1      16.905  11.897  14.357  0.00  0.00    -0.017 A 
ATOM     25  C   UNL     1      15.046  12.889  13.141  0.00  0.00    +0.009 A 
ATOM     26  C   UNL     1      16.428  12.792  13.370  0.00  0.00    -0.018 A 
ATOM     28  C   UNL     1      18.287  11.800  14.586  0.00  0.00    +0.008 A 
ATOM     29  C   UNL     1      17.347  13.564  12.641  0.00  0.00    +0.008 A 
ATOM     32  C   UNL     1      19.186  12.575  13.852  0.00  0.00    +0.001 A 
ATOM     33  C   UNL     1      18.717  13.456  12.882  0.00  0.00    +0.001 A 
ENDBRANCH  18  20
ENDBRANCH   9  15
BRANCH  10  16
ATOM     16  C   UNL     1      15.637   7.903  20.401  0.00  0.00    +0.252 C 
BRANCH  16   1
ATOM      1  O   UNL     1      15.990   6.533  20.394  0.00  0.00    -0.449 OA
BRANCH   1  21
ATOM      2  O   UNL     1      17.391   5.774  18.754  0.00  0.00    -0.226 OA
ATOM      7  N   UNL     1      18.196   6.475  20.837  0.00  0.00    -0.251 N 
ATOM     21  C   UNL     1      17.229   6.215  19.885  0.00  0.00    +0.405 C 
ATOM     38  H   UNL     1      17.865   6.844  21.726  0.00  0.00    +0.158 HD
BRANCH   7  27
ATOM     27  C   UNL     1      19.593   6.293  20.731  0.00  0.00    +0.037 A 
ATOM     30  C   UNL     1      20.448   7.393  20.800  0.00  0.00    +0.027 A 
ATOM     31  C   UNL     1      20.119   5.013  20.557  0.00  0.00    +0.027 A 
ATOM     34  C   UNL     1      21.827   7.214  20.695  0.00  0.00    +0.047 A 
ATOM     35  C   UNL     1      21.498   4.833  20.452  0.00  0.00    +0.047 A 
ATOM     36  C   UNL     1      22.352   5.933  20.521  0.00  0.00    +0.120 A 
BRANCH  36   3
ATOM      3  O   UNL     1      23.698   5.758  20.419  0.00  0.00    -0.495 OA
ATOM     37  C   UNL     1      24.163   4.433  20.165  0.00  0.00    +0.277 C 
ENDBRANCH  36   3
ENDBRANCH   7  27
ENDBRANCH   1  21
ENDBRANCH  16   1
ENDBRANCH  10  16
TORSDOF 7
ENDMDL
MODEL 6
REMARK VINA RESULT:      -5.9      2.143      7.689
REMARK  Name = 25389533
REMARK  9 active torsions:
REMARK  status: ('A' for Active; 'I' for Inactive)
REMARK    1  A    between atoms: O_1  and  C_16
REMARK    2  A    between atoms: O_1  and  C_21
REMARK    3  A    between atoms: O_3  and  C_36
REMARK    4  A    between atoms: O_3  and  C_37
REMARK    5  A    between atoms: N_5  and  C_19
REMARK    6  A    between atoms: N_7  and  C_27
REMARK    7  A    between atoms: C_9  and  C_15
REMARK    8  A    between atoms: C_10  and  C_16
REMARK    9  A    between atoms: C_18  and  C_20
REMARK                            x       y       z     vdW  Elec       q    Type
REMARK                         _______ _______ _______ _____ _____    ______ ____
ROOT
ATOM      4  N   UNL     1      -6.449 -10.574   9.213  0.00  0.00    -0.296 NA
ATOM      8  C   UNL     1      -4.667  -8.871  10.053  0.00  0.00    +0.002 C 
ATOM      9  C   UNL     1      -4.374 -10.288  10.619  0.00  0.00    +0.055 C 
ATOM     10  C   UNL     1      -7.119  -9.371   9.769  0.00  0.00    +0.095 C 
ATOM     11  C   UNL     1      -6.093  -8.445  10.457  0.00  0.00    +0.026 C 
ATOM     12  C   UNL     1      -4.650  -8.995   8.514  0.00  0.00    +0.019 C 
ATOM     13  C   UNL     1      -5.581 -11.195  10.244  0.00  0.00    +0.094 C 
ATOM     14  C   UNL     1      -5.589 -10.136   8.087  0.00  0.00    +0.085 C 
ENDROOT
BRANCH   9  15
ATOM      5  N   UNL     1      -2.709 -10.313  12.535  0.00  0.00    -0.270 N 
ATOM      6  N   UNL     1      -2.585 -10.449  13.866  0.00  0.00    -0.171 NA
ATOM     15  C   UNL     1      -3.994 -10.410  12.088  0.00  0.00    +0.044 A 
ATOM     17  C   UNL     1      -4.764 -10.627  13.204  0.00  0.00    +0.053 A 
ATOM     18  C   UNL     1      -3.844 -10.641  14.269  0.00  0.00    +0.093 A 
ATOM     19  C   UNL     1      -1.527 -10.088  11.735  0.00  0.00    +0.172 C 
BRANCH  18  20
ATOM     20  C   UNL     1      -4.144 -10.836  15.664  0.00  0.00    +0.003 A 
ATOM     22  C   UNL     1      -5.432 -10.591  16.140  0.00  0.00    +0.018 A 
ATOM     23  C   UNL     1      -3.149 -11.270  16.536  0.00  0.00    +0.011 A 
ATOM     24  C   UNL     1      -5.741 -10.777  17.498  0.00  0.00    -0.017 A 
ATOM     25  C   UNL     1      -3.439 -11.460  17.886  0.00  0.00    +0.009 A 
ATOM     26  C   UNL     1      -4.729 -11.218  18.384  0.00  0.00    -0.018 A 
ATOM     28  C   UNL     1      -7.032 -10.535  17.995  0.00  0.00    +0.008 A 
ATOM     29  C   UNL     1      -5.039 -11.404  19.741  0.00  0.00    +0.008 A 
ATOM     32  C   UNL     1      -7.322 -10.726  19.347  0.00  0.00    +0.001 A 
ATOM     33  C   UNL     1      -6.326 -11.159  20.218  0.00  0.00    +0.001 A 
ENDBRANCH  18  20
ENDBRANCH   9  15
BRANCH  10  16
ATOM     16  C   UNL     1      -8.280  -9.727  10.700  0.00  0.00    +0.252 C 
BRANCH  16   1
ATOM      1  O   UNL     1      -7.857  -9.534  12.036  0.00  0.00    -0.449 OA
BRANCH   1  21
ATOM      2  O   UNL     1      -9.403 -10.979  12.901  0.00  0.00    -0.226 OA
ATOM      7  N   UNL     1      -8.622  -9.137  14.116  0.00  0.00    -0.251 N 
ATOM     21  C   UNL     1      -8.705  -9.980  13.025  0.00  0.00    +0.405 C 
ATOM     38  H   UNL     1      -7.979  -8.352  14.030  0.00  0.00    +0.158 HD
BRANCH   7  27
ATOM     27  C   UNL     1      -9.320  -9.227  15.341  0.00  0.00    +0.037 A 
ATOM     30  C   UNL     1      -9.864 -10.446  15.746  0.00  0.00    +0.027 A 
ATOM     31  C   UNL     1      -9.465  -8.098  16.146  0.00  0.00    +0.027 A 
ATOM     34  C   UNL     1     -10.553 -10.535  16.955  0.00  0.00    +0.047 A 
ATOM     35  C   UNL     1     -10.154  -8.187  17.355  0.00  0.00    +0.047 A 
ATOM     36  C   UNL     1     -10.698  -9.405  17.760  0.00  0.00    +0.120 A 
BRANCH  36   3
ATOM      3  O   UNL     1     -11.371  -9.493  18.941  0.00  0.00    -0.495 OA
ATOM     37  C   UNL     1     -10.813 -10.339  19.944  0.00  0.00    +0.277 C 
ENDBRANCH  36   3
ENDBRANCH   7  27
ENDBRANCH   1  21
ENDBRANCH  16   1
ENDBRANCH  10  16
TORSDOF 7
ENDMDL
MODEL 7
REMARK VINA RESULT:      -5.9     24.341     26.868
REMARK  Name = 25389533
REMARK  9 active torsions:
REMARK  status: ('A' for Active; 'I' for Inactive)
REMARK    1  A    between atoms: O_1  and  C_16
REMARK    2  A    between atoms: O_1  and  C_21
REMARK    3  A    between atoms: O_3  and  C_36
REMARK    4  A    between atoms: O_3  and  C_37
REMARK    5  A    between atoms: N_5  and  C_19
REMARK    6  A    between atoms: N_7  and  C_27
REMARK    7  A    between atoms: C_9  and  C_15
REMARK    8  A    between atoms: C_10  and  C_16
REMARK    9  A    between atoms: C_18  and  C_20
REMARK                            x       y       z     vdW  Elec       q    Type
REMARK                         _______ _______ _______ _____ _____    ______ ____
ROOT
ATOM      4  N   UNL     1      10.840   6.064   6.971  0.00  0.00    -0.296 NA
ATOM      8  C   UNL     1       9.584   8.016   5.790  0.00  0.00    +0.002 C 
ATOM      9  C   UNL     1       9.423   6.698   4.983  0.00  0.00    +0.055 C 
ATOM     10  C   UNL     1      11.739   7.239   6.838  0.00  0.00    +0.095 C 
ATOM     11  C   UNL     1      11.085   8.328   5.961  0.00  0.00    +0.026 C 
ATOM     12  C   UNL     1       9.014   7.747   7.199  0.00  0.00    +0.019 C 
ATOM     13  C   UNL     1      10.357   5.638   5.635  0.00  0.00    +0.094 C 
ATOM     14  C   UNL     1       9.665   6.479   7.777  0.00  0.00    +0.085 C 
ENDROOT
BRANCH   9  15
ATOM      5  N   UNL     1       8.921   7.656   2.687  0.00  0.00    -0.270 N 
ATOM      6  N   UNL     1       9.199   7.543   1.377  0.00  0.00    -0.171 NA
ATOM     15  C   UNL     1       9.582   6.757   3.471  0.00  0.00    +0.044 A 
ATOM     17  C   UNL     1      10.345   6.002   2.614  0.00  0.00    +0.053 A 
ATOM     18  C   UNL     1      10.069   6.531   1.339  0.00  0.00    +0.093 A 
ATOM     19  C   UNL     1       7.990   8.670   3.126  0.00  0.00    +0.172 C 
BRANCH  18  20
ATOM     20  C   UNL     1      10.620   6.087   0.085  0.00  0.00    +0.003 A 
ATOM     22  C   UNL     1      10.890   4.733  -0.117  0.00  0.00    +0.018 A 
ATOM     23  C   UNL     1      10.882   7.007  -0.926  0.00  0.00    +0.011 A 
ATOM     24  C   UNL     1      11.427   4.282  -1.335  0.00  0.00    -0.017 A 
ATOM     25  C   UNL     1      11.415   6.578  -2.141  0.00  0.00    +0.009 A 
ATOM     26  C   UNL     1      11.693   5.220  -2.361  0.00  0.00    -0.018 A 
ATOM     28  C   UNL     1      11.704   2.924  -1.556  0.00  0.00    +0.008 A 
ATOM     29  C   UNL     1      12.229   4.769  -3.579  0.00  0.00    +0.008 A 
ATOM     32  C   UNL     1      12.237   2.495  -2.772  0.00  0.00    +0.001 A 
ATOM     33  C   UNL     1      12.500   3.416  -3.781  0.00  0.00    +0.001 A 
ENDBRANCH  18  20
ENDBRANCH   9  15
BRANCH  10  16
ATOM     16  C   UNL     1      13.129   6.854   6.328  0.00  0.00    +0.252 C 
BRANCH  16   1
ATOM      1  O   UNL     1      13.429   7.654   5.201  0.00  0.00    -0.449 OA
BRANCH   1  21
ATOM      2  O   UNL     1      15.467   7.051   4.357  0.00  0.00    -0.226 OA
ATOM      7  N   UNL     1      13.478   6.620   3.201  0.00  0.00    -0.251 N 
ATOM     21  C   UNL     1      14.248   7.094   4.246  0.00  0.00    +0.405 C 
ATOM     38  H   UNL     1      12.472   6.748   3.290  0.00  0.00    +0.158 HD
BRANCH   7  27
ATOM     27  C   UNL     1      13.913   5.976   2.021  0.00  0.00    +0.037 A 
ATOM     30  C   UNL     1      14.028   4.586   1.986  0.00  0.00    +0.027 A 
ATOM     31  C   UNL     1      14.229   6.730   0.891  0.00  0.00    +0.027 A 
ATOM     34  C   UNL     1      14.457   3.951   0.821  0.00  0.00    +0.047 A 
ATOM     35  C   UNL     1      14.658   6.095  -0.274  0.00  0.00    +0.047 A 
ATOM     36  C   UNL     1      14.772   4.706  -0.309  0.00  0.00    +0.120 A 
BRANCH  36   3
ATOM      3  O   UNL     1      15.192   4.085  -1.446  0.00  0.00    -0.495 OA
ATOM     37  C   UNL     1      15.812   4.900  -2.439  0.00  0.00    +0.277 C 
ENDBRANCH  36   3
ENDBRANCH   7  27
ENDBRANCH   1  21
ENDBRANCH  16   1
ENDBRANCH  10  16
TORSDOF 7
ENDMDL
MODEL 8
REMARK VINA RESULT:      -5.9      4.600      7.105
REMARK  Name = 25389533
REMARK  9 active torsions:
REMARK  status: ('A' for Active; 'I' for Inactive)
REMARK    1  A    between atoms: O_1  and  C_16
REMARK    2  A    between atoms: O_1  and  C_21
REMARK    3  A    between atoms: O_3  and  C_36
REMARK    4  A    between atoms: O_3  and  C_37
REMARK    5  A    between atoms: N_5  and  C_19
REMARK    6  A    between atoms: N_7  and  C_27
REMARK    7  A    between atoms: C_9  and  C_15
REMARK    8  A    between atoms: C_10  and  C_16
REMARK    9  A    between atoms: C_18  and  C_20
REMARK                            x       y       z     vdW  Elec       q    Type
REMARK                         _______ _______ _______ _____ _____    ______ ____
ROOT
ATOM      4  N   UNL     1     -12.424 -12.438  18.804  0.00  0.00    -0.296 NA
ATOM      8  C   UNL     1     -10.975 -10.702  20.095  0.00  0.00    +0.002 C 
ATOM      9  C   UNL     1     -10.955 -10.400  18.571  0.00  0.00    +0.055 C 
ATOM     10  C   UNL     1     -11.486 -13.139  19.718  0.00  0.00    +0.095 C 
ATOM     11  C   UNL     1     -10.481 -12.143  20.336  0.00  0.00    +0.026 C 
ATOM     12  C   UNL     1     -12.452 -10.648  20.540  0.00  0.00    +0.019 C 
ATOM     13  C   UNL     1     -11.667 -11.584  17.855  0.00  0.00    +0.094 C 
ATOM     14  C   UNL     1     -13.290 -11.559  19.627  0.00  0.00    +0.085 C 
ENDROOT
BRANCH   9  15
ATOM      5  N   UNL     1      -9.395  -8.874  17.275  0.00  0.00    -0.270 N 
ATOM      6  N   UNL     1      -8.153  -8.760  16.774  0.00  0.00    -0.171 NA
ATOM     15  C   UNL     1      -9.622 -10.052  17.925  0.00  0.00    +0.044 A 
ATOM     17  C   UNL     1      -8.447 -10.758  17.841  0.00  0.00    +0.053 A 
ATOM     18  C   UNL     1      -7.579  -9.914  17.123  0.00  0.00    +0.093 A 
ATOM     19  C   UNL     1     -10.334  -7.791  17.089  0.00  0.00    +0.172 C 
BRANCH  18  20
ATOM     20  C   UNL     1      -6.213 -10.190  16.763  0.00  0.00    +0.003 A 
ATOM     22  C   UNL     1      -5.826 -10.162  15.422  0.00  0.00    +0.018 A 
ATOM     23  C   UNL     1      -5.277 -10.483  17.751  0.00  0.00    +0.011 A 
ATOM     24  C   UNL     1      -4.498 -10.429  15.053  0.00  0.00    -0.017 A 
ATOM     25  C   UNL     1      -3.954 -10.750  17.403  0.00  0.00    +0.009 A 
ATOM     26  C   UNL     1      -3.547 -10.727  16.059  0.00  0.00    -0.018 A 
ATOM     28  C   UNL     1      -4.091 -10.405  13.710  0.00  0.00    +0.008 A 
ATOM     29  C   UNL     1      -2.218 -10.993  15.691  0.00  0.00    +0.008 A 
ATOM     32  C   UNL     1      -2.766 -10.672  13.362  0.00  0.00    +0.001 A 
ATOM     33  C   UNL     1      -1.832 -10.966  14.351  0.00  0.00    +0.001 A 
ENDBRANCH  18  20
ENDBRANCH   9  15
BRANCH  10  16
ATOM     16  C   UNL     1     -10.779 -14.315  19.040  0.00  0.00    +0.252 C 
BRANCH  16   1
ATOM      1  O   UNL     1      -9.387 -14.067  19.052  0.00  0.00    -0.449 OA
BRANCH   1  21
ATOM      2  O   UNL     1      -8.917 -15.642  17.462  0.00  0.00    -0.226 OA
ATOM      7  N   UNL     1      -7.644 -13.690  17.678  0.00  0.00    -0.251 N 
ATOM     21  C   UNL     1      -8.659 -14.571  17.997  0.00  0.00    +0.405 C 
ATOM     38  H   UNL     1      -7.589 -12.843  18.241  0.00  0.00    +0.158 HD
BRANCH   7  27
ATOM     27  C   UNL     1      -6.669 -13.816  16.663  0.00  0.00    +0.037 A 
ATOM     30  C   UNL     1      -7.014 -13.585  15.331  0.00  0.00    +0.027 A 
ATOM     31  C   UNL     1      -5.362 -14.172  16.993  0.00  0.00    +0.027 A 
ATOM     34  C   UNL     1      -6.051 -13.710  14.330  0.00  0.00    +0.047 A 
ATOM     35  C   UNL     1      -4.399 -14.297  15.991  0.00  0.00    +0.047 A 
ATOM     36  C   UNL     1      -4.743 -14.065  14.660  0.00  0.00    +0.120 A 
BRANCH  36   3
ATOM      3  O   UNL     1      -3.804 -14.187  13.682  0.00  0.00    -0.495 OA
ATOM     37  C   UNL     1      -2.489 -14.563  14.089  0.00  0.00    +0.277 C 
ENDBRANCH  36   3
ENDBRANCH   7  27
ENDBRANCH   1  21
ENDBRANCH  16   1
ENDBRANCH  10  16
TORSDOF 7
ENDMDL
MODEL 9
REMARK VINA RESULT:      -5.8     26.508     27.953
REMARK  Name = 25389533
REMARK  9 active torsions:
REMARK  status: ('A' for Active; 'I' for Inactive)
REMARK    1  A    between atoms: O_1  and  C_16
REMARK    2  A    between atoms: O_1  and  C_21
REMARK    3  A    between atoms: O_3  and  C_36
REMARK    4  A    between atoms: O_3  and  C_37
REMARK    5  A    between atoms: N_5  and  C_19
REMARK    6  A    between atoms: N_7  and  C_27
REMARK    7  A    between atoms: C_9  and  C_15
REMARK    8  A    between atoms: C_10  and  C_16
REMARK    9  A    between atoms: C_18  and  C_20
REMARK                            x       y       z     vdW  Elec       q    Type
REMARK                         _______ _______ _______ _____ _____    ______ ____
ROOT
ATOM      4  N   UNL     1      15.128  -7.327  32.132  0.00  0.00    -0.296 NA
ATOM      8  C   UNL     1      13.502  -7.060  30.115  0.00  0.00    +0.002 C 
ATOM      9  C   UNL     1      14.735  -7.914  29.710  0.00  0.00    +0.055 C 
ATOM     10  C   UNL     1      14.774  -5.896  31.951  0.00  0.00    +0.095 C 
ATOM     11  C   UNL     1      13.981  -5.692  30.643  0.00  0.00    +0.026 C 
ATOM     12  C   UNL     1      12.824  -7.789  31.295  0.00  0.00    +0.019 C 
ATOM     13  C   UNL     1      15.746  -7.859  30.892  0.00  0.00    +0.094 C 
ATOM     14  C   UNL     1      13.874  -8.078  32.382  0.00  0.00    +0.085 C 
ENDROOT
BRANCH   9  15
ATOM      5  N   UNL     1      15.851  -8.613  27.540  0.00  0.00    -0.270 N 
ATOM      6  N   UNL     1      16.404  -8.154  26.405  0.00  0.00    -0.171 NA
ATOM     15  C   UNL     1      15.398  -7.630  28.370  0.00  0.00    +0.044 A 
ATOM     17  C   UNL     1      15.675  -6.445  27.734  0.00  0.00    +0.053 A 
ATOM     18  C   UNL     1      16.294  -6.829  26.529  0.00  0.00    +0.093 A 
ATOM     19  C   UNL     1      15.790 -10.038  27.769  0.00  0.00    +0.172 C 
BRANCH  18  20
ATOM     20  C   UNL     1      16.783  -5.954  25.496  0.00  0.00    +0.003 A 
ATOM     22  C   UNL     1      16.246  -4.673  25.354  0.00  0.00    +0.018 A 
ATOM     23  C   UNL     1      17.793  -6.384  24.639  0.00  0.00    +0.011 A 
ATOM     24  C   UNL     1      16.712  -3.807  24.352  0.00  0.00    -0.017 A 
ATOM     25  C   UNL     1      18.268  -5.537  23.639  0.00  0.00    +0.009 A 
ATOM     26  C   UNL     1      17.739  -4.246  23.481  0.00  0.00    -0.018 A 
ATOM     28  C   UNL     1      16.184  -2.516  24.195  0.00  0.00    +0.008 A 
ATOM     29  C   UNL     1      18.206  -3.379  22.479  0.00  0.00    +0.008 A 
ATOM     32  C   UNL     1      16.660  -1.669  23.194  0.00  0.00    +0.001 A 
ATOM     33  C   UNL     1      17.668  -2.100  22.337  0.00  0.00    +0.001 A 
ENDBRANCH  18  20
ENDBRANCH   9  15
BRANCH  10  16
ATOM     16  C   UNL     1      15.996  -4.978  32.026  0.00  0.00    +0.252 C 
BRANCH  16   1
ATOM      1  O   UNL     1      15.595  -3.670  31.669  0.00  0.00    -0.449 OA
BRANCH   1  21
ATOM      2  O   UNL     1      16.496  -1.801  30.707  0.00  0.00    -0.226 OA
ATOM      7  N   UNL     1      16.944  -3.947  29.888  0.00  0.00    -0.251 N 
ATOM     21  C   UNL     1      16.370  -3.018  30.735  0.00  0.00    +0.405 C 
ATOM     38  H   UNL     1      16.721  -4.922  30.071  0.00  0.00    +0.158 HD
BRANCH   7  27
ATOM     27  C   UNL     1      17.807  -3.710  28.794  0.00  0.00    +0.037 A 
ATOM     30  C   UNL     1      17.721  -2.513  28.083  0.00  0.00    +0.027 A 
ATOM     31  C   UNL     1      18.744  -4.675  28.423  0.00  0.00    +0.027 A 
ATOM     34  C   UNL     1      18.573  -2.280  27.003  0.00  0.00    +0.047 A 
ATOM     35  C   UNL     1      19.595  -4.441  27.343  0.00  0.00    +0.047 A 
ATOM     36  C   UNL     1      19.510  -3.244  26.634  0.00  0.00    +0.120 A 
BRANCH  36   3
ATOM      3  O   UNL     1      20.341  -3.016  25.579  0.00  0.00    -0.495 OA
ATOM     37  C   UNL     1      21.353  -3.990  25.329  0.00  0.00    +0.277 C 
ENDBRANCH  36   3
ENDBRANCH   7  27
ENDBRANCH   1  21
ENDBRANCH  16   1
ENDBRANCH  10  16
TORSDOF 7
ENDMDL
MODEL 10
REMARK VINA RESULT:      -5.8     20.723     24.578
REMARK  Name = 25389533
REMARK  9 active torsions:
REMARK  status: ('A' for Active; 'I' for Inactive)
REMARK    1  A    between atoms: O_1  and  C_16
REMARK    2  A    between atoms: O_1  and  C_21
REMARK    3  A    between atoms: O_3  and  C_36
REMARK    4  A    between atoms: O_3  and  C_37
REMARK    5  A    between atoms: N_5  and  C_19
REMARK    6  A    between atoms: N_7  and  C_27
REMARK    7  A    between atoms: C_9  and  C_15
REMARK    8  A    between atoms: C_10  and  C_16
REMARK    9  A    between atoms: C_18  and  C_20
REMARK                            x       y       z     vdW  Elec       q    Type
REMARK                         _______ _______ _______ _____ _____    ______ ____
ROOT
ATOM      4  N   UNL     1       5.399 -15.834  31.035  0.00  0.00    -0.296 NA
ATOM      8  C   UNL     1       4.856 -13.737  29.589  0.00  0.00    +0.002 C 
ATOM      9  C   UNL     1       6.361 -13.756  29.977  0.00  0.00    +0.055 C 
ATOM     10  C   UNL     1       4.211 -15.131  31.586  0.00  0.00    +0.095 C 
ATOM     11  C   UNL     1       3.999 -13.779  30.871  0.00  0.00    +0.026 C 
ATOM     12  C   UNL     1       4.580 -15.044  28.815  0.00  0.00    +0.019 C 
ATOM     13  C   UNL     1       6.562 -14.914  30.996  0.00  0.00    +0.094 C 
ATOM     14  C   UNL     1       5.083 -16.239  29.643  0.00  0.00    +0.085 C 
ENDROOT
BRANCH   9  15
ATOM      5  N   UNL     1       8.306 -12.143  30.215  0.00  0.00    -0.270 N 
ATOM      6  N   UNL     1       8.674 -10.949  30.711  0.00  0.00    -0.171 NA
ATOM     15  C   UNL     1       6.999 -12.456  30.446  0.00  0.00    +0.044 A 
ATOM     17  C   UNL     1       6.476 -11.394  31.142  0.00  0.00    +0.053 A 
ATOM     18  C   UNL     1       7.552 -10.497  31.276  0.00  0.00    +0.093 A 
ATOM     19  C   UNL     1       9.281 -12.949  29.517  0.00  0.00    +0.172 C 
BRANCH  18  20
ATOM     20  C   UNL     1       7.529  -9.217  31.935  0.00  0.00    +0.003 A 
ATOM     22  C   UNL     1       8.656  -8.769  32.626  0.00  0.00    +0.018 A 
ATOM     23  C   UNL     1       6.385  -8.427  31.882  0.00  0.00    +0.011 A 
ATOM     24  C   UNL     1       8.650  -7.522  33.274  0.00  0.00    -0.017 A 
ATOM     25  C   UNL     1       6.361  -7.187  32.519  0.00  0.00    +0.009 A 
ATOM     26  C   UNL     1       7.485  -6.720  33.219  0.00  0.00    -0.018 A 
ATOM     28  C   UNL     1       9.774  -7.055  33.974  0.00  0.00    +0.008 A 
ATOM     29  C   UNL     1       7.480  -5.473  33.867  0.00  0.00    +0.008 A 
ATOM     32  C   UNL     1       9.751  -5.814  34.611  0.00  0.00    +0.001 A 
ATOM     33  C   UNL     1       8.605  -5.025  34.558  0.00  0.00    +0.001 A 
ENDBRANCH  18  20
ENDBRANCH   9  15
BRANCH  10  16
ATOM     16  C   UNL     1       4.283 -14.968  33.105  0.00  0.00    +0.252 C 
BRANCH  16   1
ATOM      1  O   UNL     1       3.464 -13.876  33.477  0.00  0.00    -0.449 OA
BRANCH   1  21
ATOM      2  O   UNL     1       3.634 -13.246  35.668  0.00  0.00    -0.226 OA
ATOM      7  N   UNL     1       4.745 -12.090  33.963  0.00  0.00    -0.251 N 
ATOM     21  C   UNL     1       3.930 -13.071  34.493  0.00  0.00    +0.405 C 
ATOM     38  H   UNL     1       4.874 -12.107  32.954  0.00  0.00    +0.158 HD
BRANCH   7  27
ATOM     27  C   UNL     1       5.426 -11.060  34.650  0.00  0.00    +0.037 A 
ATOM     30  C   UNL     1       6.767 -11.222  34.999  0.00  0.00    +0.027 A 
ATOM     31  C   UNL     1       4.759  -9.881  34.980  0.00  0.00    +0.027 A 
ATOM     34  C   UNL     1       7.439 -10.206  35.678  0.00  0.00    +0.047 A 
ATOM     35  C   UNL     1       5.431  -8.864  35.658  0.00  0.00    +0.047 A 
ATOM     36  C   UNL     1       6.771  -9.027  36.006  0.00  0.00    +0.120 A 
BRANCH  36   3
ATOM      3  O   UNL     1       7.428  -8.035  36.669  0.00  0.00    -0.495 OA
ATOM     37  C   UNL     1       6.642  -6.946  37.152  0.00  0.00    +0.277 C 
ENDBRANCH  36   3
ENDBRANCH   7  27
ENDBRANCH   1  21
ENDBRANCH  16   1
ENDBRANCH  10  16
TORSDOF 7
ENDMDL
