MODEL 1
REMARK VINA RESULT:      -6.7      0.000      0.000
REMARK  Name = 7135091
REMARK  12 active torsions:
REMARK  status: ('A' for Active; 'I' for Inactive)
REMARK    1  A    between atoms: O_2  and  C_16
REMARK    2  A    between atoms: O_3  and  C_21
REMARK    3  A    between atoms: C_11  and  C_19
REMARK    4  A    between atoms: C_13  and  C_21
REMARK    5  A    between atoms: C_13  and  C_22
REMARK    6  A    between atoms: C_14  and  C_24
REMARK    7  A    between atoms: C_24  and  C_25
REMARK    8  A    between atoms: C_31  and  C_32
REMARK    9  A    between atoms: C_32  and  C_34
REMARK   10  A    between atoms: C_32  and  C_35
REMARK   11  A    between atoms: C_32  and  C_36
REMARK   12  A    between atoms: C_33  and  C_37
REMARK                            x       y       z     vdW  Elec       q    Type
REMARK                         _______ _______ _______ _____ _____    ______ ____
ROOT
ATOM      1  S   UNL     1     -12.643 -12.611  20.287  0.00  0.00    -0.057 S 
ATOM      5  O   UNL     1      -9.787 -14.818  23.204  0.00  0.00    -0.275 OA
ATOM      7  N   UNL     1     -10.165 -13.034  20.897  0.00  0.00    -0.229 NA
ATOM      9  N   UNL     1     -11.822 -14.130  22.261  0.00  0.00    -0.264 N 
ATOM     11  C   UNL     1      -9.185 -11.063  17.731  0.00  0.00    -0.019 C 
ATOM     12  C   UNL     1     -10.475 -10.133  17.816  0.00  0.00    +0.011 C 
ATOM     13  C   UNL     1     -10.705  -9.118  16.630  0.00  0.00    +0.021 C 
ATOM     14  C   UNL     1      -8.915 -11.664  19.187  0.00  0.00    +0.054 C 
ATOM     15  C   UNL     1      -7.958 -10.206  17.321  0.00  0.00    +0.010 C 
ATOM     16  C   UNL     1      -9.371  -8.382  16.319  0.00  0.00    +0.123 C 
ATOM     17  C   UNL     1     -11.742 -10.951  18.195  0.00  0.00    +0.049 C 
ATOM     18  C   UNL     1      -8.197  -9.331  16.099  0.00  0.00    +0.032 C 
ATOM     19  C   UNL     1      -9.344 -12.221  16.716  0.00  0.00    +0.012 C 
ATOM     20  C   UNL     1     -10.186 -12.194  19.799  0.00  0.00    +0.058 A 
ATOM     22  C   UNL     1     -11.734  -8.041  17.077  0.00  0.00    +0.016 C 
ATOM     23  C   UNL     1     -11.444 -11.847  19.350  0.00  0.00    +0.015 A 
ATOM     26  C   UNL     1     -11.402 -13.324  21.236  0.00  0.00    +0.165 A 
ATOM     31  C   UNL     1     -11.016 -14.827  23.181  0.00  0.00    +0.224 C 
ATOM     40  H   UNL     1     -12.831 -14.213  22.339  0.00  0.00    +0.157 HD
ENDROOT
BRANCH  31  32
ATOM     32  C   UNL     1     -11.820 -15.653  24.218  0.00  0.00    +0.039 C 
ATOM     34  C   UNL     1     -10.947 -15.903  25.462  0.00  0.00    +0.020 C 
ATOM     35  C   UNL     1     -12.213 -17.014  23.620  0.00  0.00    +0.020 C 
ATOM     36  C   UNL     1     -13.075 -14.882  24.654  0.00  0.00    +0.020 C 
ENDBRANCH  31  32
BRANCH  16   2
ATOM      2  O   UNL     1      -9.512  -7.552  15.167  0.00  0.00    -0.391 OA
ATOM     38  H   UNL     1      -8.654  -7.537  14.708  0.00  0.00    +0.210 HD
ENDBRANCH  16   2
BRANCH  13  21
ATOM     21  C   UNL     1     -11.295  -9.752  15.350  0.00  0.00    +0.165 C 
BRANCH  21   3
ATOM      3  O   UNL     1     -12.098  -8.780  14.719  0.00  0.00    -0.394 OA
ATOM     39  H   UNL     1     -11.501  -8.169  14.254  0.00  0.00    +0.209 HD
ENDBRANCH  21   3
ENDBRANCH  13  21
BRANCH  14  24
ATOM     24  C   UNL     1      -7.786 -12.702  19.249  0.00  0.00    +0.106 C 
BRANCH  24  25
ATOM      4  O   UNL     1      -6.297 -11.277  20.418  0.00  0.00    -0.276 OA
ATOM      6  O   UNL     1      -3.118 -12.818  14.205  0.00  0.00    -0.276 OA
ATOM      8  N   UNL     1      -5.492 -12.237  18.464  0.00  0.00    -0.298 N 
ATOM     10  N   UNL     1      -3.945 -11.812  16.128  0.00  0.00    -0.299 N 
ATOM     25  C   UNL     1      -6.461 -12.006  19.438  0.00  0.00    +0.216 C 
ATOM     27  C   UNL     1      -5.631 -13.154  17.324  0.00  0.00    +0.126 C 
ATOM     28  C   UNL     1      -4.179 -11.596  18.571  0.00  0.00    +0.126 C 
ATOM     29  C   UNL     1      -5.257 -12.454  16.020  0.00  0.00    +0.126 C 
ATOM     30  C   UNL     1      -3.805 -10.895  17.268  0.00  0.00    +0.126 C 
ATOM     33  C   UNL     1      -2.976 -12.041  15.153  0.00  0.00    +0.213 C 
ATOM     37  C   UNL     1      -1.681 -11.282  15.296  0.00  0.00    +0.109 C 
ENDBRANCH  24  25
ENDBRANCH  14  24
TORSDOF 6
ENDMDL
MODEL 2
REMARK VINA RESULT:      -6.6      4.685      8.729
REMARK  Name = 7135091
REMARK  12 active torsions:
REMARK  status: ('A' for Active; 'I' for Inactive)
REMARK    1  A    between atoms: O_2  and  C_16
REMARK    2  A    between atoms: O_3  and  C_21
REMARK    3  A    between atoms: C_11  and  C_19
REMARK    4  A    between atoms: C_13  and  C_21
REMARK    5  A    between atoms: C_13  and  C_22
REMARK    6  A    between atoms: C_14  and  C_24
REMARK    7  A    between atoms: C_24  and  C_25
REMARK    8  A    between atoms: C_31  and  C_32
REMARK    9  A    between atoms: C_32  and  C_34
REMARK   10  A    between atoms: C_32  and  C_35
REMARK   11  A    between atoms: C_32  and  C_36
REMARK   12  A    between atoms: C_33  and  C_37
REMARK                            x       y       z     vdW  Elec       q    Type
REMARK                         _______ _______ _______ _____ _____    ______ ____
ROOT
ATOM      1  S   UNL     1     -10.669 -11.034  19.983  0.00  0.00    -0.057 S 
ATOM      5  O   UNL     1      -7.466  -9.745  16.881  0.00  0.00    -0.275 OA
ATOM      7  N   UNL     1     -10.258  -9.703  17.803  0.00  0.00    -0.229 NA
ATOM      9  N   UNL     1      -8.347 -10.791  18.788  0.00  0.00    -0.264 N 
ATOM     11  C   UNL     1     -14.069  -9.160  17.572  0.00  0.00    -0.019 C 
ATOM     12  C   UNL     1     -14.246  -9.172  19.154  0.00  0.00    +0.011 C 
ATOM     13  C   UNL     1     -15.720  -9.100  19.711  0.00  0.00    +0.021 C 
ATOM     14  C   UNL     1     -12.547  -8.797  17.249  0.00  0.00    +0.054 C 
ATOM     15  C   UNL     1     -14.974  -8.058  16.960  0.00  0.00    +0.010 C 
ATOM     16  C   UNL     1     -16.497  -7.981  18.960  0.00  0.00    +0.123 C 
ATOM     17  C   UNL     1     -13.380 -10.282  19.815  0.00  0.00    +0.049 C 
ATOM     18  C   UNL     1     -16.417  -8.107  17.443  0.00  0.00    +0.032 C 
ATOM     19  C   UNL     1     -14.426 -10.516  16.916  0.00  0.00    +0.012 C 
ATOM     20  C   UNL     1     -11.604  -9.603  18.105  0.00  0.00    +0.058 A 
ATOM     22  C   UNL     1     -15.676  -8.705  21.214  0.00  0.00    +0.016 C 
ATOM     23  C   UNL     1     -11.995 -10.246  19.262  0.00  0.00    +0.015 A 
ATOM     26  C   UNL     1      -9.670 -10.440  18.718  0.00  0.00    +0.165 A 
ATOM     31  C   UNL     1      -7.324 -10.437  17.887  0.00  0.00    +0.224 C 
ATOM     40  H   UNL     1      -8.111 -11.370  19.587  0.00  0.00    +0.157 HD
ENDROOT
BRANCH  31  32
ATOM     32  C   UNL     1      -5.933 -11.009  18.264  0.00  0.00    +0.039 C 
ATOM     34  C   UNL     1      -5.887 -12.511  17.923  0.00  0.00    +0.020 C 
ATOM     35  C   UNL     1      -5.684 -10.846  19.772  0.00  0.00    +0.020 C 
ATOM     36  C   UNL     1      -4.832 -10.297  17.464  0.00  0.00    +0.020 C 
ENDBRANCH  31  32
BRANCH  16   2
ATOM      2  O   UNL     1     -17.871  -7.977  19.348  0.00  0.00    -0.391 OA
ATOM     38  H   UNL     1     -18.210  -8.882  19.238  0.00  0.00    +0.210 HD
ENDBRANCH  16   2
BRANCH  13  21
ATOM     21  C   UNL     1     -16.492 -10.439  19.654  0.00  0.00    +0.165 C 
BRANCH  21   3
ATOM      3  O   UNL     1     -17.281 -10.531  20.819  0.00  0.00    -0.394 OA
ATOM     39  H   UNL     1     -18.029 -11.119  20.616  0.00  0.00    +0.209 HD
ENDBRANCH  21   3
ENDBRANCH  13  21
BRANCH  14  24
ATOM     24  C   UNL     1     -12.171  -8.885  15.763  0.00  0.00    +0.106 C 
BRANCH  24  25
ATOM      4  O   UNL     1     -10.659  -7.061  15.782  0.00  0.00    -0.276 OA
ATOM      6  O   UNL     1     -16.082  -5.114  11.553  0.00  0.00    -0.276 OA
ATOM      8  N   UNL     1     -12.423  -6.929  14.279  0.00  0.00    -0.298 N 
ATOM     10  N   UNL     1     -14.351  -5.221  13.099  0.00  0.00    -0.299 N 
ATOM     25  C   UNL     1     -11.676  -7.545  15.280  0.00  0.00    +0.216 C 
ATOM     27  C   UNL     1     -13.596  -7.510  13.611  0.00  0.00    +0.126 C 
ATOM     28  C   UNL     1     -12.012  -5.623  13.757  0.00  0.00    +0.126 C 
ATOM     29  C   UNL     1     -14.764  -6.527  13.620  0.00  0.00    +0.126 C 
ATOM     30  C   UNL     1     -13.179  -4.639  13.766  0.00  0.00    +0.126 C 
ATOM     33  C   UNL     1     -15.100  -4.603  12.098  0.00  0.00    +0.213 C 
ATOM     37  C   UNL     1     -14.654  -3.227  11.673  0.00  0.00    +0.109 C 
ENDBRANCH  24  25
ENDBRANCH  14  24
TORSDOF 6
ENDMDL
MODEL 3
REMARK VINA RESULT:      -6.6     28.298     30.505
REMARK  Name = 7135091
REMARK  12 active torsions:
REMARK  status: ('A' for Active; 'I' for Inactive)
REMARK    1  A    between atoms: O_2  and  C_16
REMARK    2  A    between atoms: O_3  and  C_21
REMARK    3  A    between atoms: C_11  and  C_19
REMARK    4  A    between atoms: C_13  and  C_21
REMARK    5  A    between atoms: C_13  and  C_22
REMARK    6  A    between atoms: C_14  and  C_24
REMARK    7  A    between atoms: C_24  and  C_25
REMARK    8  A    between atoms: C_31  and  C_32
REMARK    9  A    between atoms: C_32  and  C_34
REMARK   10  A    between atoms: C_32  and  C_35
REMARK   11  A    between atoms: C_32  and  C_36
REMARK   12  A    between atoms: C_33  and  C_37
REMARK                            x       y       z     vdW  Elec       q    Type
REMARK                         _______ _______ _______ _____ _____    ______ ____
ROOT
ATOM      1  S   UNL     1      -0.257  10.744  35.957  0.00  0.00    -0.057 S 
ATOM      5  O   UNL     1      -4.001  13.051  34.473  0.00  0.00    -0.275 OA
ATOM      7  N   UNL     1      -2.810  11.038  36.255  0.00  0.00    -0.229 NA
ATOM      9  N   UNL     1      -1.744  12.416  34.591  0.00  0.00    -0.264 N 
ATOM     11  C   UNL     1      -2.734   8.061  38.706  0.00  0.00    -0.019 C 
ATOM     12  C   UNL     1      -1.253   8.394  39.188  0.00  0.00    +0.011 C 
ATOM     13  C   UNL     1      -0.579   7.376  40.186  0.00  0.00    +0.021 C 
ATOM     14  C   UNL     1      -3.363   9.394  38.088  0.00  0.00    +0.054 C 
ATOM     15  C   UNL     1      -3.591   7.638  39.928  0.00  0.00    +0.010 C 
ATOM     16  C   UNL     1      -1.587   7.025  41.318  0.00  0.00    +0.123 C 
ATOM     17  C   UNL     1      -0.343   8.796  37.993  0.00  0.00    +0.049 C 
ATOM     18  C   UNL     1      -2.944   6.567  40.794  0.00  0.00    +0.032 C 
ATOM     19  C   UNL     1      -2.782   6.930  37.649  0.00  0.00    +0.012 C 
ATOM     20  C   UNL     1      -2.396  10.062  37.144  0.00  0.00    +0.058 A 
ATOM     22  C   UNL     1       0.648   8.058  40.855  0.00  0.00    +0.016 C 
ATOM     23  C   UNL     1      -1.043   9.793  37.130  0.00  0.00    +0.015 A 
ATOM     26  C   UNL     1      -1.769  11.463  35.574  0.00  0.00    +0.165 A 
ATOM     31  C   UNL     1      -2.836  13.154  34.092  0.00  0.00    +0.224 C 
ATOM     40  H   UNL     1      -0.824  12.587  34.198  0.00  0.00    +0.157 HD
ENDROOT
BRANCH  31  32
ATOM     32  C   UNL     1      -2.456  14.155  32.972  0.00  0.00    +0.039 C 
ATOM     34  C   UNL     1      -2.873  15.577  33.392  0.00  0.00    +0.020 C 
ATOM     35  C   UNL     1      -3.193  13.799  31.671  0.00  0.00    +0.020 C 
ATOM     36  C   UNL     1      -0.937  14.144  32.742  0.00  0.00    +0.020 C 
ENDBRANCH  31  32
BRANCH  16   2
ATOM      2  O   UNL     1      -1.055   6.006  42.165  0.00  0.00    -0.391 OA
ATOM     38  H   UNL     1      -1.228   6.269  43.086  0.00  0.00    +0.210 HD
ENDBRANCH  16   2
BRANCH  13  21
ATOM     21  C   UNL     1      -0.031   6.094  39.520  0.00  0.00    +0.165 C 
BRANCH  21   3
ATOM      3  O   UNL     1       1.195   5.776  40.140  0.00  0.00    -0.394 OA
ATOM     39  H   UNL     1       1.892   6.268  39.672  0.00  0.00    +0.209 HD
ENDBRANCH  21   3
ENDBRANCH  13  21
BRANCH  14  24
ATOM     24  C   UNL     1      -4.743   9.208  37.441  0.00  0.00    +0.106 C 
BRANCH  24  25
ATOM      4  O   UNL     1      -5.422  10.678  39.170  0.00  0.00    -0.276 OA
ATOM      6  O   UNL     1     -11.423   8.225  36.161  0.00  0.00    -0.276 OA
ATOM      8  N   UNL     1      -7.092   9.896  37.759  0.00  0.00    -0.298 N 
ATOM     10  N   UNL     1      -9.761   8.960  37.608  0.00  0.00    -0.299 N 
ATOM     25  C   UNL     1      -5.775   9.997  38.205  0.00  0.00    +0.216 C 
ATOM     27  C   UNL     1      -7.534   9.153  36.571  0.00  0.00    +0.126 C 
ATOM     28  C   UNL     1      -8.157  10.629  38.449  0.00  0.00    +0.126 C 
ATOM     29  C   UNL     1      -8.697   8.227  36.918  0.00  0.00    +0.126 C 
ATOM     30  C   UNL     1      -9.320   9.704  38.796  0.00  0.00    +0.126 C 
ATOM     33  C   UNL     1     -11.079   8.857  37.163  0.00  0.00    +0.213 C 
ATOM     37  C   UNL     1     -12.123   9.579  37.976  0.00  0.00    +0.109 C 
ENDBRANCH  24  25
ENDBRANCH  14  24
TORSDOF 6
ENDMDL
MODEL 4
REMARK VINA RESULT:      -6.6      5.193     10.911
REMARK  Name = 7135091
REMARK  12 active torsions:
REMARK  status: ('A' for Active; 'I' for Inactive)
REMARK    1  A    between atoms: O_2  and  C_16
REMARK    2  A    between atoms: O_3  and  C_21
REMARK    3  A    between atoms: C_11  and  C_19
REMARK    4  A    between atoms: C_13  and  C_21
REMARK    5  A    between atoms: C_13  and  C_22
REMARK    6  A    between atoms: C_14  and  C_24
REMARK    7  A    between atoms: C_24  and  C_25
REMARK    8  A    between atoms: C_31  and  C_32
REMARK    9  A    between atoms: C_32  and  C_34
REMARK   10  A    between atoms: C_32  and  C_35
REMARK   11  A    between atoms: C_32  and  C_36
REMARK   12  A    between atoms: C_33  and  C_37
REMARK                            x       y       z     vdW  Elec       q    Type
REMARK                         _______ _______ _______ _____ _____    ______ ____
ROOT
ATOM      1  S   UNL     1      -4.341  -9.718   9.687  0.00  0.00    -0.057 S 
ATOM      5  O   UNL     1      -8.891  -8.992   9.139  0.00  0.00    -0.275 OA
ATOM      7  N   UNL     1      -6.640  -9.747  10.873  0.00  0.00    -0.229 NA
ATOM      9  N   UNL     1      -6.625  -9.121   8.546  0.00  0.00    -0.264 N 
ATOM     11  C   UNL     1      -4.879 -11.226  13.968  0.00  0.00    -0.019 C 
ATOM     12  C   UNL     1      -3.513 -10.471  13.649  0.00  0.00    +0.011 C 
ATOM     13  C   UNL     1      -2.281 -10.797  14.578  0.00  0.00    +0.021 C 
ATOM     14  C   UNL     1      -6.058 -10.444  13.227  0.00  0.00    +0.054 C 
ATOM     15  C   UNL     1      -5.147 -11.183  15.495  0.00  0.00    +0.010 C 
ATOM     16  C   UNL     1      -2.735 -10.757  16.065  0.00  0.00    +0.123 C 
ATOM     17  C   UNL     1      -3.181 -10.512  12.130  0.00  0.00    +0.049 C 
ATOM     18  C   UNL     1      -3.961 -11.619  16.343  0.00  0.00    +0.032 C 
ATOM     19  C   UNL     1      -4.870 -12.704  13.507  0.00  0.00    +0.012 C 
ATOM     20  C   UNL     1      -5.688 -10.129  11.800  0.00  0.00    +0.058 A 
ATOM     22  C   UNL     1      -1.201  -9.694  14.394  0.00  0.00    +0.016 C 
ATOM     23  C   UNL     1      -4.389 -10.148  11.334  0.00  0.00    +0.015 A 
ATOM     26  C   UNL     1      -6.045  -9.513   9.724  0.00  0.00    +0.165 A 
ATOM     31  C   UNL     1      -7.992  -8.882   8.307  0.00  0.00    +0.224 C 
ATOM     40  H   UNL     1      -5.970  -8.999   7.780  0.00  0.00    +0.157 HD
ENDROOT
BRANCH  31  32
ATOM     32  C   UNL     1      -8.308  -8.452   6.852  0.00  0.00    +0.039 C 
ATOM     34  C   UNL     1      -8.478  -6.922   6.795  0.00  0.00    +0.020 C 
ATOM     35  C   UNL     1      -9.619  -9.103   6.381  0.00  0.00    +0.020 C 
ATOM     36  C   UNL     1      -7.154  -8.847   5.919  0.00  0.00    +0.020 C 
ENDBRANCH  31  32
BRANCH  16   2
ATOM      2  O   UNL     1      -1.675 -11.176  16.925  0.00  0.00    -0.391 OA
ATOM     38  H   UNL     1      -0.844 -11.096  16.428  0.00  0.00    +0.210 HD
ENDBRANCH  16   2
BRANCH  13  21
ATOM     21  C   UNL     1      -1.571 -12.132  14.256  0.00  0.00    +0.165 C 
BRANCH  21   3
ATOM      3  O   UNL     1      -2.201 -13.147  15.005  0.00  0.00    -0.394 OA
ATOM     39  H   UNL     1      -2.620 -13.756  14.372  0.00  0.00    +0.209 HD
ENDBRANCH  21   3
ENDBRANCH  13  21
BRANCH  14  24
ATOM     24  C   UNL     1      -7.430 -11.128  13.313  0.00  0.00    +0.106 C 
BRANCH  24  25
ATOM      4  O   UNL     1      -8.739  -9.159  13.465  0.00  0.00    -0.276 OA
ATOM      6  O   UNL     1      -9.274 -12.406  19.809  0.00  0.00    -0.276 OA
ATOM      8  N   UNL     1      -8.893 -10.645  15.242  0.00  0.00    -0.298 N 
ATOM     10  N   UNL     1      -9.074 -10.893  18.059  0.00  0.00    -0.299 N 
ATOM     25  C   UNL     1      -8.413 -10.218  14.005  0.00  0.00    +0.216 C 
ATOM     27  C   UNL     1      -8.580 -11.931  15.879  0.00  0.00    +0.126 C 
ATOM     28  C   UNL     1      -9.848  -9.817  15.982  0.00  0.00    +0.126 C 
ATOM     29  C   UNL     1      -8.119 -11.722  17.319  0.00  0.00    +0.126 C 
ATOM     30  C   UNL     1      -9.387  -9.606  17.422  0.00  0.00    +0.126 C 
ATOM     33  C   UNL     1      -9.553 -11.319  19.297  0.00  0.00    +0.213 C 
ATOM     37  C   UNL     1     -10.470 -10.372  20.028  0.00  0.00    +0.109 C 
ENDBRANCH  24  25
ENDBRANCH  14  24
TORSDOF 6
ENDMDL
MODEL 5
REMARK VINA RESULT:      -6.5     29.207     34.743
REMARK  Name = 7135091
REMARK  12 active torsions:
REMARK  status: ('A' for Active; 'I' for Inactive)
REMARK    1  A    between atoms: O_2  and  C_16
REMARK    2  A    between atoms: O_3  and  C_21
REMARK    3  A    between atoms: C_11  and  C_19
REMARK    4  A    between atoms: C_13  and  C_21
REMARK    5  A    between atoms: C_13  and  C_22
REMARK    6  A    between atoms: C_14  and  C_24
REMARK    7  A    between atoms: C_24  and  C_25
REMARK    8  A    between atoms: C_31  and  C_32
REMARK    9  A    between atoms: C_32  and  C_34
REMARK   10  A    between atoms: C_32  and  C_35
REMARK   11  A    between atoms: C_32  and  C_36
REMARK   12  A    between atoms: C_33  and  C_37
REMARK                            x       y       z     vdW  Elec       q    Type
REMARK                         _______ _______ _______ _____ _____    ______ ____
ROOT
ATOM      1  S   UNL     1      14.323   7.983   6.572  0.00  0.00    -0.057 S 
ATOM      5  O   UNL     1      11.404   5.879   3.642  0.00  0.00    -0.275 OA
ATOM      7  N   UNL     1      14.028   7.101   4.158  0.00  0.00    -0.229 NA
ATOM      9  N   UNL     1      12.159   6.822   5.653  0.00  0.00    -0.264 N 
ATOM     11  C   UNL     1      17.450   8.663   3.309  0.00  0.00    -0.019 C 
ATOM     12  C   UNL     1      18.004   8.446   4.786  0.00  0.00    +0.011 C 
ATOM     13  C   UNL     1      19.430   9.036   5.110  0.00  0.00    +0.021 C 
ATOM     14  C   UNL     1      16.244   7.640   3.079  0.00  0.00    +0.054 C 
ATOM     15  C   UNL     1      18.569   8.336   2.285  0.00  0.00    +0.010 C 
ATOM     16  C   UNL     1      20.413   8.657   3.966  0.00  0.00    +0.123 C 
ATOM     17  C   UNL     1      16.926   8.790   5.853  0.00  0.00    +0.049 C 
ATOM     18  C   UNL     1      19.894   9.025   2.580  0.00  0.00    +0.032 C 
ATOM     19  C   UNL     1      16.954  10.108   3.058  0.00  0.00    +0.012 C 
ATOM     20  C   UNL     1      15.293   7.651   4.249  0.00  0.00    +0.058 A 
ATOM     22  C   UNL     1      19.965   8.382   6.415  0.00  0.00    +0.016 C 
ATOM     23  C   UNL     1      15.626   8.156   5.490  0.00  0.00    +0.015 A 
ATOM     26  C   UNL     1      13.424   7.226   5.319  0.00  0.00    +0.165 A 
ATOM     31  C   UNL     1      11.222   6.180   4.820  0.00  0.00    +0.224 C 
ATOM     40  H   UNL     1      11.897   7.021   6.614  0.00  0.00    +0.157 HD
ENDROOT
BRANCH  31  32
ATOM     32  C   UNL     1       9.876   5.862   5.519  0.00  0.00    +0.039 C 
ATOM     34  C   UNL     1       9.936   6.333   6.985  0.00  0.00    +0.020 C 
ATOM     35  C   UNL     1       9.618   4.347   5.508  0.00  0.00    +0.020 C 
ATOM     36  C   UNL     1       8.726   6.601   4.819  0.00  0.00    +0.020 C 
ENDBRANCH  31  32
BRANCH  16   2
ATOM      2  O   UNL     1      21.680   9.285   4.163  0.00  0.00    -0.391 OA
ATOM     38  H   UNL     1      22.072   8.910   4.970  0.00  0.00    +0.210 HD
ENDBRANCH  16   2
BRANCH  13  21
ATOM     21  C   UNL     1      19.449  10.560   5.369  0.00  0.00    +0.165 C 
BRANCH  21   3
ATOM      3  O   UNL     1      20.434  10.819   6.344  0.00  0.00    -0.394 OA
ATOM     39  H   UNL     1      19.988  11.241   7.099  0.00  0.00    +0.209 HD
ENDBRANCH  21   3
ENDBRANCH  13  21
BRANCH  14  24
ATOM     24  C   UNL     1      15.500   7.818   1.748  0.00  0.00    +0.106 C 
BRANCH  24  25
ATOM      4  O   UNL     1      16.996   6.613   0.361  0.00  0.00    -0.276 OA
ATOM      6  O   UNL     1      10.531   3.765  -0.724  0.00  0.00    -0.276 OA
ATOM      8  N   UNL     1      14.830   5.790   0.510  0.00  0.00    -0.298 N 
ATOM     10  N   UNL     1      12.681   4.623  -0.919  0.00  0.00    -0.299 N 
ATOM     25  C   UNL     1      15.851   6.690   0.812  0.00  0.00    +0.216 C 
ATOM     27  C   UNL     1      13.479   5.812   1.086  0.00  0.00    +0.126 C 
ATOM     28  C   UNL     1      15.087   4.667  -0.395  0.00  0.00    +0.126 C 
ATOM     29  C   UNL     1      12.422   5.745  -0.014  0.00  0.00    +0.126 C 
ATOM     30  C   UNL     1      14.032   4.600  -1.496  0.00  0.00    +0.126 C 
ATOM     33  C   UNL     1      11.659   3.724  -1.223  0.00  0.00    +0.213 C 
ATOM     37  C   UNL     1      11.985   2.644  -2.223  0.00  0.00    +0.109 C 
ENDBRANCH  24  25
ENDBRANCH  14  24
TORSDOF 6
ENDMDL
MODEL 6
REMARK VINA RESULT:      -6.4      4.850     10.495
REMARK  Name = 7135091
REMARK  12 active torsions:
REMARK  status: ('A' for Active; 'I' for Inactive)
REMARK    1  A    between atoms: O_2  and  C_16
REMARK    2  A    between atoms: O_3  and  C_21
REMARK    3  A    between atoms: C_11  and  C_19
REMARK    4  A    between atoms: C_13  and  C_21
REMARK    5  A    between atoms: C_13  and  C_22
REMARK    6  A    between atoms: C_14  and  C_24
REMARK    7  A    between atoms: C_24  and  C_25
REMARK    8  A    between atoms: C_31  and  C_32
REMARK    9  A    between atoms: C_32  and  C_34
REMARK   10  A    between atoms: C_32  and  C_35
REMARK   11  A    between atoms: C_32  and  C_36
REMARK   12  A    between atoms: C_33  and  C_37
REMARK                            x       y       z     vdW  Elec       q    Type
REMARK                         _______ _______ _______ _____ _____    ______ ____
ROOT
ATOM      1  S   UNL     1      -5.700 -11.024  12.621  0.00  0.00    -0.057 S 
ATOM      5  O   UNL     1      -8.841  -8.422  10.407  0.00  0.00    -0.275 OA
ATOM      7  N   UNL     1      -7.828  -9.581  12.912  0.00  0.00    -0.229 NA
ATOM      9  N   UNL     1      -6.958  -9.795  10.676  0.00  0.00    -0.264 N 
ATOM     11  C   UNL     1      -7.908 -10.680  16.608  0.00  0.00    -0.019 C 
ATOM     12  C   UNL     1      -6.323 -10.810  16.686  0.00  0.00    +0.011 C 
ATOM     13  C   UNL     1      -5.716 -11.379  18.025  0.00  0.00    +0.021 C 
ATOM     14  C   UNL     1      -8.264  -9.703  15.395  0.00  0.00    +0.054 C 
ATOM     15  C   UNL     1      -8.438 -10.042  17.920  0.00  0.00    +0.010 C 
ATOM     16  C   UNL     1      -6.387 -10.668  19.235  0.00  0.00    +0.123 C 
ATOM     17  C   UNL     1      -5.744 -11.473  15.403  0.00  0.00    +0.049 C 
ATOM     18  C   UNL     1      -7.911 -10.705  19.184  0.00  0.00    +0.032 C 
ATOM     19  C   UNL     1      -8.615 -12.041  16.398  0.00  0.00    +0.012 C 
ATOM     20  C   UNL     1      -7.477 -10.063  14.160  0.00  0.00    +0.058 A 
ATOM     22  C   UNL     1      -4.198 -11.046  18.076  0.00  0.00    +0.016 C 
ATOM     23  C   UNL     1      -6.339 -10.843  14.189  0.00  0.00    +0.015 A 
ATOM     26  C   UNL     1      -6.967 -10.029  12.025  0.00  0.00    +0.165 A 
ATOM     31  C   UNL     1      -7.874  -9.019   9.939  0.00  0.00    +0.224 C 
ATOM     40  H   UNL     1      -6.194 -10.245  10.180  0.00  0.00    +0.157 HD
ENDROOT
BRANCH  31  32
ATOM     32  C   UNL     1      -7.571  -8.966   8.420  0.00  0.00    +0.039 C 
ATOM     34  C   UNL     1      -8.493  -9.951   7.678  0.00  0.00    +0.020 C 
ATOM     35  C   UNL     1      -6.113  -9.375   8.157  0.00  0.00    +0.020 C 
ATOM     36  C   UNL     1      -7.832  -7.553   7.876  0.00  0.00    +0.020 C 
ENDBRANCH  31  32
BRANCH  16   2
ATOM      2  O   UNL     1      -5.955 -11.252  20.464  0.00  0.00    -0.391 OA
ATOM     38  H   UNL     1      -5.003 -11.074  20.555  0.00  0.00    +0.210 HD
ENDBRANCH  16   2
BRANCH  13  21
ATOM     21  C   UNL     1      -5.810 -12.916  18.169  0.00  0.00    +0.165 C 
BRANCH  21   3
ATOM      3  O   UNL     1      -4.549 -13.387  18.588  0.00  0.00    -0.394 OA
ATOM     39  H   UNL     1      -4.679 -13.847  19.435  0.00  0.00    +0.209 HD
ENDBRANCH  21   3
ENDBRANCH  13  21
BRANCH  14  24
ATOM     24  C   UNL     1      -9.764  -9.583  15.090  0.00  0.00    +0.106 C 
BRANCH  24  25
ATOM      4  O   UNL     1      -9.707  -7.502  16.223  0.00  0.00    -0.276 OA
ATOM      6  O   UNL     1     -15.286  -7.199  11.765  0.00  0.00    -0.276 OA
ATOM      8  N   UNL     1     -11.216  -7.686  14.467  0.00  0.00    -0.298 N 
ATOM     10  N   UNL     1     -13.819  -7.036  13.559  0.00  0.00    -0.299 N 
ATOM     25  C   UNL     1     -10.219  -8.163  15.317  0.00  0.00    +0.216 C 
ATOM     27  C   UNL     1     -11.794  -8.422  13.335  0.00  0.00    +0.126 C 
ATOM     28  C   UNL     1     -11.716  -6.318  14.623  0.00  0.00    +0.126 C 
ATOM     29  C   UNL     1     -13.319  -8.404  13.402  0.00  0.00    +0.126 C 
ATOM     30  C   UNL     1     -13.241  -6.300  14.691  0.00  0.00    +0.126 C 
ATOM     33  C   UNL     1     -14.817  -6.559  12.711  0.00  0.00    +0.213 C 
ATOM     37  C   UNL     1     -15.332  -5.169  12.988  0.00  0.00    +0.109 C 
ENDBRANCH  24  25
ENDBRANCH  14  24
TORSDOF 6
ENDMDL
MODEL 7
REMARK VINA RESULT:      -6.4     29.486     32.176
REMARK  Name = 7135091
REMARK  12 active torsions:
REMARK  status: ('A' for Active; 'I' for Inactive)
REMARK    1  A    between atoms: O_2  and  C_16
REMARK    2  A    between atoms: O_3  and  C_21
REMARK    3  A    between atoms: C_11  and  C_19
REMARK    4  A    between atoms: C_13  and  C_21
REMARK    5  A    between atoms: C_13  and  C_22
REMARK    6  A    between atoms: C_14  and  C_24
REMARK    7  A    between atoms: C_24  and  C_25
REMARK    8  A    between atoms: C_31  and  C_32
REMARK    9  A    between atoms: C_32  and  C_34
REMARK   10  A    between atoms: C_32  and  C_35
REMARK   11  A    between atoms: C_32  and  C_36
REMARK   12  A    between atoms: C_33  and  C_37
REMARK                            x       y       z     vdW  Elec       q    Type
REMARK                         _______ _______ _______ _____ _____    ______ ____
ROOT
ATOM      1  S   UNL     1      11.390   4.098   2.072  0.00  0.00    -0.057 S 
ATOM      5  O   UNL     1       9.821   5.644  -2.013  0.00  0.00    -0.275 OA
ATOM      7  N   UNL     1      10.160   6.038   0.882  0.00  0.00    -0.229 NA
ATOM      9  N   UNL     1      10.860   4.188  -0.494  0.00  0.00    -0.264 N 
ATOM     11  C   UNL     1       9.543   7.603   4.351  0.00  0.00    -0.019 C 
ATOM     12  C   UNL     1      10.890   7.000   4.950  0.00  0.00    +0.011 C 
ATOM     13  C   UNL     1      11.153   7.224   6.489  0.00  0.00    +0.021 C 
ATOM     14  C   UNL     1       9.690   7.654   2.761  0.00  0.00    +0.054 C 
ATOM     15  C   UNL     1       9.352   9.052   4.871  0.00  0.00    +0.010 C 
ATOM     16  C   UNL     1      10.870   8.711   6.847  0.00  0.00    +0.123 C 
ATOM     17  C   UNL     1      11.114   5.534   4.482  0.00  0.00    +0.049 C 
ATOM     18  C   UNL     1       9.501   9.192   6.379  0.00  0.00    +0.032 C 
ATOM     19  C   UNL     1       8.293   6.771   4.727  0.00  0.00    +0.012 C 
ATOM     20  C   UNL     1      10.237   6.356   2.225  0.00  0.00    +0.058 A 
ATOM     22  C   UNL     1      12.653   6.952   6.792  0.00  0.00    +0.016 C 
ATOM     23  C   UNL     1      10.888   5.427   3.011  0.00  0.00    +0.015 A 
ATOM     26  C   UNL     1      10.729   4.869   0.687  0.00  0.00    +0.165 A 
ATOM     31  C   UNL     1      10.411   4.594  -1.766  0.00  0.00    +0.224 C 
ATOM     40  H   UNL     1      11.337   3.295  -0.410  0.00  0.00    +0.157 HD
ENDROOT
BRANCH  31  32
ATOM     32  C   UNL     1      10.722   3.578  -2.894  0.00  0.00    +0.039 C 
ATOM     34  C   UNL     1      11.464   2.364  -2.301  0.00  0.00    +0.020 C 
ATOM     35  C   UNL     1      11.625   4.225  -3.956  0.00  0.00    +0.020 C 
ATOM     36  C   UNL     1       9.418   3.082  -3.536  0.00  0.00    +0.020 C 
ENDBRANCH  31  32
BRANCH  16   2
ATOM      2  O   UNL     1      10.972   8.916   8.256  0.00  0.00    -0.391 OA
ATOM     38  H   UNL     1      11.789   9.418   8.422  0.00  0.00    +0.210 HD
ENDBRANCH  16   2
BRANCH  13  21
ATOM     21  C   UNL     1      10.362   6.274   7.418  0.00  0.00    +0.165 C 
BRANCH  21   3
ATOM      3  O   UNL     1      11.292   5.453   8.088  0.00  0.00    -0.394 OA
ATOM     39  H   UNL     1      11.218   5.648   9.038  0.00  0.00    +0.209 HD
ENDBRANCH  21   3
ENDBRANCH  13  21
BRANCH  14  24
ATOM     24  C   UNL     1       8.417   8.078   2.016  0.00  0.00    +0.106 C 
BRANCH  24  25
ATOM      4  O   UNL     1       9.381  10.043   1.107  0.00  0.00    -0.276 OA
ATOM      6  O   UNL     1       3.958  12.203   5.231  0.00  0.00    -0.276 OA
ATOM      8  N   UNL     1       7.395  10.310   2.281  0.00  0.00    -0.298 N 
ATOM     10  N   UNL     1       5.975  11.943   4.109  0.00  0.00    -0.299 N 
ATOM     25  C   UNL     1       8.448   9.563   1.755  0.00  0.00    +0.216 C 
ATOM     27  C   UNL     1       6.234   9.761   2.993  0.00  0.00    +0.126 C 
ATOM     28  C   UNL     1       7.352  11.760   2.074  0.00  0.00    +0.126 C 
ATOM     29  C   UNL     1       6.016  10.493   4.315  0.00  0.00    +0.126 C 
ATOM     30  C   UNL     1       7.136  12.493   3.396  0.00  0.00    +0.126 C 
ATOM     33  C   UNL     1       4.923  12.690   4.636  0.00  0.00    +0.213 C 
ATOM     37  C   UNL     1       4.995  14.184   4.447  0.00  0.00    +0.109 C 
ENDBRANCH  24  25
ENDBRANCH  14  24
TORSDOF 6
ENDMDL
MODEL 8
REMARK VINA RESULT:      -6.3     29.350     33.572
REMARK  Name = 7135091
REMARK  12 active torsions:
REMARK  status: ('A' for Active; 'I' for Inactive)
REMARK    1  A    between atoms: O_2  and  C_16
REMARK    2  A    between atoms: O_3  and  C_21
REMARK    3  A    between atoms: C_11  and  C_19
REMARK    4  A    between atoms: C_13  and  C_21
REMARK    5  A    between atoms: C_13  and  C_22
REMARK    6  A    between atoms: C_14  and  C_24
REMARK    7  A    between atoms: C_24  and  C_25
REMARK    8  A    between atoms: C_31  and  C_32
REMARK    9  A    between atoms: C_32  and  C_34
REMARK   10  A    between atoms: C_32  and  C_35
REMARK   11  A    between atoms: C_32  and  C_36
REMARK   12  A    between atoms: C_33  and  C_37
REMARK                            x       y       z     vdW  Elec       q    Type
REMARK                         _______ _______ _______ _____ _____    ______ ____
ROOT
ATOM      1  S   UNL     1      15.232   7.804   6.203  0.00  0.00    -0.057 S 
ATOM      5  O   UNL     1      17.236   8.298   2.047  0.00  0.00    -0.275 OA
ATOM      7  N   UNL     1      14.802   7.936   3.656  0.00  0.00    -0.229 NA
ATOM      9  N   UNL     1      17.092   8.119   4.382  0.00  0.00    -0.264 N 
ATOM     11  C   UNL     1      11.105   7.102   4.369  0.00  0.00    -0.019 C 
ATOM     12  C   UNL     1      11.135   7.821   5.790  0.00  0.00    +0.011 C 
ATOM     13  C   UNL     1       9.838   7.704   6.679  0.00  0.00    +0.021 C 
ATOM     14  C   UNL     1      12.295   7.702   3.488  0.00  0.00    +0.054 C 
ATOM     15  C   UNL     1       9.763   7.421   3.659  0.00  0.00    +0.010 C 
ATOM     16  C   UNL     1       8.588   8.008   5.805  0.00  0.00    +0.123 C 
ATOM     17  C   UNL     1      12.451   7.507   6.557  0.00  0.00    +0.049 C 
ATOM     18  C   UNL     1       8.534   7.180   4.525  0.00  0.00    +0.032 C 
ATOM     19  C   UNL     1      11.261   5.565   4.468  0.00  0.00    +0.012 C 
ATOM     20  C   UNL     1      13.579   7.757   4.276  0.00  0.00    +0.058 A 
ATOM     22  C   UNL     1       9.892   8.782   7.799  0.00  0.00    +0.016 C 
ATOM     23  C   UNL     1      13.625   7.686   5.654  0.00  0.00    +0.015 A 
ATOM     26  C   UNL     1      15.744   7.968   4.572  0.00  0.00    +0.165 A 
ATOM     31  C   UNL     1      17.767   8.274   3.156  0.00  0.00    +0.224 C 
ATOM     40  H   UNL     1      17.637   8.115   5.239  0.00  0.00    +0.157 HD
ENDROOT
BRANCH  31  32
ATOM     32  C   UNL     1      19.303   8.419   3.301  0.00  0.00    +0.039 C 
ATOM     34  C   UNL     1      19.814   7.424   4.360  0.00  0.00    +0.020 C 
ATOM     35  C   UNL     1      19.661   9.841   3.760  0.00  0.00    +0.020 C 
ATOM     36  C   UNL     1      19.995   8.102   1.966  0.00  0.00    +0.020 C 
ENDBRANCH  31  32
BRANCH  16   2
ATOM      2  O   UNL     1       7.389   7.784   6.546  0.00  0.00    -0.391 OA
ATOM     38  H   UNL     1       7.291   6.823   6.664  0.00  0.00    +0.210 HD
ENDBRANCH  16   2
BRANCH  13  21
ATOM     21  C   UNL     1       9.682   6.351   7.411  0.00  0.00    +0.165 C 
BRANCH  21   3
ATOM      3  O   UNL     1       8.936   6.580   8.585  0.00  0.00    -0.394 OA
ATOM     39  H   UNL     1       9.554   6.530   9.335  0.00  0.00    +0.209 HD
ENDBRANCH  21   3
ENDBRANCH  13  21
BRANCH  14  24
ATOM     24  C   UNL     1      12.497   7.011   2.132  0.00  0.00    +0.106 C 
BRANCH  24  25
ATOM      4  O   UNL     1      11.751   9.047   1.178  0.00  0.00    -0.276 OA
ATOM      6  O   UNL     1       9.274   3.839  -3.043  0.00  0.00    -0.276 OA
ATOM      8  N   UNL     1      11.392   7.124  -0.072  0.00  0.00    -0.298 N 
ATOM     10  N   UNL     1       9.580   5.754  -1.765  0.00  0.00    -0.299 N 
ATOM     25  C   UNL     1      11.850   7.826   1.041  0.00  0.00    +0.216 C 
ATOM     27  C   UNL     1      11.558   5.682  -0.298  0.00  0.00    +0.126 C 
ATOM     28  C   UNL     1      10.748   7.842  -1.176  0.00  0.00    +0.126 C 
ATOM     29  C   UNL     1      10.224   5.036  -0.663  0.00  0.00    +0.126 C 
ATOM     30  C   UNL     1       9.413   7.197  -1.541  0.00  0.00    +0.126 C 
ATOM     33  C   UNL     1       9.120   5.052  -2.879  0.00  0.00    +0.213 C 
ATOM     37  C   UNL     1       8.399   5.855  -3.932  0.00  0.00    +0.109 C 
ENDBRANCH  24  25
ENDBRANCH  14  24
TORSDOF 6
ENDMDL
MODEL 9
REMARK VINA RESULT:      -6.3     30.579     35.548
REMARK  Name = 7135091
REMARK  12 active torsions:
REMARK  status: ('A' for Active; 'I' for Inactive)
REMARK    1  A    between atoms: O_2  and  C_16
REMARK    2  A    between atoms: O_3  and  C_21
REMARK    3  A    between atoms: C_11  and  C_19
REMARK    4  A    between atoms: C_13  and  C_21
REMARK    5  A    between atoms: C_13  and  C_22
REMARK    6  A    between atoms: C_14  and  C_24
REMARK    7  A    between atoms: C_24  and  C_25
REMARK    8  A    between atoms: C_31  and  C_32
REMARK    9  A    between atoms: C_32  and  C_34
REMARK   10  A    between atoms: C_32  and  C_35
REMARK   11  A    between atoms: C_32  and  C_36
REMARK   12  A    between atoms: C_33  and  C_37
REMARK                            x       y       z     vdW  Elec       q    Type
REMARK                         _______ _______ _______ _____ _____    ______ ____
ROOT
ATOM      1  S   UNL     1      23.820   7.395  22.129  0.00  0.00    -0.057 S 
ATOM      5  O   UNL     1      21.772   3.245  21.778  0.00  0.00    -0.275 OA
ATOM      7  N   UNL     1      21.588   6.177  21.651  0.00  0.00    -0.229 NA
ATOM      9  N   UNL     1      23.500   4.792  22.133  0.00  0.00    -0.264 N 
ATOM     11  C   UNL     1      19.874   9.630  21.566  0.00  0.00    -0.019 C 
ATOM     12  C   UNL     1      21.182  10.354  21.017  0.00  0.00    +0.011 C 
ATOM     13  C   UNL     1      21.127  11.924  20.878  0.00  0.00    +0.021 C 
ATOM     14  C   UNL     1      19.986   8.076  21.212  0.00  0.00    +0.054 C 
ATOM     15  C   UNL     1      18.626  10.207  20.846  0.00  0.00    +0.010 C 
ATOM     16  C   UNL     1      19.798  12.331  20.181  0.00  0.00    +0.123 C 
ATOM     17  C   UNL     1      22.462   9.832  21.731  0.00  0.00    +0.049 C 
ATOM     18  C   UNL     1      18.563  11.727  20.842  0.00  0.00    +0.032 C 
ATOM     19  C   UNL     1      19.688   9.800  23.093  0.00  0.00    +0.012 C 
ATOM     20  C   UNL     1      21.348   7.537  21.566  0.00  0.00    +0.058 A 
ATOM     22  C   UNL     1      22.292  12.393  19.962  0.00  0.00    +0.016 C 
ATOM     23  C   UNL     1      22.450   8.341  21.776  0.00  0.00    +0.015 A 
ATOM     26  C   UNL     1      22.854   5.986  21.949  0.00  0.00    +0.165 A 
ATOM     31  C   UNL     1      22.945   3.501  22.042  0.00  0.00    +0.224 C 
ATOM     40  H   UNL     1      24.486   4.882  22.359  0.00  0.00    +0.157 HD
ENDROOT
BRANCH  31  32
ATOM     32  C   UNL     1      23.961   2.362  22.314  0.00  0.00    +0.039 C 
ATOM     34  C   UNL     1      25.365   2.964  22.514  0.00  0.00    +0.020 C 
ATOM     35  C   UNL     1      24.012   1.402  21.115  0.00  0.00    +0.020 C 
ATOM     36  C   UNL     1      23.575   1.599  23.589  0.00  0.00    +0.020 C 
ENDBRANCH  31  32
BRANCH  16   2
ATOM      2  O   UNL     1      19.657  13.751  20.158  0.00  0.00    -0.391 OA
ATOM     38  H   UNL     1      18.712  13.951  20.043  0.00  0.00    +0.210 HD
ENDBRANCH  16   2
BRANCH  13  21
ATOM     21  C   UNL     1      21.309  12.691  22.208  0.00  0.00    +0.165 C 
BRANCH  21   3
ATOM      3  O   UNL     1      21.997  13.889  21.924  0.00  0.00    -0.394 OA
ATOM     39  H   UNL     1      21.491  14.358  21.240  0.00  0.00    +0.209 HD
ENDBRANCH  21   3
ENDBRANCH  13  21
BRANCH  14  24
ATOM     24  C   UNL     1      18.866   7.206  21.802  0.00  0.00    +0.106 C 
BRANCH  24  25
ATOM      4  O   UNL     1      18.634   5.814  19.898  0.00  0.00    -0.276 OA
ATOM      6  O   UNL     1      12.445   9.325  20.573  0.00  0.00    -0.276 OA
ATOM      8  N   UNL     1      16.718   6.907  20.623  0.00  0.00    -0.298 N 
ATOM     10  N   UNL     1      14.375   8.279  19.814  0.00  0.00    -0.299 N 
ATOM     25  C   UNL     1      18.070   6.575  20.687  0.00  0.00    +0.216 C 
ATOM     27  C   UNL     1      16.002   7.752  21.588  0.00  0.00    +0.126 C 
ATOM     28  C   UNL     1      15.874   6.339  19.568  0.00  0.00    +0.126 C 
ATOM     29  C   UNL     1      15.217   8.847  20.869  0.00  0.00    +0.126 C 
ATOM     30  C   UNL     1      15.091   7.434  18.848  0.00  0.00    +0.126 C 
ATOM     33  C   UNL     1      13.023   8.613  19.748  0.00  0.00    +0.213 C 
ATOM     37  C   UNL     1      12.244   8.049  18.586  0.00  0.00    +0.109 C 
ENDBRANCH  24  25
ENDBRANCH  14  24
TORSDOF 6
ENDMDL
MODEL 10
REMARK VINA RESULT:      -6.1      4.842      8.710
REMARK  Name = 7135091
REMARK  12 active torsions:
REMARK  status: ('A' for Active; 'I' for Inactive)
REMARK    1  A    between atoms: O_2  and  C_16
REMARK    2  A    between atoms: O_3  and  C_21
REMARK    3  A    between atoms: C_11  and  C_19
REMARK    4  A    between atoms: C_13  and  C_21
REMARK    5  A    between atoms: C_13  and  C_22
REMARK    6  A    between atoms: C_14  and  C_24
REMARK    7  A    between atoms: C_24  and  C_25
REMARK    8  A    between atoms: C_31  and  C_32
REMARK    9  A    between atoms: C_32  and  C_34
REMARK   10  A    between atoms: C_32  and  C_35
REMARK   11  A    between atoms: C_32  and  C_36
REMARK   12  A    between atoms: C_33  and  C_37
REMARK                            x       y       z     vdW  Elec       q    Type
REMARK                         _______ _______ _______ _____ _____    ______ ____
ROOT
ATOM      1  S   UNL     1     -10.275  -8.407  17.106  0.00  0.00    -0.057 S 
ATOM      5  O   UNL     1     -11.688  -7.800  12.727  0.00  0.00    -0.275 OA
ATOM      7  N   UNL     1      -9.816  -9.025  14.636  0.00  0.00    -0.229 NA
ATOM      9  N   UNL     1     -11.677  -7.554  15.061  0.00  0.00    -0.264 N 
ATOM     11  C   UNL     1      -6.621 -10.832  15.819  0.00  0.00    -0.019 C 
ATOM     12  C   UNL     1      -7.262 -11.210  17.227  0.00  0.00    +0.011 C 
ATOM     13  C   UNL     1      -6.319 -11.916  18.276  0.00  0.00    +0.021 C 
ATOM     14  C   UNL     1      -7.815 -10.553  14.793  0.00  0.00    +0.054 C 
ATOM     15  C   UNL     1      -5.794 -12.033  15.290  0.00  0.00    +0.010 C 
ATOM     16  C   UNL     1      -5.533 -13.059  17.572  0.00  0.00    +0.123 C 
ATOM     17  C   UNL     1      -8.080 -10.026  17.816  0.00  0.00    +0.049 C 
ATOM     18  C   UNL     1      -4.815 -12.603  16.306  0.00  0.00    +0.032 C 
ATOM     19  C   UNL     1      -5.702  -9.588  15.891  0.00  0.00    +0.012 C 
ATOM     20  C   UNL     1      -8.860  -9.659  15.409  0.00  0.00    +0.058 A 
ATOM     22  C   UNL     1      -7.193 -12.570  19.383  0.00  0.00    +0.016 C 
ATOM     23  C   UNL     1      -8.973  -9.451  16.768  0.00  0.00    +0.015 A 
ATOM     26  C   UNL     1     -10.609  -8.332  15.423  0.00  0.00    +0.165 A 
ATOM     31  C   UNL     1     -12.161  -7.326  13.758  0.00  0.00    +0.224 C 
ATOM     40  H   UNL     1     -12.150  -7.107  15.839  0.00  0.00    +0.157 HD
ENDROOT
BRANCH  31  32
ATOM     32  C   UNL     1     -13.393  -6.386  13.703  0.00  0.00    +0.039 C 
ATOM     34  C   UNL     1     -14.215  -6.542  14.996  0.00  0.00    +0.020 C 
ATOM     35  C   UNL     1     -14.289  -6.758  12.511  0.00  0.00    +0.020 C 
ATOM     36  C   UNL     1     -12.939  -4.923  13.591  0.00  0.00    +0.020 C 
ENDBRANCH  31  32
BRANCH  16   2
ATOM      2  O   UNL     1      -4.576 -13.632  18.462  0.00  0.00    -0.391 OA
ATOM     38  H   UNL     1      -4.569 -14.593  18.307  0.00  0.00    +0.210 HD
ENDBRANCH  16   2
BRANCH  13  21
ATOM     21  C   UNL     1      -5.356 -10.961  19.016  0.00  0.00    +0.165 C 
BRANCH  21   3
ATOM      3  O   UNL     1      -5.823 -10.816  20.338  0.00  0.00    -0.394 OA
ATOM     39  H   UNL     1      -5.043 -10.742  20.914  0.00  0.00    +0.209 HD
ENDBRANCH  21   3
ENDBRANCH  13  21
BRANCH  14  24
ATOM     24  C   UNL     1      -7.367 -10.032  13.420  0.00  0.00    +0.106 C 
BRANCH  24  25
ATOM      4  O   UNL     1      -7.856 -12.211  12.627  0.00  0.00    -0.276 OA
ATOM      6  O   UNL     1      -7.698  -7.978   6.870  0.00  0.00    -0.276 OA
ATOM      8  N   UNL     1      -8.006 -10.487  11.079  0.00  0.00    -0.298 N 
ATOM     10  N   UNL     1      -7.489  -9.710   8.404  0.00  0.00    -0.299 N 
ATOM     25  C   UNL     1      -7.766 -11.014  12.347  0.00  0.00    +0.216 C 
ATOM     27  C   UNL     1      -7.978  -9.060  10.731  0.00  0.00    +0.126 C 
ATOM     28  C   UNL     1      -8.395 -11.373   9.980  0.00  0.00    +0.126 C 
ATOM     29  C   UNL     1      -7.102  -8.822   9.503  0.00  0.00    +0.126 C 
ATOM     30  C   UNL     1      -7.518 -11.137   8.752  0.00  0.00    +0.126 C 
ATOM     33  C   UNL     1      -7.728  -9.183   7.136  0.00  0.00    +0.213 C 
ATOM     37  C   UNL     1      -8.045 -10.172   6.043  0.00  0.00    +0.109 C 
ENDBRANCH  24  25
ENDBRANCH  14  24
TORSDOF 6
ENDMDL
