REMARK  Name = 7052041
REMARK  9 active torsions:
REMARK  status: ('A' for Active; 'I' for Inactive)
REMARK    1  A    between atoms: O_5  and  C_27
REMARK    2  A    between atoms: O_5  and  C_37
REMARK    3  A    between atoms: N_9  and  C_24
REMARK    4  A    between atoms: C_11  and  C_18
REMARK    5  A    between atoms: C_16  and  C_22
REMARK    6  A    between atoms: C_23  and  C_25
REMARK    7  A    between atoms: C_24  and  C_26
REMARK    8  A    between atoms: C_24  and  C_27
REMARK    9  A    between atoms: C_26  and  C_30
REMARK                            x       y       z     vdW  Elec       q    Type
REMARK                         _______ _______ _______ _____ _____    ______ ____
ROOT
ATOM      2  O   UNL     1       3.167   4.092   0.073  0.00  0.00    -0.275 OA
ATOM      4  O   UNL     1      -3.463   3.102  -2.028  0.00  0.00    -0.270 OA
ATOM      7  N   UNL     1       1.234   2.812  -0.101  0.00  0.00    -0.287 N 
ATOM      8  N   UNL     1      -1.617   2.588  -0.694  0.00  0.00    -0.294 N 
ATOM     16  C   UNL     1       0.505   1.564   0.159  0.00  0.00    +0.179 C 
ATOM     18  C   UNL     1       2.591   3.006   0.178  0.00  0.00    +0.219 C 
ATOM     19  C   UNL     1       0.443   3.962  -0.545  0.00  0.00    +0.127 C 
ATOM     20  C   UNL     1      -0.996   1.780   0.366  0.00  0.00    +0.140 C 
ATOM     21  C   UNL     1      -0.762   3.555  -1.379  0.00  0.00    +0.127 C 
ATOM     23  C   UNL     1      -2.945   2.460  -1.115  0.00  0.00    +0.247 C 
ENDROOT
BRANCH  23  25
ATOM      1  F   UNL     1      -5.084   0.833   2.924  0.00  0.00    -0.205 F 
ATOM     25  C   UNL     1      -3.807   1.491  -0.419  0.00  0.00    +0.040 A 
ATOM     28  C   UNL     1      -4.042   1.624   0.950  0.00  0.00    +0.051 A 
ATOM     29  C   UNL     1      -4.389   0.440  -1.127  0.00  0.00    +0.013 A 
ATOM     31  C   UNL     1      -4.858   0.706   1.610  0.00  0.00    +0.124 A 
ATOM     32  C   UNL     1      -5.206  -0.478  -0.468  0.00  0.00    +0.004 A 
ATOM     34  C   UNL     1      -5.441  -0.345   0.901  0.00  0.00    +0.038 A 
ENDBRANCH  23  25
BRANCH  18  11
ATOM     11  C   UNL     1       3.365   1.806   0.638  0.00  0.00    +0.075 C 
ATOM     12  C   UNL     1       3.270   1.676   2.160  0.00  0.00    +0.013 C 
ATOM     13  C   UNL     1       4.819   1.914   0.174  0.00  0.00    +0.013 C 
ATOM     14  C   UNL     1       4.121   0.521   2.681  0.00  0.00    +0.001 C 
ATOM     15  C   UNL     1       5.666   0.758   0.700  0.00  0.00    +0.001 C 
ATOM     17  C   UNL     1       5.570   0.635   2.218  0.00  0.00    +0.000 C 
ENDBRANCH  18  11
BRANCH  16  22
ATOM      3  O   UNL     1       0.907   1.067  -2.144  0.00  0.00    -0.274 OA
ATOM      9  N   UNL     1       0.704  -0.691  -0.631  0.00  0.00    -0.301 N 
ATOM     22  C   UNL     1       0.735   0.642  -1.004  0.00  0.00    +0.236 C 
ATOM     39  H   UNL     1       0.602  -0.927   0.351  0.00  0.00    +0.150 HD
BRANCH   9  24
ATOM     24  C   UNL     1       0.875  -1.778  -1.567  0.00  0.00    +0.186 C 
BRANCH  24  27
ATOM      6  O   UNL     1       2.860  -2.366  -0.321  0.00  0.00    -0.249 OA
ATOM     27  C   UNL     1       2.144  -2.575  -1.295  0.00  0.00    +0.328 C 
BRANCH  27   5
ATOM      5  O   UNL     1       2.381  -3.510  -2.258  0.00  0.00    -0.467 OA
ATOM     37  C   UNL     1       3.568  -4.291  -2.087  0.00  0.00    +0.280 C 
ENDBRANCH  27   5
ENDBRANCH  24  27
BRANCH  24  26
ATOM     26  C   UNL     1      -0.367  -2.679  -1.630  0.00  0.00    +0.070 C 
BRANCH  26  30
ATOM     10  N   UNL     1      -1.836  -3.438   1.782  0.00  0.00    -0.263 NA
ATOM     30  C   UNL     1      -0.685  -3.407  -0.343  0.00  0.00    -0.027 A 
ATOM     33  C   UNL     1      -0.153  -4.665  -0.082  0.00  0.00    +0.006 A 
ATOM     35  C   UNL     1      -1.513  -2.842   0.613  0.00  0.00    +0.114 A 
ATOM     36  C   UNL     1      -0.463  -5.310   1.111  0.00  0.00    +0.020 A 
ATOM     38  C   UNL     1      -1.301  -4.660   2.002  0.00  0.00    +0.111 A 
ENDBRANCH  26  30
ENDBRANCH  24  26
ENDBRANCH   9  24
ENDBRANCH  16  22
TORSDOF 8
