REMARK  Name = 11867040
REMARK  10 active torsions:
REMARK  status: ('A' for Active; 'I' for Inactive)
REMARK    1  A    between atoms: O_2  and  C_15
REMARK    2  A    between atoms: O_3  and  C_20
REMARK    3  A    between atoms: N_8  and  C_26
REMARK    4  A    between atoms: C_10  and  C_18
REMARK    5  A    between atoms: C_12  and  C_20
REMARK    6  A    between atoms: C_12  and  C_21
REMARK    7  A    between atoms: C_13  and  C_23
REMARK    8  A    between atoms: C_23  and  C_24
REMARK    9  A    between atoms: C_26  and  C_28
REMARK   10  A    between atoms: C_27  and  C_29
REMARK                            x       y       z     vdW  Elec       q    Type
REMARK                         _______ _______ _______ _____ _____    ______ ____
ROOT
ATOM      1  S   UNL     1       0.453   3.056  -0.219  0.00  0.00    -0.057 S 
ATOM      5  O   UNL     1       4.347   0.795   1.009  0.00  0.00    -0.276 OA
ATOM      7  N   UNL     1       1.408   0.779   0.551  0.00  0.00    -0.229 NA
ATOM      9  N   UNL     1       2.979   2.590   0.308  0.00  0.00    -0.265 N 
ATOM     10  C   UNL     1      -2.215  -0.525   0.754  0.00  0.00    -0.019 C 
ATOM     11  C   UNL     1      -2.705   0.423  -0.427  0.00  0.00    +0.011 C 
ATOM     12  C   UNL     1      -4.249   0.422  -0.751  0.00  0.00    +0.021 C 
ATOM     13  C   UNL     1      -0.632  -0.703   0.619  0.00  0.00    +0.054 C 
ATOM     14  C   UNL     1      -2.877  -1.919   0.606  0.00  0.00    +0.010 C 
ATOM     15  C   UNL     1      -4.758  -1.046  -0.819  0.00  0.00    +0.123 C 
ATOM     16  C   UNL     1      -2.091   1.848  -0.305  0.00  0.00    +0.049 C 
ATOM     17  C   UNL     1      -4.386  -1.868   0.410  0.00  0.00    +0.032 C 
ATOM     18  C   UNL     1      -2.552   0.038   2.157  0.00  0.00    +0.012 C 
ATOM     19  C   UNL     1       0.044   0.624   0.388  0.00  0.00    +0.058 A 
ATOM     21  C   UNL     1      -4.473   1.054  -2.155  0.00  0.00    +0.016 C 
ATOM     22  C   UNL     1      -0.626   1.751  -0.044  0.00  0.00    +0.015 A 
ATOM     25  C   UNL     1       1.734   2.021   0.266  0.00  0.00    +0.165 A 
ATOM     27  C   UNL     1       4.183   1.961   0.668  0.00  0.00    +0.216 C 
ATOM     29  C   UNL     1       5.354   2.910   0.592  0.00  0.00    +0.109 C 
ATOM     36  H   UNL     1       3.012   3.572   0.046  0.00  0.00    +0.157 HD
ENDROOT
BRANCH  15   2
ATOM      2  O   UNL     1      -6.175  -1.080  -0.983  0.00  0.00    -0.391 OA
ATOM     33  H   UNL     1      -6.377  -0.852  -1.905  0.00  0.00    +0.210 HD
ENDBRANCH  15   2
BRANCH  12  20
ATOM     20  C   UNL     1      -5.109   1.258   0.222  0.00  0.00    +0.165 C 
BRANCH  20   3
ATOM      3  O   UNL     1      -6.451   1.169  -0.201  0.00  0.00    -0.394 OA
ATOM     34  H   UNL     1      -6.608   1.870  -0.856  0.00  0.00    +0.209 HD
ENDBRANCH  20   3
ENDBRANCH  12  20
BRANCH  13  23
ATOM     23  C   UNL     1       0.024  -1.475   1.771  0.00  0.00    +0.106 C 
BRANCH  23  24
ATOM      4  O   UNL     1       2.395  -1.332   2.230  0.00  0.00    -0.276 OA
ATOM      8  N   UNL     1       1.657  -2.507   0.365  0.00  0.00    -0.308 N 
ATOM     24  C   UNL     1       1.488  -1.744   1.512  0.00  0.00    +0.214 C 
ATOM     35  H   UNL     1       0.843  -2.847  -0.139  0.00  0.00    +0.149 HD
BRANCH   8  26
ATOM     26  C   UNL     1       2.952  -2.914  -0.129  0.00  0.00    +0.178 C 
BRANCH  26  28
ATOM      6  O   UNL     1       4.838  -1.771  -1.082  0.00  0.00    -0.466 OA
ATOM     28  C   UNL     1       3.495  -1.859  -1.043  0.00  0.00    +0.122 A 
ATOM     30  C   UNL     1       2.890  -0.957  -1.854  0.00  0.00    +0.046 A 
ATOM     31  C   UNL     1       3.946  -0.234  -2.460  0.00  0.00    +0.041 A 
ATOM     32  C   UNL     1       5.111  -0.767  -1.958  0.00  0.00    +0.195 A 
ENDBRANCH  26  28
ENDBRANCH   8  26
ENDBRANCH  23  24
ENDBRANCH  13  23
TORSDOF 7
