REMARK  Name = 45783468
REMARK  9 active torsions:
REMARK  status: ('A' for Active; 'I' for Inactive)
REMARK    1  A    between atoms: O_3  and  C_29
REMARK    2  A    between atoms: O_3  and  C_30
REMARK    3  A    between atoms: N_4  and  C_10
REMARK    4  A    between atoms: N_9  and  C_27
REMARK    5  A    between atoms: N_9  and  C_28
REMARK    6  A    between atoms: C_11  and  C_19
REMARK    7  A    between atoms: C_20  and  C_21
REMARK    8  A    between atoms: C_22  and  C_23
REMARK    9  A    between atoms: C_28  and  C_29
REMARK                            x       y       z     vdW  Elec       q    Type
REMARK                         _______ _______ _______ _____ _____    ______ ____
ROOT
ATOM      1  O   UNL     1      -1.387   2.634  -1.735  0.00  0.00    -0.336 OA
ATOM      6  N   UNL     1      -0.683   1.565   0.104  0.00  0.00    -0.190 NA
ATOM      7  N   UNL     1      -0.016   2.412  -1.914  0.00  0.00    -0.056 NA
ATOM     19  C   UNL     1      -1.698   2.105  -0.522  0.00  0.00    +0.245 A 
ATOM     22  C   UNL     1       0.327   1.778  -0.789  0.00  0.00    +0.204 A 
ENDROOT
BRANCH  22  23
ATOM      8  N   UNL     1       3.968   1.184  -1.255  0.00  0.00    -0.240 NA
ATOM     23  C   UNL     1       1.668   1.345  -0.525  0.00  0.00    +0.041 A 
ATOM     24  C   UNL     1       1.990   0.688   0.657  0.00  0.00    +0.016 A 
ATOM     25  C   UNL     1       2.684   1.566  -1.441  0.00  0.00    +0.124 A 
ATOM     26  C   UNL     1       3.300   0.280   0.885  0.00  0.00    +0.044 A 
ATOM     27  C   UNL     1       4.243   0.549  -0.093  0.00  0.00    +0.119 A 
BRANCH  27   9
ATOM      9  N   UNL     1       5.573   0.128   0.154  0.00  0.00    -0.327 N 
ATOM     31  H   UNL     1       6.252   0.328  -0.572  0.00  0.00    +0.148 HD
BRANCH   9  28
ATOM     28  C   UNL     1       5.957  -0.548   1.350  0.00  0.00    +0.131 C 
BRANCH  28  29
ATOM     29  C   UNL     1       7.449  -0.834   1.329  0.00  0.00    +0.178 C 
BRANCH  29   3
ATOM      3  O   UNL     1       7.753  -1.682   0.229  0.00  0.00    -0.381 OA
ATOM     30  C   UNL     1       9.141  -1.983   0.172  0.00  0.00    +0.194 C 
ENDBRANCH  29   3
ENDBRANCH  28  29
ENDBRANCH   9  28
ENDBRANCH  27   9
ENDBRANCH  22  23
BRANCH  19  11
ATOM      4  N   UNL     1      -3.545   1.139   0.837  0.00  0.00    -0.288 NA
ATOM     11  C   UNL     1      -3.145   2.217  -0.088  0.00  0.00    +0.146 C 
ATOM     12  C   UNL     1      -4.596   1.694   1.690  0.00  0.00    +0.085 C 
ATOM     13  C   UNL     1      -3.436   3.520   0.680  0.00  0.00    +0.030 C 
ATOM     16  C   UNL     1      -4.053   3.074   1.998  0.00  0.00    +0.017 C 
BRANCH   4  10
ATOM      2  O   UNL     1      -3.502  -5.004   0.563  0.00  0.00    -0.276 OA
ATOM      5  N   UNL     1      -3.655  -2.899  -0.408  0.00  0.00    -0.302 N 
ATOM     10  C   UNL     1      -3.979  -0.077   0.151  0.00  0.00    +0.060 C 
ATOM     14  C   UNL     1      -4.367  -1.149   1.177  0.00  0.00    +0.038 C 
ATOM     15  C   UNL     1      -2.861  -0.591  -0.765  0.00  0.00    +0.038 C 
ATOM     17  C   UNL     1      -4.732  -2.460   0.483  0.00  0.00    +0.109 C 
ATOM     18  C   UNL     1      -3.256  -1.914  -1.421  0.00  0.00    +0.109 C 
ATOM     20  C   UNL     1      -3.124  -4.181  -0.275  0.00  0.00    +0.212 C 
ATOM     21  C   UNL     1      -2.016  -4.556  -1.227  0.00  0.00    +0.109 C 
ENDBRANCH   4  10
ENDBRANCH  19  11
TORSDOF 7
