MODEL 1
REMARK VINA RESULT:      -7.2      0.000      0.000
REMARK  Name = 11884359
REMARK  6 active torsions:
REMARK  status: ('A' for Active; 'I' for Inactive)
REMARK    1  A    between atoms: S_1  and  N_8
REMARK    2  A    between atoms: S_1  and  C_16
REMARK    3  A    between atoms: O_4  and  C_13
REMARK    4  A    between atoms: N_8  and  C_12
REMARK    5  A    between atoms: N_9  and  C_21
REMARK    6  A    between atoms: C_22  and  C_23
REMARK                            x       y       z     vdW  Elec       q    Type
REMARK                         _______ _______ _______ _____ _____    ______ ____
ROOT
ATOM      1  S   UNL     1      15.643   9.411  20.865  0.00  0.00    +0.059 S 
ATOM      5  O   UNL     1      15.192   9.429  22.244  0.00  0.00    -0.153 OA
ATOM      6  O   UNL     1      16.035  10.644  20.210  0.00  0.00    -0.153 OA
ENDROOT
BRANCH   1  16
ATOM     16  C   UNL     1      17.022   8.309  20.757  0.00  0.00    +0.105 A 
ATOM     17  C   UNL     1      18.219   8.665  21.355  0.00  0.00    +0.030 A 
ATOM     18  C   UNL     1      16.880   7.113  20.077  0.00  0.00    +0.030 A 
ATOM     19  C   UNL     1      19.307   7.797  21.270  0.00  0.00    +0.025 A 
ATOM     20  C   UNL     1      17.967   6.244  19.993  0.00  0.00    +0.025 A 
ATOM     21  C   UNL     1      19.181   6.587  20.589  0.00  0.00    +0.033 A 
BRANCH  21   9
ATOM      7  O   UNL     1      20.925   5.421  22.750  0.00  0.00    -0.276 OA
ATOM      9  N   UNL     1      20.270   5.718  20.505  0.00  0.00    -0.286 N 
ATOM     22  C   UNL     1      21.051   5.205  21.548  0.00  0.00    +0.214 C 
ATOM     23  C   UNL     1      22.138   4.294  21.038  0.00  0.00    +0.109 C 
ATOM     26  H   UNL     1      20.520   5.426  19.561  0.00  0.00    +0.155 HD
ENDBRANCH  21   9
ENDBRANCH   1  16
BRANCH   1   8
ATOM      8  N   UNL     1      14.488   8.620  19.903  0.00  0.00    -0.182 NA
ATOM     24  H   UNL     1      14.783   7.810  19.342  0.00  0.00    +0.148 HD
BRANCH   8  12
ATOM      2  O   UNL     1      12.088   6.682  19.448  0.00  0.00    -0.370 OA
ATOM      3  O   UNL     1      11.487   8.217  22.021  0.00  0.00    -0.370 OA
ATOM     10  C   UNL     1      12.739   7.807  21.428  0.00  0.00    +0.170 C 
ATOM     11  C   UNL     1      12.501   6.446  20.806  0.00  0.00    +0.179 C 
ATOM     12  C   UNL     1      13.071   8.699  20.252  0.00  0.00    +0.133 C 
ATOM     13  C   UNL     1      11.372   5.897  21.643  0.00  0.00    +0.171 C 
ATOM     14  C   UNL     1      12.230   8.080  19.145  0.00  0.00    +0.183 C 
ATOM     15  C   UNL     1      10.551   7.135  21.924  0.00  0.00    +0.194 C 
BRANCH  13   4
ATOM      4  O   UNL     1      10.621   4.898  20.991  0.00  0.00    -0.387 OA
ATOM     25  H   UNL     1       9.688   5.168  21.003  0.00  0.00    +0.210 HD
ENDBRANCH  13   4
ENDBRANCH   8  12
ENDBRANCH   1   8
TORSDOF 5
ENDMDL
MODEL 2
REMARK VINA RESULT:      -7.1      2.196      2.954
REMARK  Name = 11884359
REMARK  6 active torsions:
REMARK  status: ('A' for Active; 'I' for Inactive)
REMARK    1  A    between atoms: S_1  and  N_8
REMARK    2  A    between atoms: S_1  and  C_16
REMARK    3  A    between atoms: O_4  and  C_13
REMARK    4  A    between atoms: N_8  and  C_12
REMARK    5  A    between atoms: N_9  and  C_21
REMARK    6  A    between atoms: C_22  and  C_23
REMARK                            x       y       z     vdW  Elec       q    Type
REMARK                         _______ _______ _______ _____ _____    ______ ____
ROOT
ATOM      1  S   UNL     1      15.583   8.888  20.745  0.00  0.00    +0.059 S 
ATOM      5  O   UNL     1      15.079   8.828  22.103  0.00  0.00    -0.153 OA
ATOM      6  O   UNL     1      15.926  10.165  20.149  0.00  0.00    -0.153 OA
ENDROOT
BRANCH   1  16
ATOM     16  C   UNL     1      17.030   7.873  20.656  0.00  0.00    +0.105 A 
ATOM     17  C   UNL     1      17.015   6.745  19.855  0.00  0.00    +0.030 A 
ATOM     18  C   UNL     1      18.148   8.226  21.390  0.00  0.00    +0.030 A 
ATOM     19  C   UNL     1      18.155   5.945  19.785  0.00  0.00    +0.025 A 
ATOM     20  C   UNL     1      19.289   7.427  21.319  0.00  0.00    +0.025 A 
ATOM     21  C   UNL     1      19.292   6.286  20.517  0.00  0.00    +0.033 A 
BRANCH  21   9
ATOM      7  O   UNL     1      21.086   5.240  22.698  0.00  0.00    -0.276 OA
ATOM      9  N   UNL     1      20.433   5.485  20.446  0.00  0.00    -0.286 N 
ATOM     22  C   UNL     1      21.235   5.027  21.499  0.00  0.00    +0.214 C 
ATOM     23  C   UNL     1      22.381   4.183  21.003  0.00  0.00    +0.109 C 
ATOM     26  H   UNL     1      20.709   5.205  19.507  0.00  0.00    +0.155 HD
ENDBRANCH  21   9
ENDBRANCH   1  16
BRANCH   1   8
ATOM      8  N   UNL     1      14.517   8.066  19.709  0.00  0.00    -0.182 NA
ATOM     24  H   UNL     1      13.764   7.500  20.121  0.00  0.00    +0.148 HD
BRANCH   8  12
ATOM      2  O   UNL     1      12.763   7.037  17.345  0.00  0.00    -0.370 OA
ATOM      3  O   UNL     1      12.955  10.070  17.025  0.00  0.00    -0.370 OA
ATOM     10  C   UNL     1      12.962   9.235  18.204  0.00  0.00    +0.170 C 
ATOM     11  C   UNL     1      11.995   8.099  17.939  0.00  0.00    +0.179 C 
ATOM     12  C   UNL     1      14.305   8.553  18.347  0.00  0.00    +0.133 C 
ATOM     13  C   UNL     1      11.034   8.712  16.951  0.00  0.00    +0.171 C 
ATOM     14  C   UNL     1      14.158   7.375  17.393  0.00  0.00    +0.183 C 
ATOM     15  C   UNL     1      11.943   9.595  16.126  0.00  0.00    +0.194 C 
BRANCH  13   4
ATOM      4  O   UNL     1      10.357   7.761  16.160  0.00  0.00    -0.387 OA
ATOM     25  H   UNL     1      10.985   7.415  15.504  0.00  0.00    +0.210 HD
ENDBRANCH  13   4
ENDBRANCH   8  12
ENDBRANCH   1   8
TORSDOF 5
ENDMDL
MODEL 3
REMARK VINA RESULT:      -6.7      3.296      7.602
REMARK  Name = 11884359
REMARK  6 active torsions:
REMARK  status: ('A' for Active; 'I' for Inactive)
REMARK    1  A    between atoms: S_1  and  N_8
REMARK    2  A    between atoms: S_1  and  C_16
REMARK    3  A    between atoms: O_4  and  C_13
REMARK    4  A    between atoms: N_8  and  C_12
REMARK    5  A    between atoms: N_9  and  C_21
REMARK    6  A    between atoms: C_22  and  C_23
REMARK                            x       y       z     vdW  Elec       q    Type
REMARK                         _______ _______ _______ _____ _____    ______ ____
ROOT
ATOM      1  S   UNL     1      11.972   7.747  19.600  0.00  0.00    +0.059 S 
ATOM      5  O   UNL     1      11.758   6.436  20.182  0.00  0.00    -0.153 OA
ATOM      6  O   UNL     1      11.284   8.126  18.381  0.00  0.00    -0.153 OA
ENDROOT
BRANCH   1  16
ATOM     16  C   UNL     1      11.561   8.959  20.822  0.00  0.00    +0.105 A 
ATOM     17  C   UNL     1      11.927  10.277  20.615  0.00  0.00    +0.030 A 
ATOM     18  C   UNL     1      10.881   8.565  21.961  0.00  0.00    +0.030 A 
ATOM     19  C   UNL     1      11.603  11.232  21.578  0.00  0.00    +0.025 A 
ATOM     20  C   UNL     1      10.556   9.521  22.923  0.00  0.00    +0.025 A 
ATOM     21  C   UNL     1      10.918  10.855  22.732  0.00  0.00    +0.033 A 
BRANCH  21   9
ATOM      7  O   UNL     1      12.184  11.454  25.397  0.00  0.00    -0.276 OA
ATOM      9  N   UNL     1      10.593  11.811  23.695  0.00  0.00    -0.286 N 
ATOM     22  C   UNL     1      11.218  12.046  24.926  0.00  0.00    +0.214 C 
ATOM     23  C   UNL     1      10.563  13.176  25.680  0.00  0.00    +0.109 C 
ATOM     26  H   UNL     1       9.800  12.407  23.465  0.00  0.00    +0.155 HD
ENDBRANCH  21   9
ENDBRANCH   1  16
BRANCH   1   8
ATOM      8  N   UNL     1      13.638   8.010  19.396  0.00  0.00    -0.182 NA
ATOM     24  H   UNL     1      13.958   8.536  18.573  0.00  0.00    +0.148 HD
BRANCH   8  12
ATOM      2  O   UNL     1      15.786   5.982  20.395  0.00  0.00    -0.370 OA
ATOM      3  O   UNL     1      16.694   8.743  21.339  0.00  0.00    -0.370 OA
ATOM     10  C   UNL     1      15.950   8.334  20.170  0.00  0.00    +0.170 C 
ATOM     11  C   UNL     1      16.534   7.011  19.722  0.00  0.00    +0.179 C 
ATOM     12  C   UNL     1      14.525   7.998  20.557  0.00  0.00    +0.133 C 
ATOM     13  C   UNL     1      17.953   7.091  20.230  0.00  0.00    +0.171 C 
ATOM     14  C   UNL     1      14.673   6.577  21.082  0.00  0.00    +0.183 C 
ATOM     15  C   UNL     1      17.782   7.829  21.539  0.00  0.00    +0.194 C 
BRANCH  13   4
ATOM      4  O   UNL     1      18.560   5.832  20.406  0.00  0.00    -0.387 OA
ATOM     25  H   UNL     1      18.200   5.228  19.735  0.00  0.00    +0.210 HD
ENDBRANCH  13   4
ENDBRANCH   8  12
ENDBRANCH   1   8
TORSDOF 5
ENDMDL
MODEL 4
REMARK VINA RESULT:      -6.4     26.376     28.419
REMARK  Name = 11884359
REMARK  6 active torsions:
REMARK  status: ('A' for Active; 'I' for Inactive)
REMARK    1  A    between atoms: S_1  and  N_8
REMARK    2  A    between atoms: S_1  and  C_16
REMARK    3  A    between atoms: O_4  and  C_13
REMARK    4  A    between atoms: N_8  and  C_12
REMARK    5  A    between atoms: N_9  and  C_21
REMARK    6  A    between atoms: C_22  and  C_23
REMARK                            x       y       z     vdW  Elec       q    Type
REMARK                         _______ _______ _______ _____ _____    ______ ____
ROOT
ATOM      1  S   UNL     1      -2.306 -10.806  14.874  0.00  0.00    +0.059 S 
ATOM      5  O   UNL     1      -2.031 -12.227  14.967  0.00  0.00    -0.153 OA
ATOM      6  O   UNL     1      -1.241  -9.842  15.075  0.00  0.00    -0.153 OA
ENDROOT
BRANCH   1  16
ATOM     16  C   UNL     1      -2.994 -10.488  13.276  0.00  0.00    +0.105 A 
ATOM     17  C   UNL     1      -4.370 -10.485  13.121  0.00  0.00    +0.030 A 
ATOM     18  C   UNL     1      -2.145 -10.248  12.210  0.00  0.00    +0.030 A 
ATOM     19  C   UNL     1      -4.912 -10.234  11.861  0.00  0.00    +0.025 A 
ATOM     20  C   UNL     1      -2.688  -9.996  10.951  0.00  0.00    +0.025 A 
ATOM     21  C   UNL     1      -4.071  -9.990  10.776  0.00  0.00    +0.033 A 
BRANCH  21   9
ATOM      7  O   UNL     1      -4.361 -11.787   8.377  0.00  0.00    -0.276 OA
ATOM      9  N   UNL     1      -4.615  -9.738   9.515  0.00  0.00    -0.286 N 
ATOM     22  C   UNL     1      -4.723 -10.615   8.429  0.00  0.00    +0.214 C 
ATOM     23  C   UNL     1      -5.375  -9.956   7.240  0.00  0.00    +0.109 C 
ATOM     26  H   UNL     1      -4.974  -8.795   9.378  0.00  0.00    +0.155 HD
ENDBRANCH  21   9
ENDBRANCH   1  16
BRANCH   1   8
ATOM      8  N   UNL     1      -3.604 -10.413  15.897  0.00  0.00    -0.182 NA
ATOM     24  H   UNL     1      -4.082  -9.512  15.766  0.00  0.00    +0.148 HD
BRANCH   8  12
ATOM      2  O   UNL     1      -4.929 -10.651  18.710  0.00  0.00    -0.370 OA
ATOM      3  O   UNL     1      -6.611 -12.356  16.811  0.00  0.00    -0.370 OA
ATOM     10  C   UNL     1      -5.847 -11.151  16.584  0.00  0.00    +0.170 C 
ATOM     11  C   UNL     1      -6.005 -10.295  17.824  0.00  0.00    +0.179 C 
ATOM     12  C   UNL     1      -4.369 -11.476  16.545  0.00  0.00    +0.133 C 
ATOM     13  C   UNL     1      -7.342 -10.742  18.362  0.00  0.00    +0.171 C 
ATOM     14  C   UNL     1      -4.024 -11.534  18.026  0.00  0.00    +0.183 C 
ATOM     15  C   UNL     1      -7.336 -12.220  18.042  0.00  0.00    +0.194 C 
BRANCH  13   4
ATOM      4  O   UNL     1      -7.504 -10.499  19.741  0.00  0.00    -0.387 OA
ATOM     25  H   UNL     1      -8.173  -9.801  19.846  0.00  0.00    +0.210 HD
ENDBRANCH  13   4
ENDBRANCH   8  12
ENDBRANCH   1   8
TORSDOF 5
ENDMDL
MODEL 5
REMARK VINA RESULT:      -6.3     30.137     32.271
REMARK  Name = 11884359
REMARK  6 active torsions:
REMARK  status: ('A' for Active; 'I' for Inactive)
REMARK    1  A    between atoms: S_1  and  N_8
REMARK    2  A    between atoms: S_1  and  C_16
REMARK    3  A    between atoms: O_4  and  C_13
REMARK    4  A    between atoms: N_8  and  C_12
REMARK    5  A    between atoms: N_9  and  C_21
REMARK    6  A    between atoms: C_22  and  C_23
REMARK                            x       y       z     vdW  Elec       q    Type
REMARK                         _______ _______ _______ _____ _____    ______ ____
ROOT
ATOM      1  S   UNL     1     -15.053   5.221  34.351  0.00  0.00    +0.059 S 
ATOM      5  O   UNL     1     -16.312   5.742  33.855  0.00  0.00    -0.153 OA
ATOM      6  O   UNL     1     -14.952   4.728  35.711  0.00  0.00    -0.153 OA
ENDROOT
BRANCH   1  16
ATOM     16  C   UNL     1     -14.552   3.900  33.286  0.00  0.00    +0.105 A 
ATOM     17  C   UNL     1     -13.762   4.182  32.186  0.00  0.00    +0.030 A 
ATOM     18  C   UNL     1     -14.962   2.609  33.573  0.00  0.00    +0.030 A 
ATOM     19  C   UNL     1     -13.367   3.141  31.346  0.00  0.00    +0.025 A 
ATOM     20  C   UNL     1     -14.566   1.568  32.733  0.00  0.00    +0.025 A 
ATOM     21  C   UNL     1     -13.770   1.834  31.620  0.00  0.00    +0.033 A 
BRANCH  21   9
ATOM      7  O   UNL     1     -15.392   0.066  29.801  0.00  0.00    -0.276 OA
ATOM      9  N   UNL     1     -13.374   0.792  30.780  0.00  0.00    -0.286 N 
ATOM     22  C   UNL     1     -14.176  -0.003  29.952  0.00  0.00    +0.214 C 
ATOM     23  C   UNL     1     -13.363  -1.026  29.199  0.00  0.00    +0.109 C 
ATOM     26  H   UNL     1     -12.375   0.592  30.776  0.00  0.00    +0.155 HD
ENDBRANCH  21   9
ENDBRANCH   1  16
BRANCH   1   8
ATOM      8  N   UNL     1     -13.825   6.364  34.088  0.00  0.00    -0.182 NA
ATOM     24  H   UNL     1     -12.871   6.031  33.897  0.00  0.00    +0.148 HD
BRANCH   8  12
ATOM      2  O   UNL     1     -12.135   8.948  33.646  0.00  0.00    -0.370 OA
ATOM      3  O   UNL     1     -14.391   9.025  31.586  0.00  0.00    -0.370 OA
ATOM     10  C   UNL     1     -13.685   7.915  32.184  0.00  0.00    +0.170 C 
ATOM     11  C   UNL     1     -12.243   8.349  32.342  0.00  0.00    +0.179 C 
ATOM     12  C   UNL     1     -14.165   7.701  33.603  0.00  0.00    +0.133 C 
ATOM     13  C   UNL     1     -12.088   9.374  31.245  0.00  0.00    +0.171 C 
ATOM     14  C   UNL     1     -13.363   8.747  34.363  0.00  0.00    +0.183 C 
ATOM     15  C   UNL     1     -13.443  10.045  31.241  0.00  0.00    +0.194 C 
BRANCH  13   4
ATOM      4  O   UNL     1     -11.042  10.291  31.474  0.00  0.00    -0.387 OA
ATOM     25  H   UNL     1     -10.750  10.634  30.612  0.00  0.00    +0.210 HD
ENDBRANCH  13   4
ENDBRANCH   8  12
ENDBRANCH   1   8
TORSDOF 5
ENDMDL
MODEL 6
REMARK VINA RESULT:      -6.3     27.519     29.188
REMARK  Name = 11884359
REMARK  6 active torsions:
REMARK  status: ('A' for Active; 'I' for Inactive)
REMARK    1  A    between atoms: S_1  and  N_8
REMARK    2  A    between atoms: S_1  and  C_16
REMARK    3  A    between atoms: O_4  and  C_13
REMARK    4  A    between atoms: N_8  and  C_12
REMARK    5  A    between atoms: N_9  and  C_21
REMARK    6  A    between atoms: C_22  and  C_23
REMARK                            x       y       z     vdW  Elec       q    Type
REMARK                         _______ _______ _______ _____ _____    ______ ____
ROOT
ATOM      1  S   UNL     1      -6.879 -11.538  19.364  0.00  0.00    +0.059 S 
ATOM      5  O   UNL     1      -7.650 -12.766  19.366  0.00  0.00    -0.153 OA
ATOM      6  O   UNL     1      -6.111 -11.156  20.533  0.00  0.00    -0.153 OA
ENDROOT
BRANCH   1  16
ATOM     16  C   UNL     1      -5.748 -11.607  18.005  0.00  0.00    +0.105 A 
ATOM     17  C   UNL     1      -4.914 -10.529  17.765  0.00  0.00    +0.030 A 
ATOM     18  C   UNL     1      -5.720 -12.738  17.207  0.00  0.00    +0.030 A 
ATOM     19  C   UNL     1      -4.023 -10.584  16.694  0.00  0.00    +0.025 A 
ATOM     20  C   UNL     1      -4.827 -12.793  16.137  0.00  0.00    +0.025 A 
ATOM     21  C   UNL     1      -3.979 -11.715  15.880  0.00  0.00    +0.033 A 
BRANCH  21   9
ATOM      7  O   UNL     1      -4.087 -10.394  13.176  0.00  0.00    -0.276 OA
ATOM      9  N   UNL     1      -3.087 -11.770  14.808  0.00  0.00    -0.286 N 
ATOM     22  C   UNL     1      -3.188 -11.133  13.565  0.00  0.00    +0.214 C 
ATOM     23  C   UNL     1      -2.010 -11.448  12.678  0.00  0.00    +0.109 C 
ATOM     26  H   UNL     1      -2.262 -12.349  14.959  0.00  0.00    +0.155 HD
ENDBRANCH  21   9
ENDBRANCH   1  16
BRANCH   1   8
ATOM      8  N   UNL     1      -7.881 -10.241  18.918  0.00  0.00    -0.182 NA
ATOM     24  H   UNL     1      -7.662  -9.301  19.274  0.00  0.00    +0.148 HD
BRANCH   8  12
ATOM      2  O   UNL     1     -10.561  -8.919  18.027  0.00  0.00    -0.370 OA
ATOM      3  O   UNL     1      -8.902  -9.308  15.491  0.00  0.00    -0.370 OA
ATOM     10  C   UNL     1      -8.507  -9.053  16.857  0.00  0.00    +0.170 C 
ATOM     11  C   UNL     1      -9.533  -8.103  17.437  0.00  0.00    +0.179 C 
ATOM     12  C   UNL     1      -8.659 -10.313  17.682  0.00  0.00    +0.133 C 
ATOM     13  C   UNL     1     -10.033  -7.375  16.214  0.00  0.00    +0.171 C 
ATOM     14  C   UNL     1     -10.146 -10.294  18.005  0.00  0.00    +0.183 C 
ATOM     15  C   UNL     1     -10.014  -8.463  15.164  0.00  0.00    +0.194 C 
BRANCH  13   4
ATOM      4  O   UNL     1     -11.317  -6.816  16.377  0.00  0.00    -0.387 OA
ATOM     25  H   UNL     1     -11.256  -6.112  17.043  0.00  0.00    +0.210 HD
ENDBRANCH  13   4
ENDBRANCH   8  12
ENDBRANCH   1   8
TORSDOF 5
ENDMDL
MODEL 7
REMARK VINA RESULT:      -6.3     26.683     28.678
REMARK  Name = 11884359
REMARK  6 active torsions:
REMARK  status: ('A' for Active; 'I' for Inactive)
REMARK    1  A    between atoms: S_1  and  N_8
REMARK    2  A    between atoms: S_1  and  C_16
REMARK    3  A    between atoms: O_4  and  C_13
REMARK    4  A    between atoms: N_8  and  C_12
REMARK    5  A    between atoms: N_9  and  C_21
REMARK    6  A    between atoms: C_22  and  C_23
REMARK                            x       y       z     vdW  Elec       q    Type
REMARK                         _______ _______ _______ _____ _____    ______ ____
ROOT
ATOM      1  S   UNL     1      -2.148 -11.205  14.862  0.00  0.00    +0.059 S 
ATOM      5  O   UNL     1      -1.236 -10.386  15.638  0.00  0.00    -0.153 OA
ATOM      6  O   UNL     1      -1.757 -12.540  14.450  0.00  0.00    -0.153 OA
ENDROOT
BRANCH   1  16
ATOM     16  C   UNL     1      -3.650 -11.369  15.782  0.00  0.00    +0.105 A 
ATOM     17  C   UNL     1      -4.162 -10.265  16.439  0.00  0.00    +0.030 A 
ATOM     18  C   UNL     1      -4.283 -12.599  15.828  0.00  0.00    +0.030 A 
ATOM     19  C   UNL     1      -5.347 -10.393  17.165  0.00  0.00    +0.025 A 
ATOM     20  C   UNL     1      -5.468 -12.727  16.552  0.00  0.00    +0.025 A 
ATOM     21  C   UNL     1      -5.999 -11.625  17.221  0.00  0.00    +0.033 A 
BRANCH  21   9
ATOM      7  O   UNL     1      -6.508 -11.446  20.184  0.00  0.00    -0.276 OA
ATOM      9  N   UNL     1      -7.184 -11.753  17.947  0.00  0.00    -0.286 N 
ATOM     22  C   UNL     1      -7.365 -11.662  19.332  0.00  0.00    +0.214 C 
ATOM     23  C   UNL     1      -8.808 -11.861  19.724  0.00  0.00    +0.109 C 
ATOM     26  H   UNL     1      -8.017 -11.936  17.389  0.00  0.00    +0.155 HD
ENDBRANCH  21   9
ENDBRANCH   1  16
BRANCH   1   8
ATOM      8  N   UNL     1      -2.667 -10.338  13.498  0.00  0.00    -0.182 NA
ATOM     24  H   UNL     1      -2.109  -9.534  13.180  0.00  0.00    +0.148 HD
BRANCH   8  12
ATOM      2  O   UNL     1      -4.818  -9.254  11.517  0.00  0.00    -0.370 OA
ATOM      3  O   UNL     1      -3.566 -11.702  10.183  0.00  0.00    -0.370 OA
ATOM     10  C   UNL     1      -3.012 -10.727  11.094  0.00  0.00    +0.170 C 
ATOM     11  C   UNL     1      -3.623  -9.390  10.726  0.00  0.00    +0.179 C 
ATOM     12  C   UNL     1      -3.511 -10.989  12.498  0.00  0.00    +0.133 C 
ATOM     13  C   UNL     1      -3.942  -9.568   9.262  0.00  0.00    +0.171 C 
ATOM     14  C   UNL     1      -4.882 -10.328  12.469  0.00  0.00    +0.183 C 
ATOM     15  C   UNL     1      -4.359 -11.020   9.200  0.00  0.00    +0.194 C 
BRANCH  13   4
ATOM      4  O   UNL     1      -4.955  -8.705   8.797  0.00  0.00    -0.387 OA
ATOM     25  H   UNL     1      -4.540  -7.861   8.551  0.00  0.00    +0.210 HD
ENDBRANCH  13   4
ENDBRANCH   8  12
ENDBRANCH   1   8
TORSDOF 5
ENDMDL
MODEL 8
REMARK VINA RESULT:      -6.2      2.580      8.986
REMARK  Name = 11884359
REMARK  6 active torsions:
REMARK  status: ('A' for Active; 'I' for Inactive)
REMARK    1  A    between atoms: S_1  and  N_8
REMARK    2  A    between atoms: S_1  and  C_16
REMARK    3  A    between atoms: O_4  and  C_13
REMARK    4  A    between atoms: N_8  and  C_12
REMARK    5  A    between atoms: N_9  and  C_21
REMARK    6  A    between atoms: C_22  and  C_23
REMARK                            x       y       z     vdW  Elec       q    Type
REMARK                         _______ _______ _______ _____ _____    ______ ____
ROOT
ATOM      1  S   UNL     1      20.324   6.752  22.237  0.00  0.00    +0.059 S 
ATOM      5  O   UNL     1      21.113   7.956  22.062  0.00  0.00    -0.153 OA
ATOM      6  O   UNL     1      19.919   6.331  23.565  0.00  0.00    -0.153 OA
ENDROOT
BRANCH   1  16
ATOM     16  C   UNL     1      18.847   6.924  21.279  0.00  0.00    +0.105 A 
ATOM     17  C   UNL     1      18.567   5.990  20.297  0.00  0.00    +0.030 A 
ATOM     18  C   UNL     1      18.001   7.990  21.528  0.00  0.00    +0.030 A 
ATOM     19  C   UNL     1      17.402   6.126  19.541  0.00  0.00    +0.025 A 
ATOM     20  C   UNL     1      16.836   8.125  20.773  0.00  0.00    +0.025 A 
ATOM     21  C   UNL     1      16.537   7.194  19.779  0.00  0.00    +0.033 A 
BRANCH  21   9
ATOM      7  O   UNL     1      13.658   6.723  20.523  0.00  0.00    -0.276 OA
ATOM      9  N   UNL     1      15.372   7.329  19.023  0.00  0.00    -0.286 N 
ATOM     22  C   UNL     1      14.050   7.093  19.421  0.00  0.00    +0.214 C 
ATOM     23  C   UNL     1      13.073   7.357  18.303  0.00  0.00    +0.109 C 
ATOM     26  H   UNL     1      15.511   7.637  18.062  0.00  0.00    +0.155 HD
ENDBRANCH  21   9
ENDBRANCH   1  16
BRANCH   1   8
ATOM      8  N   UNL     1      21.094   5.453  21.460  0.00  0.00    -0.182 NA
ATOM     24  H   UNL     1      20.720   5.122  20.561  0.00  0.00    +0.148 HD
BRANCH   8  12
ATOM      2  O   UNL     1      22.588   2.917  22.493  0.00  0.00    -0.370 OA
ATOM      3  O   UNL     1      24.555   4.410  20.693  0.00  0.00    -0.370 OA
ATOM     10  C   UNL     1      23.115   4.308  20.650  0.00  0.00    +0.170 C 
ATOM     11  C   UNL     1      22.765   2.894  21.065  0.00  0.00    +0.179 C 
ATOM     12  C   UNL     1      22.503   5.174  21.730  0.00  0.00    +0.133 C 
ATOM     13  C   UNL     1      24.000   2.122  20.670  0.00  0.00    +0.171 C 
ATOM     14  C   UNL     1      22.629   4.278  22.954  0.00  0.00    +0.183 C 
ATOM     15  C   UNL     1      25.104   3.112  20.966  0.00  0.00    +0.194 C 
BRANCH  13   4
ATOM      4  O   UNL     1      24.163   0.917  21.382  0.00  0.00    -0.387 OA
ATOM     25  H   UNL     1      23.605   0.960  22.177  0.00  0.00    +0.210 HD
ENDBRANCH  13   4
ENDBRANCH   8  12
ENDBRANCH   1   8
TORSDOF 5
ENDMDL
MODEL 9
REMARK VINA RESULT:      -6.2     26.254     29.500
REMARK  Name = 11884359
REMARK  6 active torsions:
REMARK  status: ('A' for Active; 'I' for Inactive)
REMARK    1  A    between atoms: S_1  and  N_8
REMARK    2  A    between atoms: S_1  and  C_16
REMARK    3  A    between atoms: O_4  and  C_13
REMARK    4  A    between atoms: N_8  and  C_12
REMARK    5  A    between atoms: N_9  and  C_21
REMARK    6  A    between atoms: C_22  and  C_23
REMARK                            x       y       z     vdW  Elec       q    Type
REMARK                         _______ _______ _______ _____ _____    ______ ____
ROOT
ATOM      1  S   UNL     1      -8.709 -10.919  18.497  0.00  0.00    +0.059 S 
ATOM      5  O   UNL     1      -9.270 -12.063  17.804  0.00  0.00    -0.153 OA
ATOM      6  O   UNL     1      -8.627 -10.912  19.945  0.00  0.00    -0.153 OA
ENDROOT
BRANCH   1  16
ATOM     16  C   UNL     1      -7.068 -10.664  17.887  0.00  0.00    +0.105 A 
ATOM     17  C   UNL     1      -6.887  -9.941  16.721  0.00  0.00    +0.030 A 
ATOM     18  C   UNL     1      -5.998 -11.193  18.586  0.00  0.00    +0.030 A 
ATOM     19  C   UNL     1      -5.593  -9.740  16.240  0.00  0.00    +0.025 A 
ATOM     20  C   UNL     1      -4.704 -10.990  18.105  0.00  0.00    +0.025 A 
ATOM     21  C   UNL     1      -4.502 -10.264  16.932  0.00  0.00    +0.033 A 
BRANCH  21   9
ATOM      7  O   UNL     1      -2.800 -11.968  15.125  0.00  0.00    -0.276 OA
ATOM      9  N   UNL     1      -3.208 -10.062  16.450  0.00  0.00    -0.286 N 
ATOM     22  C   UNL     1      -2.459 -10.893  15.609  0.00  0.00    +0.214 C 
ATOM     23  C   UNL     1      -1.097 -10.315  15.319  0.00  0.00    +0.109 C 
ATOM     26  H   UNL     1      -2.761  -9.199  16.755  0.00  0.00    +0.155 HD
ENDBRANCH  21   9
ENDBRANCH   1  16
BRANCH   1   8
ATOM      8  N   UNL     1      -9.496  -9.505  17.985  0.00  0.00    -0.182 NA
ATOM     24  H   UNL     1      -9.071  -8.594  18.204  0.00  0.00    +0.148 HD
BRANCH   8  12
ATOM      2  O   UNL     1     -11.953  -7.769  17.162  0.00  0.00    -0.370 OA
ATOM      3  O   UNL     1     -10.682  -8.758  14.565  0.00  0.00    -0.370 OA
ATOM     10  C   UNL     1     -10.101  -8.443  15.850  0.00  0.00    +0.170 C 
ATOM     11  C   UNL     1     -10.858  -7.247  16.389  0.00  0.00    +0.179 C 
ATOM     12  C   UNL     1     -10.402  -9.549  16.838  0.00  0.00    +0.133 C 
ATOM     13  C   UNL     1     -11.337  -6.569  15.130  0.00  0.00    +0.171 C 
ATOM     14  C   UNL     1     -11.815  -9.195  17.280  0.00  0.00    +0.183 C 
ATOM     15  C   UNL     1     -11.641  -7.745  14.229  0.00  0.00    +0.194 C 
BRANCH  13   4
ATOM      4  O   UNL     1     -12.466  -5.747  15.328  0.00  0.00    -0.387 OA
ATOM     25  H   UNL     1     -12.156  -4.831  15.429  0.00  0.00    +0.210 HD
ENDBRANCH  13   4
ENDBRANCH   8  12
ENDBRANCH   1   8
TORSDOF 5
ENDMDL
MODEL 10
REMARK VINA RESULT:      -6.0     26.620     28.777
REMARK  Name = 11884359
REMARK  6 active torsions:
REMARK  status: ('A' for Active; 'I' for Inactive)
REMARK    1  A    between atoms: S_1  and  N_8
REMARK    2  A    between atoms: S_1  and  C_16
REMARK    3  A    between atoms: O_4  and  C_13
REMARK    4  A    between atoms: N_8  and  C_12
REMARK    5  A    between atoms: N_9  and  C_21
REMARK    6  A    between atoms: C_22  and  C_23
REMARK                            x       y       z     vdW  Elec       q    Type
REMARK                         _______ _______ _______ _____ _____    ______ ____
ROOT
ATOM      1  S   UNL     1      -2.889 -10.847  12.527  0.00  0.00    +0.059 S 
ATOM      5  O   UNL     1      -3.020 -12.246  12.167  0.00  0.00    -0.153 OA
ATOM      6  O   UNL     1      -1.582 -10.217  12.541  0.00  0.00    -0.153 OA
ENDROOT
BRANCH   1  16
ATOM     16  C   UNL     1      -3.903  -9.904  11.426  0.00  0.00    +0.105 A 
ATOM     17  C   UNL     1      -5.177  -9.542  11.826  0.00  0.00    +0.030 A 
ATOM     18  C   UNL     1      -3.403  -9.547  10.186  0.00  0.00    +0.030 A 
ATOM     19  C   UNL     1      -5.977  -8.798  10.958  0.00  0.00    +0.025 A 
ATOM     20  C   UNL     1      -4.203  -8.803   9.319  0.00  0.00    +0.025 A 
ATOM     21  C   UNL     1      -5.490  -8.429   9.705  0.00  0.00    +0.033 A 
BRANCH  21   9
ATOM      7  O   UNL     1      -8.258  -8.969   8.650  0.00  0.00    -0.276 OA
ATOM      9  N   UNL     1      -6.291  -7.685   8.838  0.00  0.00    -0.286 N 
ATOM     22  C   UNL     1      -7.578  -7.985   8.375  0.00  0.00    +0.214 C 
ATOM     23  C   UNL     1      -8.103  -6.920   7.447  0.00  0.00    +0.109 C 
ATOM     26  H   UNL     1      -5.877  -6.815   8.503  0.00  0.00    +0.155 HD
ENDBRANCH  21   9
ENDBRANCH   1  16
BRANCH   1   8
ATOM      8  N   UNL     1      -3.647 -10.573  14.021  0.00  0.00    -0.182 NA
ATOM     24  H   UNL     1      -4.510 -10.014  14.043  0.00  0.00    +0.148 HD
BRANCH   8  12
ATOM      2  O   UNL     1      -3.724 -10.233  17.120  0.00  0.00    -0.370 OA
ATOM      3  O   UNL     1      -4.579 -13.109  16.542  0.00  0.00    -0.370 OA
ATOM     10  C   UNL     1      -4.748 -11.894  15.779  0.00  0.00    +0.170 C 
ATOM     11  C   UNL     1      -5.007 -10.785  16.778  0.00  0.00    +0.179 C 
ATOM     12  C   UNL     1      -3.439 -11.507  15.126  0.00  0.00    +0.133 C 
ATOM     13  C   UNL     1      -5.622 -11.527  17.938  0.00  0.00    +0.171 C 
ATOM     14  C   UNL     1      -2.718 -10.806  16.269  0.00  0.00    +0.183 C 
ATOM     15  C   UNL     1      -4.861 -12.834  17.922  0.00  0.00    +0.194 C 
BRANCH  13   4
ATOM      4  O   UNL     1      -5.493 -10.853  19.170  0.00  0.00    -0.387 OA
ATOM     25  H   UNL     1      -5.111 -11.474  19.813  0.00  0.00    +0.210 HD
ENDBRANCH  13   4
ENDBRANCH   8  12
ENDBRANCH   1   8
TORSDOF 5
ENDMDL
