REMARK  Name = 45783567
REMARK  11 active torsions:
REMARK  status: ('A' for Active; 'I' for Inactive)
REMARK    1  A    between atoms: O_2  and  C_28
REMARK    2  A    between atoms: O_2  and  C_30
REMARK    3  A    between atoms: O_4  and  C_31
REMARK    4  A    between atoms: O_4  and  C_32
REMARK    5  A    between atoms: N_5  and  C_14
REMARK    6  A    between atoms: N_8  and  C_22
REMARK    7  A    between atoms: C_10  and  C_15
REMARK    8  A    between atoms: C_14  and  C_16
REMARK    9  A    between atoms: C_19  and  C_23
REMARK   10  A    between atoms: C_27  and  C_29
REMARK   11  A    between atoms: C_30  and  C_31
REMARK                            x       y       z     vdW  Elec       q    Type
REMARK                         _______ _______ _______ _____ _____    ______ ____
ROOT
ATOM      5  N   UNL     1      -4.363  -0.232  -1.088  0.00  0.00    -0.287 NA
ATOM     10  C   UNL     1      -4.316  -1.151   0.067  0.00  0.00    +0.146 C 
ATOM     11  C   UNL     1      -4.941  -2.460  -0.450  0.00  0.00    +0.030 C 
ATOM     12  C   UNL     1      -5.363  -2.162  -1.882  0.00  0.00    +0.017 C 
ATOM     13  C   UNL     1      -5.501  -0.653  -1.905  0.00  0.00    +0.085 C 
ENDROOT
BRANCH  10  15
ATOM      1  O   UNL     1      -2.803  -1.660   1.917  0.00  0.00    -0.336 OA
ATOM      6  N   UNL     1      -1.766  -1.249  -0.025  0.00  0.00    -0.190 NA
ATOM      7  N   UNL     1      -1.432  -1.784   2.174  0.00  0.00    -0.056 NA
ATOM     15  C   UNL     1      -2.912  -1.344   0.600  0.00  0.00    +0.245 A 
ATOM     19  C   UNL     1      -0.887  -1.528   0.981  0.00  0.00    +0.204 A 
BRANCH  19  23
ATOM      9  N   UNL     1       2.386  -1.274  -0.765  0.00  0.00    -0.221 NA
ATOM     23  C   UNL     1       0.530  -1.543   0.761  0.00  0.00    +0.041 A 
ATOM     24  C   UNL     1       1.413  -1.829   1.796  0.00  0.00    +0.018 A 
ATOM     25  C   UNL     1       1.063  -1.275  -0.490  0.00  0.00    +0.126 A 
ATOM     26  C   UNL     1       2.782  -1.838   1.553  0.00  0.00    +0.068 A 
ATOM     28  C   UNL     1       3.214  -1.556   0.267  0.00  0.00    +0.215 A 
BRANCH  28   2
ATOM      2  O   UNL     1       4.558  -1.559   0.002  0.00  0.00    -0.474 OA
BRANCH   2  30
ATOM     30  C   UNL     1       4.947  -1.264  -1.335  0.00  0.00    +0.258 C 
BRANCH  30  31
ATOM     31  C   UNL     1       6.461  -1.290  -1.427  0.00  0.00    +0.200 C 
BRANCH  31   4
ATOM      4  O   UNL     1       6.996  -0.302  -0.555  0.00  0.00    -0.380 OA
ATOM     32  C   UNL     1       8.417  -0.297  -0.584  0.00  0.00    +0.194 C 
ENDBRANCH  31   4
ENDBRANCH  30  31
ENDBRANCH   2  30
ENDBRANCH  28   2
ENDBRANCH  19  23
ENDBRANCH  10  15
BRANCH   5  14
ATOM     14  C   UNL     1      -4.455   1.171  -0.702  0.00  0.00    +0.120 C 
BRANCH  14  16
ATOM     16  C   UNL     1      -3.116   1.729  -0.298  0.00  0.00    -0.033 A 
ATOM     17  C   UNL     1      -2.941   2.266   0.977  0.00  0.00    +0.007 A 
ATOM     18  C   UNL     1      -2.051   1.711  -1.199  0.00  0.00    +0.007 A 
ATOM     20  C   UNL     1      -1.701   2.784   1.352  0.00  0.00    +0.023 A 
ATOM     21  C   UNL     1      -0.812   2.229  -0.825  0.00  0.00    +0.023 A 
ATOM     22  C   UNL     1      -0.637   2.766   0.451  0.00  0.00    +0.033 A 
BRANCH  22   8
ATOM      3  O   UNL     1       1.942   2.969  -1.090  0.00  0.00    -0.276 OA
ATOM      8  N   UNL     1       0.604   3.284   0.825  0.00  0.00    -0.286 N 
ATOM     27  C   UNL     1       1.778   3.352   0.063  0.00  0.00    +0.214 C 
ATOM     29  C   UNL     1       2.908   3.988   0.834  0.00  0.00    +0.109 C 
ATOM     33  H   UNL     1       0.651   3.656   1.771  0.00  0.00    +0.155 HD
ENDBRANCH  22   8
ENDBRANCH  14  16
ENDBRANCH   5  14
TORSDOF 9
