MODEL 1
REMARK VINA RESULT:      -7.1      0.000      0.000
REMARK  Name = 51138118
REMARK  11 active torsions:
REMARK  status: ('A' for Active; 'I' for Inactive)
REMARK    1  A    between atoms: N_4  and  C_23
REMARK    2  A    between atoms: N_5  and  C_24
REMARK    3  A    between atoms: N_6  and  C_26
REMARK    4  A    between atoms: C_7  and  C_12
REMARK    5  A    between atoms: C_8  and  C_18
REMARK    6  A    between atoms: C_12  and  C_15
REMARK    7  A    between atoms: C_15  and  C_21
REMARK    8  A    between atoms: C_15  and  C_22
REMARK    9  A    between atoms: C_23  and  C_31
REMARK   10  A    between atoms: C_24  and  C_25
REMARK   11  A    between atoms: C_25  and  C_26
REMARK                            x       y       z     vdW  Elec       q    Type
REMARK                         _______ _______ _______ _____ _____    ______ ____
ROOT
ATOM      3  N   UNL     1      -6.682 -10.988  16.458  0.00  0.00    -0.299 NA
ATOM      4  N   UNL     1      -3.586 -10.389  12.514  0.00  0.00    -0.343 N 
ATOM      7  C   UNL     1      -5.340 -10.812  17.029  0.00  0.00    +0.085 C 
ATOM      8  C   UNL     1      -7.119  -9.908  15.586  0.00  0.00    +0.145 C 
ATOM      9  C   UNL     1      -4.183 -10.793  16.024  0.00  0.00    -0.021 A 
ATOM     10  C   UNL     1      -4.318 -10.592  14.620  0.00  0.00    +0.008 A 
ATOM     11  C   UNL     1      -6.879 -10.242  14.114  0.00  0.00    +0.065 C 
ATOM     13  C   UNL     1      -5.436 -10.353  13.748  0.00  0.00    -0.020 A 
ATOM     14  C   UNL     1      -3.176 -10.583  13.812  0.00  0.00    +0.050 A 
ATOM     16  C   UNL     1      -4.940 -10.244  12.464  0.00  0.00    +0.090 A 
ATOM     17  C   UNL     1      -2.858 -10.905  16.515  0.00  0.00    +0.006 A 
ATOM     19  C   UNL     1      -1.881 -10.741  14.308  0.00  0.00    +0.026 A 
ATOM     20  C   UNL     1      -1.740 -10.890  15.682  0.00  0.00    +0.002 A 
ATOM     33  H   UNL     1      -6.765 -11.892  15.994  0.00  0.00    +0.123 HD
ENDROOT
BRANCH   8  18
ATOM      1  O   UNL     1      -9.226 -10.637  16.435  0.00  0.00    -0.274 OA
ATOM      5  N   UNL     1      -9.115  -8.626  15.268  0.00  0.00    -0.314 N 
ATOM     18  C   UNL     1      -8.592  -9.780  15.825  0.00  0.00    +0.230 C 
ATOM     34  H   UNL     1      -8.503  -7.976  14.784  0.00  0.00    +0.149 HD
BRANCH   5  24
ATOM     24  C   UNL     1     -10.517  -8.278  15.340  0.00  0.00    +0.106 C 
BRANCH  24  25
ATOM     25  C   UNL     1     -10.852  -7.445  16.574  0.00  0.00    +0.038 C 
BRANCH  25  26
ATOM     26  C   UNL     1     -11.329  -6.030  16.251  0.00  0.00    +0.109 C 
BRANCH  26   6
ATOM      2  O   UNL     1     -14.158  -7.019  16.313  0.00  0.00    -0.276 OA
ATOM      6  N   UNL     1     -12.337  -6.007  15.214  0.00  0.00    -0.301 N 
ATOM     27  C   UNL     1     -12.108  -5.350  13.949  0.00  0.00    +0.108 C 
ATOM     28  C   UNL     1     -13.234  -5.872  13.079  0.00  0.00    +0.028 C 
ATOM     29  C   UNL     1     -14.367  -6.132  14.066  0.00  0.00    +0.097 C 
ATOM     30  C   UNL     1     -13.643  -6.475  15.347  0.00  0.00    +0.216 C 
ENDBRANCH  26   6
ENDBRANCH  25  26
ENDBRANCH  24  25
ENDBRANCH   5  24
ENDBRANCH   8  18
BRANCH   7  12
ATOM     12  C   UNL     1      -5.205 -11.945  18.063  0.00  0.00    +0.026 C 
BRANCH  12  15
ATOM     15  C   UNL     1      -5.899 -11.628  19.391  0.00  0.00    -0.015 C 
ATOM     21  C   UNL     1      -6.185 -10.135  19.564  0.00  0.00    +0.007 C 
ATOM     22  C   UNL     1      -7.207 -12.419  19.478  0.00  0.00    +0.007 C 
ENDBRANCH  12  15
ENDBRANCH   7  12
BRANCH   4  23
ATOM     23  C   UNL     1      -2.717 -10.326  11.357  0.00  0.00    +0.148 C 
BRANCH  23  31
ATOM     31  C   UNL     1      -3.029  -9.159  10.469  0.00  0.00    -0.013 C 
ATOM     32  C   UNL     1      -3.821  -9.231   9.393  0.00  0.00    +0.005 C 
ENDBRANCH  23  31
ENDBRANCH   4  23
TORSDOF 9
ENDMDL
MODEL 2
REMARK VINA RESULT:      -7.0      1.892      3.253
REMARK  Name = 51138118
REMARK  11 active torsions:
REMARK  status: ('A' for Active; 'I' for Inactive)
REMARK    1  A    between atoms: N_4  and  C_23
REMARK    2  A    between atoms: N_5  and  C_24
REMARK    3  A    between atoms: N_6  and  C_26
REMARK    4  A    between atoms: C_7  and  C_12
REMARK    5  A    between atoms: C_8  and  C_18
REMARK    6  A    between atoms: C_12  and  C_15
REMARK    7  A    between atoms: C_15  and  C_21
REMARK    8  A    between atoms: C_15  and  C_22
REMARK    9  A    between atoms: C_23  and  C_31
REMARK   10  A    between atoms: C_24  and  C_25
REMARK   11  A    between atoms: C_25  and  C_26
REMARK                            x       y       z     vdW  Elec       q    Type
REMARK                         _______ _______ _______ _____ _____    ______ ____
ROOT
ATOM      3  N   UNL     1      -9.144 -10.332  17.880  0.00  0.00    -0.299 NA
ATOM      4  N   UNL     1      -4.583 -10.554  15.723  0.00  0.00    -0.343 N 
ATOM      7  C   UNL     1      -8.206 -10.650  18.965  0.00  0.00    +0.085 C 
ATOM      8  C   UNL     1      -8.833  -9.116  17.144  0.00  0.00    +0.145 C 
ATOM      9  C   UNL     1      -6.766 -10.954  18.537  0.00  0.00    -0.021 A 
ATOM     10  C   UNL     1      -6.201 -10.633  17.269  0.00  0.00    +0.008 A 
ATOM     11  C   UNL     1      -8.064  -9.419  15.859  0.00  0.00    +0.065 C 
ATOM     13  C   UNL     1      -6.701  -9.980  16.089  0.00  0.00    -0.020 A 
ATOM     14  C   UNL     1      -4.864 -10.954  17.008  0.00  0.00    +0.050 A 
ATOM     16  C   UNL     1      -5.677  -9.963  15.164  0.00  0.00    +0.090 A 
ATOM     17  C   UNL     1      -5.884 -11.531  19.485  0.00  0.00    +0.006 A 
ATOM     19  C   UNL     1      -4.024 -11.565  17.940  0.00  0.00    +0.026 A 
ATOM     20  C   UNL     1      -4.556 -11.838  19.194  0.00  0.00    +0.002 A 
ATOM     33  H   UNL     1      -9.254 -11.127  17.251  0.00  0.00    +0.123 HD
ENDROOT
BRANCH   8  18
ATOM      1  O   UNL     1     -11.127  -9.219  16.497  0.00  0.00    -0.274 OA
ATOM      5  N   UNL     1     -10.139  -7.136  16.820  0.00  0.00    -0.314 N 
ATOM     18  C   UNL     1     -10.162  -8.520  16.791  0.00  0.00    +0.230 C 
ATOM     34  H   UNL     1      -9.287  -6.651  17.081  0.00  0.00    +0.149 HD
BRANCH   5  24
ATOM     24  C   UNL     1     -11.288  -6.320  16.498  0.00  0.00    +0.106 C 
BRANCH  24  25
ATOM     25  C   UNL     1     -11.369  -5.982  15.012  0.00  0.00    +0.038 C 
BRANCH  25  26
ATOM     26  C   UNL     1     -12.754  -6.196  14.405  0.00  0.00    +0.109 C 
BRANCH  26   6
ATOM      2  O   UNL     1     -15.500  -5.341  13.561  0.00  0.00    -0.276 OA
ATOM      6  N   UNL     1     -13.157  -5.108  13.542  0.00  0.00    -0.301 N 
ATOM     27  C   UNL     1     -12.201  -4.158  13.025  0.00  0.00    +0.108 C 
ATOM     28  C   UNL     1     -12.973  -3.453  11.927  0.00  0.00    +0.028 C 
ATOM     29  C   UNL     1     -14.419  -3.503  12.408  0.00  0.00    +0.097 C 
ATOM     30  C   UNL     1     -14.472  -4.773  13.224  0.00  0.00    +0.216 C 
ENDBRANCH  26   6
ENDBRANCH  25  26
ENDBRANCH  24  25
ENDBRANCH   5  24
ENDBRANCH   8  18
BRANCH   7  12
ATOM     12  C   UNL     1      -8.859 -11.825  19.714  0.00  0.00    +0.026 C 
BRANCH  12  15
ATOM     15  C   UNL     1      -9.580 -12.802  18.781  0.00  0.00    -0.015 C 
ATOM     21  C   UNL     1      -8.746 -14.046  18.472  0.00  0.00    +0.007 C 
ATOM     22  C   UNL     1     -10.911 -13.216  19.415  0.00  0.00    +0.007 C 
ENDBRANCH  12  15
ENDBRANCH   7  12
BRANCH   4  23
ATOM     23  C   UNL     1      -3.310 -10.712  15.052  0.00  0.00    +0.148 C 
BRANCH  23  31
ATOM     31  C   UNL     1      -3.438 -10.656  13.559  0.00  0.00    -0.013 C 
ATOM     32  C   UNL     1      -2.403 -10.500  12.726  0.00  0.00    +0.005 C 
ENDBRANCH  23  31
ENDBRANCH   4  23
TORSDOF 9
ENDMDL
MODEL 3
REMARK VINA RESULT:      -6.9     27.900     30.515
REMARK  Name = 51138118
REMARK  11 active torsions:
REMARK  status: ('A' for Active; 'I' for Inactive)
REMARK    1  A    between atoms: N_4  and  C_23
REMARK    2  A    between atoms: N_5  and  C_24
REMARK    3  A    between atoms: N_6  and  C_26
REMARK    4  A    between atoms: C_7  and  C_12
REMARK    5  A    between atoms: C_8  and  C_18
REMARK    6  A    between atoms: C_12  and  C_15
REMARK    7  A    between atoms: C_15  and  C_21
REMARK    8  A    between atoms: C_15  and  C_22
REMARK    9  A    between atoms: C_23  and  C_31
REMARK   10  A    between atoms: C_24  and  C_25
REMARK   11  A    between atoms: C_25  and  C_26
REMARK                            x       y       z     vdW  Elec       q    Type
REMARK                         _______ _______ _______ _____ _____    ______ ____
ROOT
ATOM      3  N   UNL     1      16.128   8.870  21.701  0.00  0.00    -0.299 NA
ATOM      4  N   UNL     1      20.602   6.599  21.127  0.00  0.00    -0.343 N 
ATOM      7  C   UNL     1      17.071   9.936  21.337  0.00  0.00    +0.085 C 
ATOM      8  C   UNL     1      16.058   7.769  20.753  0.00  0.00    +0.145 C 
ATOM      9  C   UNL     1      18.548   9.533  21.283  0.00  0.00    -0.021 A 
ATOM     10  C   UNL     1      19.032   8.194  21.221  0.00  0.00    +0.008 A 
ATOM     11  C   UNL     1      16.938   6.598  21.187  0.00  0.00    +0.065 C 
ATOM     13  C   UNL     1      18.398   6.903  21.177  0.00  0.00    -0.020 A 
ATOM     14  C   UNL     1      20.411   7.960  21.163  0.00  0.00    +0.050 A 
ATOM     16  C   UNL     1      19.400   5.955  21.130  0.00  0.00    +0.090 A 
ATOM     17  C   UNL     1      19.528  10.555  21.212  0.00  0.00    +0.006 A 
ATOM     19  C   UNL     1      21.363   8.980  21.140  0.00  0.00    +0.026 A 
ATOM     20  C   UNL     1      20.895  10.288  21.153  0.00  0.00    +0.002 A 
ATOM     33  H   UNL     1      16.308   8.533  22.646  0.00  0.00    +0.123 HD
ENDROOT
BRANCH   8  18
ATOM      1  O   UNL     1      14.206   6.470  19.995  0.00  0.00    -0.274 OA
ATOM      5  N   UNL     1      13.872   8.027  21.692  0.00  0.00    -0.314 N 
ATOM     18  C   UNL     1      14.624   7.334  20.760  0.00  0.00    +0.230 C 
ATOM     34  H   UNL     1      14.316   8.724  22.283  0.00  0.00    +0.149 HD
BRANCH   5  24
ATOM     24  C   UNL     1      12.455   7.811  21.883  0.00  0.00    +0.106 C 
BRANCH  24  25
ATOM     25  C   UNL     1      11.607   8.953  21.328  0.00  0.00    +0.038 C 
BRANCH  25  26
ATOM     26  C   UNL     1      11.128   8.726  19.896  0.00  0.00    +0.109 C 
BRANCH  26   6
ATOM      2  O   UNL     1      11.797   7.299  17.347  0.00  0.00    -0.276 OA
ATOM      6  N   UNL     1      12.150   9.019  18.915  0.00  0.00    -0.301 N 
ATOM     27  C   UNL     1      12.971  10.203  19.008  0.00  0.00    +0.108 C 
ATOM     28  C   UNL     1      14.092   9.923  18.028  0.00  0.00    +0.028 C 
ATOM     29  C   UNL     1      13.441   9.039  16.970  0.00  0.00    +0.097 C 
ATOM     30  C   UNL     1      12.370   8.304  17.740  0.00  0.00    +0.216 C 
ENDBRANCH  26   6
ENDBRANCH  25  26
ENDBRANCH  24  25
ENDBRANCH   5  24
ENDBRANCH   8  18
BRANCH   7  12
ATOM     12  C   UNL     1      16.802  11.059  22.354  0.00  0.00    +0.026 C 
BRANCH  12  15
ATOM     15  C   UNL     1      16.058  12.252  21.746  0.00  0.00    -0.015 C 
ATOM     21  C   UNL     1      16.126  12.272  20.218  0.00  0.00    +0.007 C 
ATOM     22  C   UNL     1      14.595  12.217  22.198  0.00  0.00    +0.007 C 
ENDBRANCH  12  15
ENDBRANCH   7  12
BRANCH   4  23
ATOM     23  C   UNL     1      21.884   5.930  21.074  0.00  0.00    +0.148 C 
BRANCH  23  31
ATOM     31  C   UNL     1      21.750   4.444  20.919  0.00  0.00    -0.013 C 
ATOM     32  C   UNL     1      22.491   3.555  21.589  0.00  0.00    +0.005 C 
ENDBRANCH  23  31
ENDBRANCH   4  23
TORSDOF 9
ENDMDL
MODEL 4
REMARK VINA RESULT:      -6.8      3.738      7.885
REMARK  Name = 51138118
REMARK  11 active torsions:
REMARK  status: ('A' for Active; 'I' for Inactive)
REMARK    1  A    between atoms: N_4  and  C_23
REMARK    2  A    between atoms: N_5  and  C_24
REMARK    3  A    between atoms: N_6  and  C_26
REMARK    4  A    between atoms: C_7  and  C_12
REMARK    5  A    between atoms: C_8  and  C_18
REMARK    6  A    between atoms: C_12  and  C_15
REMARK    7  A    between atoms: C_15  and  C_21
REMARK    8  A    between atoms: C_15  and  C_22
REMARK    9  A    between atoms: C_23  and  C_31
REMARK   10  A    between atoms: C_24  and  C_25
REMARK   11  A    between atoms: C_25  and  C_26
REMARK                            x       y       z     vdW  Elec       q    Type
REMARK                         _______ _______ _______ _____ _____    ______ ____
ROOT
ATOM      3  N   UNL     1      -5.179 -10.043  14.904  0.00  0.00    -0.299 NA
ATOM      4  N   UNL     1      -8.583 -10.740  18.569  0.00  0.00    -0.343 N 
ATOM      7  C   UNL     1      -4.487 -10.811  15.949  0.00  0.00    +0.085 C 
ATOM      8  C   UNL     1      -6.397 -10.660  14.401  0.00  0.00    +0.145 C 
ATOM      9  C   UNL     1      -5.256 -10.998  17.261  0.00  0.00    -0.021 A 
ATOM     10  C   UNL     1      -6.657 -10.799  17.427  0.00  0.00    +0.008 A 
ATOM     11  C   UNL     1      -7.638 -10.093  15.088  0.00  0.00    +0.065 C 
ATOM     13  C   UNL     1      -7.724 -10.414  16.542  0.00  0.00    -0.020 A 
ATOM     14  C   UNL     1      -7.241 -11.017  18.680  0.00  0.00    +0.050 A 
ATOM     16  C   UNL     1      -8.885 -10.383  17.288  0.00  0.00    +0.090 A 
ATOM     17  C   UNL     1      -4.555 -11.480  18.395  0.00  0.00    +0.006 A 
ATOM     19  C   UNL     1      -6.524 -11.448  19.797  0.00  0.00    +0.026 A 
ATOM     20  C   UNL     1      -5.167 -11.690  19.629  0.00  0.00    +0.002 A 
ATOM     33  H   UNL     1      -5.349  -9.086  15.209  0.00  0.00    +0.123 HD
ENDROOT
BRANCH   8  18
ATOM      1  O   UNL     1      -6.133  -9.197  12.535  0.00  0.00    -0.274 OA
ATOM      5  N   UNL     1      -6.878 -11.372  12.167  0.00  0.00    -0.314 N 
ATOM     18  C   UNL     1      -6.441 -10.314  12.944  0.00  0.00    +0.230 C 
ATOM     34  H   UNL     1      -7.106 -12.259  12.604  0.00  0.00    +0.149 HD
BRANCH   5  24
ATOM     24  C   UNL     1      -7.030 -11.289  10.732  0.00  0.00    +0.106 C 
BRANCH  24  25
ATOM     25  C   UNL     1      -6.318 -12.423  10.000  0.00  0.00    +0.038 C 
BRANCH  25  26
ATOM     26  C   UNL     1      -5.213 -11.951   9.057  0.00  0.00    +0.109 C 
BRANCH  26   6
ATOM      2  O   UNL     1      -3.245 -12.350  11.283  0.00  0.00    -0.276 OA
ATOM      6  N   UNL     1      -4.320 -10.999   9.681  0.00  0.00    -0.301 N 
ATOM     27  C   UNL     1      -4.187  -9.649   9.187  0.00  0.00    +0.108 C 
ATOM     28  C   UNL     1      -3.462  -8.939  10.314  0.00  0.00    +0.028 C 
ATOM     29  C   UNL     1      -2.613 -10.034  10.949  0.00  0.00    +0.097 C 
ATOM     30  C   UNL     1      -3.418 -11.288  10.703  0.00  0.00    +0.216 C 
ENDBRANCH  26   6
ENDBRANCH  25  26
ENDBRANCH  24  25
ENDBRANCH   5  24
ENDBRANCH   8  18
BRANCH   7  12
ATOM     12  C   UNL     1      -3.148 -10.079  16.148  0.00  0.00    +0.026 C 
BRANCH  12  15
ATOM     15  C   UNL     1      -1.933 -10.964  15.855  0.00  0.00    -0.015 C 
ATOM     21  C   UNL     1      -2.141 -11.865  14.636  0.00  0.00    +0.007 C 
ATOM     22  C   UNL     1      -0.703 -10.078  15.640  0.00  0.00    +0.007 C 
ENDBRANCH  12  15
ENDBRANCH   7  12
BRANCH   4  23
ATOM     23  C   UNL     1      -9.553 -10.829  19.639  0.00  0.00    +0.148 C 
BRANCH  23  31
ATOM     31  C   UNL     1     -10.767  -9.985  19.385  0.00  0.00    -0.013 C 
ATOM     32  C   UNL     1     -11.916 -10.110  20.058  0.00  0.00    +0.005 C 
ENDBRANCH  23  31
ENDBRANCH   4  23
TORSDOF 9
ENDMDL
MODEL 5
REMARK VINA RESULT:      -6.7     28.118     30.492
REMARK  Name = 51138118
REMARK  11 active torsions:
REMARK  status: ('A' for Active; 'I' for Inactive)
REMARK    1  A    between atoms: N_4  and  C_23
REMARK    2  A    between atoms: N_5  and  C_24
REMARK    3  A    between atoms: N_6  and  C_26
REMARK    4  A    between atoms: C_7  and  C_12
REMARK    5  A    between atoms: C_8  and  C_18
REMARK    6  A    between atoms: C_12  and  C_15
REMARK    7  A    between atoms: C_15  and  C_21
REMARK    8  A    between atoms: C_15  and  C_22
REMARK    9  A    between atoms: C_23  and  C_31
REMARK   10  A    between atoms: C_24  and  C_25
REMARK   11  A    between atoms: C_25  and  C_26
REMARK                            x       y       z     vdW  Elec       q    Type
REMARK                         _______ _______ _______ _____ _____    ______ ____
ROOT
ATOM      3  N   UNL     1      15.047  10.685  19.985  0.00  0.00    -0.299 NA
ATOM      4  N   UNL     1      18.945   7.856  21.501  0.00  0.00    -0.343 N 
ATOM      7  C   UNL     1      14.702   9.305  19.621  0.00  0.00    +0.085 C 
ATOM      8  C   UNL     1      15.346  10.887  21.395  0.00  0.00    +0.145 C 
ATOM      9  C   UNL     1      15.811   8.265  19.812  0.00  0.00    -0.021 A 
ATOM     10  C   UNL     1      16.983   8.450  20.601  0.00  0.00    +0.008 A 
ATOM     11  C   UNL     1      16.850  10.858  21.659  0.00  0.00    +0.065 C 
ATOM     13  C   UNL     1      17.482   9.529  21.410  0.00  0.00    -0.020 A 
ATOM     14  C   UNL     1      17.916   7.412  20.705  0.00  0.00    +0.050 A 
ATOM     16  C   UNL     1      18.693   9.123  21.935  0.00  0.00    +0.090 A 
ATOM     17  C   UNL     1      15.646   6.982  19.231  0.00  0.00    +0.006 A 
ATOM     19  C   UNL     1      17.757   6.172  20.087  0.00  0.00    +0.026 A 
ATOM     20  C   UNL     1      16.594   5.968  19.355  0.00  0.00    +0.002 A 
ATOM     33  H   UNL     1      15.799  11.040  19.394  0.00  0.00    +0.123 HD
ENDROOT
BRANCH   8  18
ATOM      1  O   UNL     1      14.487  13.042  20.839  0.00  0.00    -0.274 OA
ATOM      5  N   UNL     1      14.778  12.488  23.081  0.00  0.00    -0.314 N 
ATOM     18  C   UNL     1      14.818  12.251  21.718  0.00  0.00    +0.230 C 
ATOM     34  H   UNL     1      15.072  11.763  23.728  0.00  0.00    +0.149 HD
BRANCH   5  24
ATOM     24  C   UNL     1      14.328  13.737  23.653  0.00  0.00    +0.106 C 
BRANCH  24  25
ATOM     25  C   UNL     1      13.227  13.543  24.692  0.00  0.00    +0.038 C 
BRANCH  25  26
ATOM     26  C   UNL     1      11.817  13.545  24.104  0.00  0.00    +0.109 C 
BRANCH  26   6
ATOM      2  O   UNL     1      11.189  10.880  25.324  0.00  0.00    -0.276 OA
ATOM      6  N   UNL     1      11.480  12.294  23.463  0.00  0.00    -0.301 N 
ATOM     27  C   UNL     1      11.288  12.203  22.035  0.00  0.00    +0.108 C 
ATOM     28  C   UNL     1      11.316  10.709  21.777  0.00  0.00    +0.028 C 
ATOM     29  C   UNL     1      10.767  10.106  23.065  0.00  0.00    +0.097 C 
ATOM     30  C   UNL     1      11.180  11.103  24.122  0.00  0.00    +0.216 C 
ENDBRANCH  26   6
ENDBRANCH  25  26
ENDBRANCH  24  25
ENDBRANCH   5  24
ENDBRANCH   8  18
BRANCH   7  12
ATOM     12  C   UNL     1      14.222   9.394  18.161  0.00  0.00    +0.026 C 
BRANCH  12  15
ATOM     15  C   UNL     1      12.697   9.457  18.035  0.00  0.00    -0.015 C 
ATOM     21  C   UNL     1      12.217   9.283  16.593  0.00  0.00    +0.007 C 
ATOM     22  C   UNL     1      12.073   8.375  18.922  0.00  0.00    +0.007 C 
ENDBRANCH  12  15
ENDBRANCH   7  12
BRANCH   4  23
ATOM     23  C   UNL     1      20.124   7.094  21.855  0.00  0.00    +0.148 C 
BRANCH  23  31
ATOM     31  C   UNL     1      20.289   6.948  23.339  0.00  0.00    -0.013 C 
ATOM     32  C   UNL     1      21.446   7.136  23.983  0.00  0.00    +0.005 C 
ENDBRANCH  23  31
ENDBRANCH   4  23
TORSDOF 9
ENDMDL
MODEL 6
REMARK VINA RESULT:      -6.7      3.049      4.639
REMARK  Name = 51138118
REMARK  11 active torsions:
REMARK  status: ('A' for Active; 'I' for Inactive)
REMARK    1  A    between atoms: N_4  and  C_23
REMARK    2  A    between atoms: N_5  and  C_24
REMARK    3  A    between atoms: N_6  and  C_26
REMARK    4  A    between atoms: C_7  and  C_12
REMARK    5  A    between atoms: C_8  and  C_18
REMARK    6  A    between atoms: C_12  and  C_15
REMARK    7  A    between atoms: C_15  and  C_21
REMARK    8  A    between atoms: C_15  and  C_22
REMARK    9  A    between atoms: C_23  and  C_31
REMARK   10  A    between atoms: C_24  and  C_25
REMARK   11  A    between atoms: C_25  and  C_26
REMARK                            x       y       z     vdW  Elec       q    Type
REMARK                         _______ _______ _______ _____ _____    ______ ____
ROOT
ATOM      3  N   UNL     1      -6.706 -11.257  16.224  0.00  0.00    -0.299 NA
ATOM      4  N   UNL     1      -3.848 -10.129  12.216  0.00  0.00    -0.343 N 
ATOM      7  C   UNL     1      -5.329 -11.169  16.729  0.00  0.00    +0.085 C 
ATOM      8  C   UNL     1      -7.180 -10.064  15.539  0.00  0.00    +0.145 C 
ATOM      9  C   UNL     1      -4.235 -11.015  15.667  0.00  0.00    -0.021 A 
ATOM     10  C   UNL     1      -4.453 -10.620  14.316  0.00  0.00    +0.008 A 
ATOM     11  C   UNL     1      -7.034 -10.190  14.024  0.00  0.00    +0.065 C 
ATOM     13  C   UNL     1      -5.619 -10.256  13.556  0.00  0.00    -0.020 A 
ATOM     14  C   UNL     1      -3.362 -10.504  13.447  0.00  0.00    +0.050 A 
ATOM     16  C   UNL     1      -5.201  -9.971  12.272  0.00  0.00    +0.090 A 
ATOM     17  C   UNL     1      -2.884 -11.201  16.054  0.00  0.00    +0.006 A 
ATOM     19  C   UNL     1      -2.042 -10.736  13.835  0.00  0.00    +0.026 A 
ATOM     20  C   UNL     1      -1.819 -11.075  15.163  0.00  0.00    +0.002 A 
ATOM     33  H   UNL     1      -6.828 -12.088  15.645  0.00  0.00    +0.123 HD
ENDROOT
BRANCH   8  18
ATOM      1  O   UNL     1      -9.370  -9.136  15.355  0.00  0.00    -0.274 OA
ATOM      5  N   UNL     1      -9.005 -10.877  16.857  0.00  0.00    -0.314 N 
ATOM     18  C   UNL     1      -8.634  -9.963  15.885  0.00  0.00    +0.230 C 
ATOM     34  H   UNL     1      -8.318 -11.524  17.230  0.00  0.00    +0.149 HD
BRANCH   5  24
ATOM     24  C   UNL     1     -10.349 -10.970  17.381  0.00  0.00    +0.106 C 
BRANCH  24  25
ATOM     25  C   UNL     1     -10.528 -10.186  18.679  0.00  0.00    +0.038 C 
BRANCH  25  26
ATOM     26  C   UNL     1      -9.753 -10.765  19.861  0.00  0.00    +0.109 C 
BRANCH  26   6
ATOM      2  O   UNL     1      -8.059 -13.237  19.934  0.00  0.00    -0.276 OA
ATOM      6  N   UNL     1     -10.127 -12.132  20.154  0.00  0.00    -0.301 N 
ATOM     27  C   UNL     1     -11.460 -12.475  20.588  0.00  0.00    +0.108 C 
ATOM     28  C   UNL     1     -11.498 -13.982  20.427  0.00  0.00    +0.028 C 
ATOM     29  C   UNL     1     -10.053 -14.410  20.658  0.00  0.00    +0.097 C 
ATOM     30  C   UNL     1      -9.255 -13.218  20.186  0.00  0.00    +0.216 C 
ENDBRANCH  26   6
ENDBRANCH  25  26
ENDBRANCH  24  25
ENDBRANCH   5  24
ENDBRANCH   8  18
BRANCH   7  12
ATOM     12  C   UNL     1      -5.147 -12.435  17.585  0.00  0.00    +0.026 C 
BRANCH  12  15
ATOM     15  C   UNL     1      -4.960 -12.129  19.074  0.00  0.00    -0.015 C 
ATOM     21  C   UNL     1      -3.491 -12.152  19.500  0.00  0.00    +0.007 C 
ATOM     22  C   UNL     1      -5.568 -10.759  19.387  0.00  0.00    +0.007 C 
ENDBRANCH  12  15
ENDBRANCH   7  12
BRANCH   4  23
ATOM     23  C   UNL     1      -3.051  -9.909  11.028  0.00  0.00    +0.148 C 
BRANCH  23  31
ATOM     31  C   UNL     1      -3.840 -10.090   9.766  0.00  0.00    -0.013 C 
ATOM     32  C   UNL     1      -4.175  -9.088   8.945  0.00  0.00    +0.005 C 
ENDBRANCH  23  31
ENDBRANCH   4  23
TORSDOF 9
ENDMDL
MODEL 7
REMARK VINA RESULT:      -6.7     27.690     30.234
REMARK  Name = 51138118
REMARK  11 active torsions:
REMARK  status: ('A' for Active; 'I' for Inactive)
REMARK    1  A    between atoms: N_4  and  C_23
REMARK    2  A    between atoms: N_5  and  C_24
REMARK    3  A    between atoms: N_6  and  C_26
REMARK    4  A    between atoms: C_7  and  C_12
REMARK    5  A    between atoms: C_8  and  C_18
REMARK    6  A    between atoms: C_12  and  C_15
REMARK    7  A    between atoms: C_15  and  C_21
REMARK    8  A    between atoms: C_15  and  C_22
REMARK    9  A    between atoms: C_23  and  C_31
REMARK   10  A    between atoms: C_24  and  C_25
REMARK   11  A    between atoms: C_25  and  C_26
REMARK                            x       y       z     vdW  Elec       q    Type
REMARK                         _______ _______ _______ _____ _____    ______ ____
ROOT
ATOM      3  N   UNL     1      15.782   8.563  21.065  0.00  0.00    -0.299 NA
ATOM      4  N   UNL     1      20.373   6.474  20.839  0.00  0.00    -0.343 N 
ATOM      7  C   UNL     1      16.730   9.684  21.083  0.00  0.00    +0.085 C 
ATOM      8  C   UNL     1      15.915   7.671  19.922  0.00  0.00    +0.145 C 
ATOM      9  C   UNL     1      18.210   9.307  21.208  0.00  0.00    -0.021 A 
ATOM     10  C   UNL     1      18.749   8.010  20.970  0.00  0.00    +0.008 A 
ATOM     11  C   UNL     1      16.755   6.442  20.265  0.00  0.00    +0.065 C 
ATOM     13  C   UNL     1      18.183   6.750  20.567  0.00  0.00    -0.020 A 
ATOM     14  C   UNL     1      20.126   7.799  21.106  0.00  0.00    +0.050 A 
ATOM     16  C   UNL     1      19.215   5.836  20.508  0.00  0.00    +0.090 A 
ATOM     17  C   UNL     1      19.147  10.328  21.508  0.00  0.00    +0.006 A 
ATOM     19  C   UNL     1      21.028   8.808  21.447  0.00  0.00    +0.026 A 
ATOM     20  C   UNL     1      20.514  10.085  21.634  0.00  0.00    +0.002 A 
ATOM     33  H   UNL     1      15.814   8.045  21.943  0.00  0.00    +0.123 HD
ENDROOT
BRANCH   8  18
ATOM      1  O   UNL     1      13.888   6.483  20.333  0.00  0.00    -0.274 OA
ATOM      5  N   UNL     1      14.073   7.762  18.397  0.00  0.00    -0.314 N 
ATOM     18  C   UNL     1      14.519   7.237  19.597  0.00  0.00    +0.230 C 
ATOM     34  H   UNL     1      14.674   8.381  17.862  0.00  0.00    +0.149 HD
BRANCH   5  24
ATOM     24  C   UNL     1      12.767   7.477  17.846  0.00  0.00    +0.106 C 
BRANCH  24  25
ATOM     25  C   UNL     1      11.739   8.552  18.191  0.00  0.00    +0.038 C 
BRANCH  25  26
ATOM     26  C   UNL     1      12.233   9.574  19.212  0.00  0.00    +0.109 C 
BRANCH  26   6
ATOM      2  O   UNL     1      12.076  11.483  21.518  0.00  0.00    -0.276 OA
ATOM      6  N   UNL     1      11.617   9.405  20.510  0.00  0.00    -0.301 N 
ATOM     27  C   UNL     1      10.845   8.229  20.834  0.00  0.00    +0.108 C 
ATOM     28  C   UNL     1      10.711   8.308  22.342  0.00  0.00    +0.028 C 
ATOM     29  C   UNL     1      10.727   9.805  22.631  0.00  0.00    +0.097 C 
ATOM     30  C   UNL     1      11.576  10.367  21.517  0.00  0.00    +0.216 C 
ENDBRANCH  26   6
ENDBRANCH  25  26
ENDBRANCH  24  25
ENDBRANCH   5  24
ENDBRANCH   8  18
BRANCH   7  12
ATOM     12  C   UNL     1      16.250  10.581  22.239  0.00  0.00    +0.026 C 
BRANCH  12  15
ATOM     15  C   UNL     1      16.004  12.030  21.808  0.00  0.00    -0.015 C 
ATOM     21  C   UNL     1      15.407  12.134  20.403  0.00  0.00    +0.007 C 
ATOM     22  C   UNL     1      15.072  12.705  22.818  0.00  0.00    +0.007 C 
ENDBRANCH  12  15
ENDBRANCH   7  12
BRANCH   4  23
ATOM     23  C   UNL     1      21.672   5.835  20.878  0.00  0.00    +0.148 C 
BRANCH  23  31
ATOM     31  C   UNL     1      21.728   4.708  21.867  0.00  0.00    -0.013 C 
ATOM     32  C   UNL     1      21.871   3.423  21.526  0.00  0.00    +0.005 C 
ENDBRANCH  23  31
ENDBRANCH   4  23
TORSDOF 9
ENDMDL
MODEL 8
REMARK VINA RESULT:      -6.5     28.985     31.775
REMARK  Name = 51138118
REMARK  11 active torsions:
REMARK  status: ('A' for Active; 'I' for Inactive)
REMARK    1  A    between atoms: N_4  and  C_23
REMARK    2  A    between atoms: N_5  and  C_24
REMARK    3  A    between atoms: N_6  and  C_26
REMARK    4  A    between atoms: C_7  and  C_12
REMARK    5  A    between atoms: C_8  and  C_18
REMARK    6  A    between atoms: C_12  and  C_15
REMARK    7  A    between atoms: C_15  and  C_21
REMARK    8  A    between atoms: C_15  and  C_22
REMARK    9  A    between atoms: C_23  and  C_31
REMARK   10  A    between atoms: C_24  and  C_25
REMARK   11  A    between atoms: C_25  and  C_26
REMARK                            x       y       z     vdW  Elec       q    Type
REMARK                         _______ _______ _______ _____ _____    ______ ____
ROOT
ATOM      3  N   UNL     1      19.621   7.122  23.459  0.00  0.00    -0.299 NA
ATOM      4  N   UNL     1      23.124   4.239  21.243  0.00  0.00    -0.343 N 
ATOM      7  C   UNL     1      20.834   7.276  24.272  0.00  0.00    +0.085 C 
ATOM      8  C   UNL     1      19.784   7.454  22.052  0.00  0.00    +0.145 C 
ATOM      9  C   UNL     1      22.003   6.352  23.911  0.00  0.00    -0.021 A 
ATOM     10  C   UNL     1      22.131   5.630  22.690  0.00  0.00    +0.008 A 
ATOM     11  C   UNL     1      20.034   6.207  21.206  0.00  0.00    +0.065 C 
ATOM     13  C   UNL     1      21.328   5.526  21.501  0.00  0.00    -0.020 A 
ATOM     14  C   UNL     1      23.259   4.828  22.478  0.00  0.00    +0.050 A 
ATOM     16  C   UNL     1      21.972   4.655  20.645  0.00  0.00    +0.090 A 
ATOM     17  C   UNL     1      23.091   6.251  24.815  0.00  0.00    +0.006 A 
ATOM     19  C   UNL     1      24.298   4.704  23.400  0.00  0.00    +0.026 A 
ATOM     20  C   UNL     1      24.201   5.444  24.573  0.00  0.00    +0.002 A 
ATOM     33  H   UNL     1      19.221   6.191  23.575  0.00  0.00    +0.123 HD
ENDROOT
BRANCH   8  18
ATOM      1  O   UNL     1      18.175   9.214  21.974  0.00  0.00    -0.274 OA
ATOM      5  N   UNL     1      17.708   7.210  20.886  0.00  0.00    -0.314 N 
ATOM     18  C   UNL     1      18.484   8.074  21.640  0.00  0.00    +0.230 C 
ATOM     34  H   UNL     1      18.057   6.284  20.660  0.00  0.00    +0.149 HD
BRANCH   5  24
ATOM     24  C   UNL     1      16.398   7.559  20.383  0.00  0.00    +0.106 C 
BRANCH  24  25
ATOM     25  C   UNL     1      15.283   7.227  21.372  0.00  0.00    +0.038 C 
BRANCH  25  26
ATOM     26  C   UNL     1      13.980   6.790  20.707  0.00  0.00    +0.109 C 
BRANCH  26   6
ATOM      2  O   UNL     1      11.188   5.746  21.028  0.00  0.00    -0.276 OA
ATOM      6  N   UNL     1      12.818   7.425  21.291  0.00  0.00    -0.301 N 
ATOM     27  C   UNL     1      12.905   8.712  21.939  0.00  0.00    +0.108 C 
ATOM     28  C   UNL     1      11.455   9.134  22.065  0.00  0.00    +0.028 C 
ATOM     29  C   UNL     1      10.701   7.815  22.194  0.00  0.00    +0.097 C 
ATOM     30  C   UNL     1      11.558   6.845  21.416  0.00  0.00    +0.216 C 
ENDBRANCH  26   6
ENDBRANCH  25  26
ENDBRANCH  24  25
ENDBRANCH   5  24
ENDBRANCH   8  18
BRANCH   7  12
ATOM     12  C   UNL     1      20.358   7.086  25.723  0.00  0.00    +0.026 C 
BRANCH  12  15
ATOM     15  C   UNL     1      20.260   8.404  26.497  0.00  0.00    -0.015 C 
ATOM     21  C   UNL     1      20.614   8.247  27.977  0.00  0.00    +0.007 C 
ATOM     22  C   UNL     1      21.185   9.439  25.851  0.00  0.00    +0.007 C 
ENDBRANCH  12  15
ENDBRANCH   7  12
BRANCH   4  23
ATOM     23  C   UNL     1      24.069   3.322  20.641  0.00  0.00    +0.148 C 
BRANCH  23  31
ATOM     31  C   UNL     1      23.690   1.886  20.853  0.00  0.00    -0.013 C 
ATOM     32  C   UNL     1      24.423   1.018  21.559  0.00  0.00    +0.005 C 
ENDBRANCH  23  31
ENDBRANCH   4  23
TORSDOF 9
ENDMDL
MODEL 9
REMARK VINA RESULT:      -6.5     22.079     26.132
REMARK  Name = 51138118
REMARK  11 active torsions:
REMARK  status: ('A' for Active; 'I' for Inactive)
REMARK    1  A    between atoms: N_4  and  C_23
REMARK    2  A    between atoms: N_5  and  C_24
REMARK    3  A    between atoms: N_6  and  C_26
REMARK    4  A    between atoms: C_7  and  C_12
REMARK    5  A    between atoms: C_8  and  C_18
REMARK    6  A    between atoms: C_12  and  C_15
REMARK    7  A    between atoms: C_15  and  C_21
REMARK    8  A    between atoms: C_15  and  C_22
REMARK    9  A    between atoms: C_23  and  C_31
REMARK   10  A    between atoms: C_24  and  C_25
REMARK   11  A    between atoms: C_25  and  C_26
REMARK                            x       y       z     vdW  Elec       q    Type
REMARK                         _______ _______ _______ _____ _____    ______ ____
ROOT
ATOM      3  N   UNL     1     -13.140   8.421  31.955  0.00  0.00    -0.299 NA
ATOM      4  N   UNL     1     -11.521   9.521  36.610  0.00  0.00    -0.343 N 
ATOM      7  C   UNL     1     -11.715   8.747  31.813  0.00  0.00    +0.085 C 
ATOM      8  C   UNL     1     -13.429   7.349  32.896  0.00  0.00    +0.145 C 
ATOM      9  C   UNL     1     -11.027   9.297  33.067  0.00  0.00    -0.021 A 
ATOM     10  C   UNL     1     -11.538   9.200  34.393  0.00  0.00    +0.008 A 
ATOM     11  C   UNL     1     -13.823   7.896  34.266  0.00  0.00    +0.065 C 
ATOM     13  C   UNL     1     -12.721   8.617  34.969  0.00  0.00    -0.020 A 
ATOM     14  C   UNL     1     -10.802   9.734  35.457  0.00  0.00    +0.050 A 
ATOM     16  C   UNL     1     -12.672   8.846  36.329  0.00  0.00    +0.090 A 
ATOM     17  C   UNL     1      -9.744   9.885  32.934  0.00  0.00    +0.006 A 
ATOM     19  C   UNL     1      -9.561  10.351  35.300  0.00  0.00    +0.026 A 
ATOM     20  C   UNL     1      -9.036  10.407  34.015  0.00  0.00    +0.002 A 
ATOM     33  H   UNL     1     -13.685   9.256  32.168  0.00  0.00    +0.123 HD
ENDROOT
BRANCH   8  18
ATOM      1  O   UNL     1     -15.261   7.084  31.391  0.00  0.00    -0.274 OA
ATOM      5  N   UNL     1     -14.816   5.398  32.934  0.00  0.00    -0.314 N 
ATOM     18  C   UNL     1     -14.595   6.613  32.309  0.00  0.00    +0.230 C 
ATOM     34  H   UNL     1     -14.203   5.098  33.684  0.00  0.00    +0.149 HD
BRANCH   5  24
ATOM     24  C   UNL     1     -15.893   4.506  32.569  0.00  0.00    +0.106 C 
BRANCH  24  25
ATOM     25  C   UNL     1     -15.833   3.177  33.316  0.00  0.00    +0.038 C 
BRANCH  25  26
ATOM     26  C   UNL     1     -14.484   2.468  33.207  0.00  0.00    +0.109 C 
BRANCH  26   6
ATOM      2  O   UNL     1     -13.131   3.020  30.590  0.00  0.00    -0.276 OA
ATOM      6  N   UNL     1     -14.387   1.639  32.026  0.00  0.00    -0.301 N 
ATOM     27  C   UNL     1     -14.885   0.284  32.009  0.00  0.00    +0.108 C 
ATOM     28  C   UNL     1     -14.905  -0.058  30.533  0.00  0.00    +0.028 C 
ATOM     29  C   UNL     1     -13.764   0.769  29.951  0.00  0.00    +0.097 C 
ATOM     30  C   UNL     1     -13.711   1.977  30.855  0.00  0.00    +0.216 C 
ENDBRANCH  26   6
ENDBRANCH  25  26
ENDBRANCH  24  25
ENDBRANCH   5  24
ENDBRANCH   8  18
BRANCH   7  12
ATOM     12  C   UNL     1     -11.655   9.728  30.629  0.00  0.00    +0.026 C 
BRANCH  12  15
ATOM     15  C   UNL     1     -12.866  10.663  30.565  0.00  0.00    -0.015 C 
ATOM     21  C   UNL     1     -12.556  12.066  31.091  0.00  0.00    +0.007 C 
ATOM     22  C   UNL     1     -13.361  10.751  29.119  0.00  0.00    +0.007 C 
ENDBRANCH  12  15
ENDBRANCH   7  12
BRANCH   4  23
ATOM     23  C   UNL     1     -11.121   9.930  37.939  0.00  0.00    +0.148 C 
BRANCH  23  31
ATOM     31  C   UNL     1     -10.390   8.848  38.677  0.00  0.00    -0.013 C 
ATOM     32  C   UNL     1      -9.058   8.723  38.692  0.00  0.00    +0.005 C 
ENDBRANCH  23  31
ENDBRANCH   4  23
TORSDOF 9
ENDMDL
MODEL 10
REMARK VINA RESULT:      -6.4     24.615     27.688
REMARK  Name = 51138118
REMARK  11 active torsions:
REMARK  status: ('A' for Active; 'I' for Inactive)
REMARK    1  A    between atoms: N_4  and  C_23
REMARK    2  A    between atoms: N_5  and  C_24
REMARK    3  A    between atoms: N_6  and  C_26
REMARK    4  A    between atoms: C_7  and  C_12
REMARK    5  A    between atoms: C_8  and  C_18
REMARK    6  A    between atoms: C_12  and  C_15
REMARK    7  A    between atoms: C_15  and  C_21
REMARK    8  A    between atoms: C_15  and  C_22
REMARK    9  A    between atoms: C_23  and  C_31
REMARK   10  A    between atoms: C_24  and  C_25
REMARK   11  A    between atoms: C_25  and  C_26
REMARK                            x       y       z     vdW  Elec       q    Type
REMARK                         _______ _______ _______ _____ _____    ______ ____
ROOT
ATOM      3  N   UNL     1      12.112   6.416   4.423  0.00  0.00    -0.299 NA
ATOM      4  N   UNL     1      12.953   4.283  -0.076  0.00  0.00    -0.343 N 
ATOM      7  C   UNL     1      12.559   7.505   3.544  0.00  0.00    +0.085 C 
ATOM      8  C   UNL     1      10.948   5.685   3.945  0.00  0.00    +0.145 C 
ATOM      9  C   UNL     1      13.057   7.084   2.157  0.00  0.00    -0.021 A 
ATOM     10  C   UNL     1      12.812   5.820   1.546  0.00  0.00    +0.008 A 
ATOM     11  C   UNL     1      11.350   4.404   3.217  0.00  0.00    +0.065 C 
ATOM     13  C   UNL     1      12.094   4.639   1.945  0.00  0.00    -0.020 A 
ATOM     14  C   UNL     1      13.314   5.565   0.265  0.00  0.00    +0.050 A 
ATOM     16  C   UNL     1      12.216   3.720   0.923  0.00  0.00    +0.090 A 
ATOM     17  C   UNL     1      13.752   8.035   1.369  0.00  0.00    +0.006 A 
ATOM     19  C   UNL     1      14.037   6.499  -0.478  0.00  0.00    +0.026 A 
ATOM     20  C   UNL     1      14.237   7.749   0.094  0.00  0.00    +0.002 A 
ATOM     33  H   UNL     1      12.882   5.783   4.638  0.00  0.00    +0.123 HD
ENDROOT
BRANCH   8  18
ATOM      1  O   UNL     1       9.057   4.821   5.115  0.00  0.00    -0.274 OA
ATOM      5  N   UNL     1      10.856   5.655   6.336  0.00  0.00    -0.314 N 
ATOM     18  C   UNL     1      10.174   5.327   5.176  0.00  0.00    +0.230 C 
ATOM     34  H   UNL     1      11.780   6.069   6.279  0.00  0.00    +0.149 HD
BRANCH   5  24
ATOM     24  C   UNL     1      10.317   5.432   7.659  0.00  0.00    +0.106 C 
BRANCH  24  25
ATOM     25  C   UNL     1       9.318   6.509   8.075  0.00  0.00    +0.038 C 
BRANCH  25  26
ATOM     26  C   UNL     1       9.844   7.934   7.910  0.00  0.00    +0.109 C 
BRANCH  26   6
ATOM      2  O   UNL     1      11.217   9.906   6.119  0.00  0.00    -0.276 OA
ATOM      6  N   UNL     1       9.371   8.564   6.697  0.00  0.00    -0.301 N 
ATOM     27  C   UNL     1       8.107   8.201   6.099  0.00  0.00    +0.108 C 
ATOM     28  C   UNL     1       7.862   9.320   5.106  0.00  0.00    +0.028 C 
ATOM     29  C   UNL     1       9.263   9.753   4.691  0.00  0.00    +0.097 C 
ATOM     30  C   UNL     1      10.098   9.459   5.915  0.00  0.00    +0.216 C 
ENDBRANCH  26   6
ENDBRANCH  25  26
ENDBRANCH  24  25
ENDBRANCH   5  24
ENDBRANCH   8  18
BRANCH   7  12
ATOM     12  C   UNL     1      13.634   8.247   4.358  0.00  0.00    +0.026 C 
BRANCH  12  15
ATOM     15  C   UNL     1      14.735   7.318   4.880  0.00  0.00    -0.015 C 
ATOM     21  C   UNL     1      16.088   7.576   4.214  0.00  0.00    +0.007 C 
ATOM     22  C   UNL     1      14.863   7.491   6.396  0.00  0.00    +0.007 C 
ENDBRANCH  12  15
ENDBRANCH   7  12
BRANCH   4  23
ATOM     23  C   UNL     1      13.282   3.618  -1.319  0.00  0.00    +0.148 C 
BRANCH  23  31
ATOM     31  C   UNL     1      12.070   3.334  -2.156  0.00  0.00    -0.013 C 
ATOM     32  C   UNL     1      11.654   2.103  -2.474  0.00  0.00    +0.005 C 
ENDBRANCH  23  31
ENDBRANCH   4  23
TORSDOF 9
ENDMDL
