REMARK  Name = 45361678
REMARK  11 active torsions:
REMARK  status: ('A' for Active; 'I' for Inactive)
REMARK    1  A    between atoms: S_1  and  N_6
REMARK    2  A    between atoms: S_1  and  C_24
REMARK    3  A    between atoms: O_2  and  C_12
REMARK    4  A    between atoms: N_6  and  C_16
REMARK    5  A    between atoms: N_7  and  C_25
REMARK    6  A    between atoms: C_9  and  C_19
REMARK    7  A    between atoms: C_11  and  C_21
REMARK    8  A    between atoms: C_15  and  C_20
REMARK    9  A    between atoms: C_20  and  C_22
REMARK   10  A    between atoms: C_20  and  C_23
REMARK   11  A    between atoms: C_25  and  C_26
REMARK                            x       y       z     vdW  Elec       q    Type
REMARK                         _______ _______ _______ _____ _____    ______ ____
ROOT
ATOM      9  C   UNL     1      -1.137  -0.476  -1.308  0.00  0.00    -0.027 C 
ATOM     10  C   UNL     1      -1.526   0.432  -0.094  0.00  0.00    +0.028 C 
ATOM     11  C   UNL     1      -3.060   0.778  -0.122  0.00  0.00    +0.011 C 
ATOM     12  C   UNL     1      -0.567   1.651   0.029  0.00  0.00    +0.122 C 
ATOM     13  C   UNL     1       0.349  -0.889  -1.189  0.00  0.00    +0.007 C 
ATOM     14  C   UNL     1      -1.988  -1.766  -1.268  0.00  0.00    +0.008 C 
ATOM     15  C   UNL     1       0.923   1.238   0.041  0.00  0.00    +0.029 C 
ATOM     16  C   UNL     1      -3.898  -0.528  -0.158  0.00  0.00    +0.079 C 
ATOM     17  C   UNL     1       1.293   0.304  -1.110  0.00  0.00    +0.007 C 
ATOM     18  C   UNL     1      -3.485  -1.494  -1.267  0.00  0.00    +0.021 C 
ATOM     19  C   UNL     1      -1.349   0.233  -2.671  0.00  0.00    +0.011 C 
ATOM     21  C   UNL     1      -3.514   1.647   1.061  0.00  0.00    +0.009 C 
ENDROOT
BRANCH  12   2
ATOM      2  O   UNL     1      -0.812   2.328   1.263  0.00  0.00    -0.391 OA
ATOM     32  H   UNL     1      -0.658   1.699   1.989  0.00  0.00    +0.210 HD
ENDBRANCH  12   2
BRANCH  16   6
ATOM      6  N   UNL     1      -5.339  -0.221  -0.368  0.00  0.00    -0.191 NA
ATOM     31  H   UNL     1      -5.646   0.017  -1.318  0.00  0.00    +0.148 HD
BRANCH   6   1
ATOM      1  S   UNL     1      -6.458  -0.687   0.825  0.00  0.00    +0.027 S 
ATOM      4  O   UNL     1      -7.708   0.025   0.641  0.00  0.00    -0.158 OA
ATOM      5  O   UNL     1      -5.780  -0.676   2.107  0.00  0.00    -0.158 OA
ATOM     24  C   UNL     1      -6.727  -2.387   0.381  0.00  0.00    +0.214 C 
ENDBRANCH   6   1
ENDBRANCH  16   6
BRANCH  15  20
ATOM     20  C   UNL     1       1.852   2.459   0.029  0.00  0.00    +0.077 C 
ATOM     22  C   UNL     1       1.595   3.301  -1.216  0.00  0.00    +0.017 C 
BRANCH  20  23
ATOM      3  O   UNL     1       4.135   2.289  -0.760  0.00  0.00    -0.276 OA
ATOM      7  N   UNL     1       3.572   1.251   1.236  0.00  0.00    -0.311 N 
ATOM     23  C   UNL     1       3.307   2.006   0.102  0.00  0.00    +0.216 C 
ATOM     33  H   UNL     1       2.845   1.105   1.929  0.00  0.00    +0.149 HD
BRANCH   7  25
ATOM     25  C   UNL     1       4.878   0.708   1.526  0.00  0.00    +0.141 C 
BRANCH  25  26
ATOM      8  N   UNL     1       6.029  -2.068  -0.769  0.00  0.00    -0.263 NA
ATOM     26  C   UNL     1       5.059  -0.663   0.943  0.00  0.00    -0.012 A 
ATOM     27  C   UNL     1       4.458  -1.774   1.524  0.00  0.00    +0.008 A 
ATOM     28  C   UNL     1       5.827  -0.862  -0.193  0.00  0.00    +0.115 A 
ATOM     29  C   UNL     1       4.642  -3.032   0.961  0.00  0.00    +0.020 A 
ATOM     30  C   UNL     1       5.429  -3.125  -0.176  0.00  0.00    +0.111 A 
ENDBRANCH  25  26
ENDBRANCH   7  25
ENDBRANCH  20  23
ENDBRANCH  15  20
TORSDOF 7
