MODEL 1
REMARK VINA RESULT:      -6.6      0.000      0.000
REMARK  Name = 11912241
REMARK  8 active torsions:
REMARK  status: ('A' for Active; 'I' for Inactive)
REMARK    1  A    between atoms: S_1  and  C_19
REMARK    2  A    between atoms: S_1  and  C_24
REMARK    3  A    between atoms: O_5  and  C_27
REMARK    4  A    between atoms: N_7  and  C_13
REMARK    5  A    between atoms: N_8  and  C_14
REMARK    6  A    between atoms: C_17  and  C_19
REMARK    7  A    between atoms: C_20  and  C_23
REMARK    8  A    between atoms: C_24  and  C_27
REMARK                            x       y       z     vdW  Elec       q    Type
REMARK                         _______ _______ _______ _____ _____    ______ ____
ROOT
ATOM      2  O   UNL     1      15.780   8.977  20.076  0.00  0.00    -0.370 OA
ATOM      3  O   UNL     1      15.860   5.863  19.900  0.00  0.00    -0.370 OA
ATOM     11  C   UNL     1      15.247   6.781  20.821  0.00  0.00    +0.171 C 
ATOM     12  C   UNL     1      16.198   7.951  20.992  0.00  0.00    +0.171 C 
ATOM     13  C   UNL     1      14.012   7.398  20.203  0.00  0.00    +0.130 C 
ATOM     14  C   UNL     1      17.541   7.397  20.581  0.00  0.00    +0.130 C 
ATOM     15  C   UNL     1      14.592   8.546  19.395  0.00  0.00    +0.185 C 
ATOM     16  C   UNL     1      17.168   6.343  19.555  0.00  0.00    +0.185 C 
ENDROOT
BRANCH  14   8
ATOM      8  N   UNL     1      18.191   6.782  21.717  0.00  0.00    -0.306 N 
ATOM      9  N   UNL     1      20.241   7.730  21.178  0.00  0.00    -0.214 NA
ATOM     10  N   UNL     1      19.989   6.310  23.109  0.00  0.00    -0.223 NA
ATOM     18  C   UNL     1      19.532   6.948  22.015  0.00  0.00    +0.216 A 
ATOM     20  C   UNL     1      21.544   7.870  21.498  0.00  0.00    +0.076 A 
ATOM     21  C   UNL     1      21.300   6.494  23.369  0.00  0.00    +0.116 A 
ATOM     22  C   UNL     1      22.135   7.271  22.591  0.00  0.00    +0.048 A 
ATOM     32  H   UNL     1      17.641   6.237  22.372  0.00  0.00    +0.149 HD
BRANCH  20  23
ATOM     23  C   UNL     1      22.308   8.708  20.603  0.00  0.00    +0.001 A 
ATOM     25  C   UNL     1      21.880  10.008  20.332  0.00  0.00    +0.010 A 
ATOM     26  C   UNL     1      23.472   8.219  20.012  0.00  0.00    +0.010 A 
ATOM     28  C   UNL     1      22.617  10.819  19.467  0.00  0.00    +0.001 A 
ATOM     29  C   UNL     1      24.210   9.029  19.148  0.00  0.00    +0.001 A 
ATOM     30  C   UNL     1      23.781  10.329  18.876  0.00  0.00    +0.000 A 
ENDBRANCH  20  23
ENDBRANCH  14   8
BRANCH  13   7
ATOM      4  O   UNL     1      11.268   6.584  20.626  0.00  0.00    -0.275 OA
ATOM      7  N   UNL     1      13.105   7.878  21.217  0.00  0.00    -0.307 N 
ATOM     17  C   UNL     1      11.800   7.427  21.345  0.00  0.00    +0.223 C 
ATOM     31  H   UNL     1      13.467   8.538  21.899  0.00  0.00    +0.149 HD
BRANCH  17  19
ATOM     19  C   UNL     1      11.051   8.098  22.473  0.00  0.00    +0.165 C 
BRANCH  19   1
ATOM      1  S   UNL     1      10.755   9.827  22.035  0.00  0.00    -0.140 S 
BRANCH   1  24
ATOM     24  C   UNL     1      11.873  10.601  23.228  0.00  0.00    +0.189 C 
BRANCH  24  27
ATOM      6  O   UNL     1      10.285  12.046  24.322  0.00  0.00    -0.250 OA
ATOM     27  C   UNL     1      11.081  11.118  24.393  0.00  0.00    +0.315 C 
BRANCH  27   5
ATOM      5  O   UNL     1      11.330  10.438  25.540  0.00  0.00    -0.480 OA
ATOM     33  H   UNL     1      10.950  10.889  26.324  0.00  0.00    +0.295 HD
ENDBRANCH  27   5
ENDBRANCH  24  27
ENDBRANCH   1  24
ENDBRANCH  19   1
ENDBRANCH  17  19
ENDBRANCH  13   7
TORSDOF 8
ENDMDL
MODEL 2
REMARK VINA RESULT:      -6.5      5.117      8.354
REMARK  Name = 11912241
REMARK  8 active torsions:
REMARK  status: ('A' for Active; 'I' for Inactive)
REMARK    1  A    between atoms: S_1  and  C_19
REMARK    2  A    between atoms: S_1  and  C_24
REMARK    3  A    between atoms: O_5  and  C_27
REMARK    4  A    between atoms: N_7  and  C_13
REMARK    5  A    between atoms: N_8  and  C_14
REMARK    6  A    between atoms: C_17  and  C_19
REMARK    7  A    between atoms: C_20  and  C_23
REMARK    8  A    between atoms: C_24  and  C_27
REMARK                            x       y       z     vdW  Elec       q    Type
REMARK                         _______ _______ _______ _____ _____    ______ ____
ROOT
ATOM      2  O   UNL     1      14.734  12.017  24.253  0.00  0.00    -0.370 OA
ATOM      3  O   UNL     1      11.934  13.391  24.333  0.00  0.00    -0.370 OA
ATOM     11  C   UNL     1      12.614  12.491  25.224  0.00  0.00    +0.171 C 
ATOM     12  C   UNL     1      13.394  11.511  24.367  0.00  0.00    +0.171 C 
ATOM     13  C   UNL     1      13.680  13.229  26.002  0.00  0.00    +0.130 C 
ATOM     14  C   UNL     1      12.700  11.561  23.026  0.00  0.00    +0.130 C 
ATOM     15  C   UNL     1      14.854  13.213  25.039  0.00  0.00    +0.185 C 
ATOM     16  C   UNL     1      12.170  12.982  22.977  0.00  0.00    +0.185 C 
ENDROOT
BRANCH  14   8
ATOM      8  N   UNL     1      11.605  10.616  23.000  0.00  0.00    -0.306 N 
ATOM      9  N   UNL     1      12.902   8.997  21.958  0.00  0.00    -0.214 NA
ATOM     10  N   UNL     1      10.596   8.580  22.522  0.00  0.00    -0.223 NA
ATOM     18  C   UNL     1      11.705   9.342  22.471  0.00  0.00    +0.216 A 
ATOM     20  C   UNL     1      12.964   7.748  21.451  0.00  0.00    +0.076 A 
ATOM     21  C   UNL     1      10.729   7.344  21.998  0.00  0.00    +0.116 A 
ATOM     22  C   UNL     1      11.901   6.868  21.443  0.00  0.00    +0.048 A 
ATOM     32  H   UNL     1      10.723  10.864  23.435  0.00  0.00    +0.149 HD
BRANCH  20  23
ATOM     23  C   UNL     1      14.245   7.373  20.901  0.00  0.00    +0.001 A 
ATOM     25  C   UNL     1      15.372   7.337  21.722  0.00  0.00    +0.010 A 
ATOM     26  C   UNL     1      14.357   7.048  19.550  0.00  0.00    +0.010 A 
ATOM     28  C   UNL     1      16.612   6.975  21.192  0.00  0.00    +0.001 A 
ATOM     29  C   UNL     1      15.595   6.685  19.019  0.00  0.00    +0.001 A 
ATOM     30  C   UNL     1      16.723   6.650  19.840  0.00  0.00    +0.000 A 
ENDBRANCH  20  23
ENDBRANCH  14   8
BRANCH  13   7
ATOM      4  O   UNL     1      14.811  14.372  28.408  0.00  0.00    -0.275 OA
ATOM      7  N   UNL     1      14.001  12.540  27.229  0.00  0.00    -0.307 N 
ATOM     17  C   UNL     1      14.542  13.174  28.337  0.00  0.00    +0.223 C 
ATOM     31  H   UNL     1      13.763  11.555  27.293  0.00  0.00    +0.149 HD
BRANCH  17  19
ATOM     19  C   UNL     1      14.803  12.232  29.489  0.00  0.00    +0.165 C 
BRANCH  19   1
ATOM      1  S   UNL     1      15.655  10.765  28.865  0.00  0.00    -0.140 S 
BRANCH   1  24
ATOM     24  C   UNL     1      15.783   9.847  30.418  0.00  0.00    +0.189 C 
BRANCH  24  27
ATOM      6  O   UNL     1      13.980   8.404  29.729  0.00  0.00    -0.250 OA
ATOM     27  C   UNL     1      14.540   9.029  30.620  0.00  0.00    +0.315 C 
BRANCH  27   5
ATOM      5  O   UNL     1      14.106   9.043  31.906  0.00  0.00    -0.480 OA
ATOM     33  H   UNL     1      14.021   8.138  32.273  0.00  0.00    +0.295 HD
ENDBRANCH  27   5
ENDBRANCH  24  27
ENDBRANCH   1  24
ENDBRANCH  19   1
ENDBRANCH  17  19
ENDBRANCH  13   7
TORSDOF 8
ENDMDL
MODEL 3
REMARK VINA RESULT:      -6.5     28.435     31.783
REMARK  Name = 11912241
REMARK  8 active torsions:
REMARK  status: ('A' for Active; 'I' for Inactive)
REMARK    1  A    between atoms: S_1  and  C_19
REMARK    2  A    between atoms: S_1  and  C_24
REMARK    3  A    between atoms: O_5  and  C_27
REMARK    4  A    between atoms: N_7  and  C_13
REMARK    5  A    between atoms: N_8  and  C_14
REMARK    6  A    between atoms: C_17  and  C_19
REMARK    7  A    between atoms: C_20  and  C_23
REMARK    8  A    between atoms: C_24  and  C_27
REMARK                            x       y       z     vdW  Elec       q    Type
REMARK                         _______ _______ _______ _____ _____    ______ ____
ROOT
ATOM      2  O   UNL     1      -5.986 -11.709  10.359  0.00  0.00    -0.370 OA
ATOM      3  O   UNL     1      -4.057  -9.321   9.798  0.00  0.00    -0.370 OA
ATOM     11  C   UNL     1      -4.015 -10.719   9.465  0.00  0.00    +0.171 C 
ATOM     12  C   UNL     1      -4.595 -11.481  10.642  0.00  0.00    +0.171 C 
ATOM     13  C   UNL     1      -4.967 -11.016   8.329  0.00  0.00    +0.130 C 
ATOM     14  C   UNL     1      -4.447 -10.529  11.806  0.00  0.00    +0.130 C 
ATOM     15  C   UNL     1      -6.290 -11.196   9.052  0.00  0.00    +0.185 C 
ATOM     16  C   UNL     1      -4.545  -9.169  11.140  0.00  0.00    +0.185 C 
ENDROOT
BRANCH  14   8
ATOM      8  N   UNL     1      -3.148 -10.695  12.419  0.00  0.00    -0.306 N 
ATOM      9  N   UNL     1      -4.031 -10.530  14.560  0.00  0.00    -0.214 NA
ATOM     10  N   UNL     1      -1.671 -10.864  14.203  0.00  0.00    -0.223 NA
ATOM     18  C   UNL     1      -2.941 -10.697  13.787  0.00  0.00    +0.216 A 
ATOM     20  C   UNL     1      -3.793 -10.536  15.888  0.00  0.00    +0.076 A 
ATOM     21  C   UNL     1      -1.506 -10.860  15.542  0.00  0.00    +0.116 A 
ATOM     22  C   UNL     1      -2.540 -10.699  16.443  0.00  0.00    +0.048 A 
ATOM     32  H   UNL     1      -2.339 -10.872  11.833  0.00  0.00    +0.149 HD
BRANCH  20  23
ATOM     23  C   UNL     1      -4.959 -10.358  16.720  0.00  0.00    +0.001 A 
ATOM     25  C   UNL     1      -4.971 -10.864  18.020  0.00  0.00    +0.010 A 
ATOM     26  C   UNL     1      -6.073  -9.681  16.226  0.00  0.00    +0.010 A 
ATOM     28  C   UNL     1      -6.098 -10.693  18.826  0.00  0.00    +0.001 A 
ATOM     29  C   UNL     1      -7.199  -9.508  17.030  0.00  0.00    +0.001 A 
ATOM     30  C   UNL     1      -7.212 -10.015  18.330  0.00  0.00    +0.000 A 
ENDBRANCH  20  23
ENDBRANCH  14   8
BRANCH  13   7
ATOM      4  O   UNL     1      -4.664 -11.362   5.472  0.00  0.00    -0.275 OA
ATOM      7  N   UNL     1      -4.585 -12.220   7.630  0.00  0.00    -0.307 N 
ATOM     17  C   UNL     1      -4.465 -12.292   6.251  0.00  0.00    +0.223 C 
ATOM     31  H   UNL     1      -4.342 -13.032   8.189  0.00  0.00    +0.149 HD
BRANCH  17  19
ATOM     19  C   UNL     1      -4.071 -13.667   5.763  0.00  0.00    +0.165 C 
BRANCH  19   1
ATOM      1  S   UNL     1      -2.320 -13.650   5.314  0.00  0.00    -0.140 S 
BRANCH   1  24
ATOM     24  C   UNL     1      -2.466 -14.300   3.632  0.00  0.00    +0.189 C 
BRANCH  24  27
ATOM      6  O   UNL     1      -0.834 -13.611   1.998  0.00  0.00    -0.250 OA
ATOM     27  C   UNL     1      -1.823 -13.345   2.669  0.00  0.00    +0.315 C 
BRANCH  27   5
ATOM      5  O   UNL     1      -2.464 -12.151   2.608  0.00  0.00    -0.480 OA
ATOM     33  H   UNL     1      -3.405 -12.253   2.352  0.00  0.00    +0.295 HD
ENDBRANCH  27   5
ENDBRANCH  24  27
ENDBRANCH   1  24
ENDBRANCH  19   1
ENDBRANCH  17  19
ENDBRANCH  13   7
TORSDOF 8
ENDMDL
MODEL 4
REMARK VINA RESULT:      -6.5      5.871      8.342
REMARK  Name = 11912241
REMARK  8 active torsions:
REMARK  status: ('A' for Active; 'I' for Inactive)
REMARK    1  A    between atoms: S_1  and  C_19
REMARK    2  A    between atoms: S_1  and  C_24
REMARK    3  A    between atoms: O_5  and  C_27
REMARK    4  A    between atoms: N_7  and  C_13
REMARK    5  A    between atoms: N_8  and  C_14
REMARK    6  A    between atoms: C_17  and  C_19
REMARK    7  A    between atoms: C_20  and  C_23
REMARK    8  A    between atoms: C_24  and  C_27
REMARK                            x       y       z     vdW  Elec       q    Type
REMARK                         _______ _______ _______ _____ _____    ______ ____
ROOT
ATOM      2  O   UNL     1      12.469  13.089  23.056  0.00  0.00    -0.370 OA
ATOM      3  O   UNL     1      10.915  10.723  24.368  0.00  0.00    -0.370 OA
ATOM     11  C   UNL     1      12.089  11.460  24.748  0.00  0.00    +0.171 C 
ATOM     12  C   UNL     1      12.857  11.770  23.477  0.00  0.00    +0.171 C 
ATOM     13  C   UNL     1      11.704  12.819  25.287  0.00  0.00    +0.130 C 
ATOM     14  C   UNL     1      12.367  10.739  22.489  0.00  0.00    +0.130 C 
ATOM     15  C   UNL     1      11.559  13.642  24.020  0.00  0.00    +0.185 C 
ATOM     16  C   UNL     1      10.946  10.480  22.954  0.00  0.00    +0.185 C 
ENDROOT
BRANCH  14   8
ATOM      8  N   UNL     1      13.158   9.534  22.598  0.00  0.00    -0.306 N 
ATOM      9  N   UNL     1      12.934   9.067  20.335  0.00  0.00    -0.214 NA
ATOM     10  N   UNL     1      14.193   7.618  21.792  0.00  0.00    -0.223 NA
ATOM     18  C   UNL     1      13.441   8.703  21.528  0.00  0.00    +0.216 A 
ATOM     20  C   UNL     1      13.229   8.235  19.314  0.00  0.00    +0.076 A 
ATOM     21  C   UNL     1      14.450   6.831  20.726  0.00  0.00    +0.116 A 
ATOM     22  C   UNL     1      13.990   7.092  19.451  0.00  0.00    +0.048 A 
ATOM     32  H   UNL     1      13.580   9.294  23.489  0.00  0.00    +0.149 HD
BRANCH  20  23
ATOM     23  C   UNL     1      12.688   8.622  18.033  0.00  0.00    +0.001 A 
ATOM     25  C   UNL     1      11.340   8.402  17.751  0.00  0.00    +0.010 A 
ATOM     26  C   UNL     1      13.512   9.216  17.078  0.00  0.00    +0.010 A 
ATOM     28  C   UNL     1      10.815   8.775  16.513  0.00  0.00    +0.001 A 
ATOM     29  C   UNL     1      12.989   9.591  15.840  0.00  0.00    +0.001 A 
ATOM     30  C   UNL     1      11.640   9.369  15.557  0.00  0.00    +0.000 A 
ENDBRANCH  20  23
ENDBRANCH  14   8
BRANCH  13   7
ATOM      4  O   UNL     1      11.516  15.115  27.039  0.00  0.00    -0.275 OA
ATOM      7  N   UNL     1      12.737  13.353  26.142  0.00  0.00    -0.307 N 
ATOM     17  C   UNL     1      12.555  14.463  26.952  0.00  0.00    +0.223 C 
ATOM     31  H   UNL     1      13.618  12.850  26.187  0.00  0.00    +0.149 HD
BRANCH  17  19
ATOM     19  C   UNL     1      13.793  14.832  27.736  0.00  0.00    +0.165 C 
BRANCH  19   1
ATOM      1  S   UNL     1      15.249  14.224  26.856  0.00  0.00    -0.140 S 
BRANCH   1  24
ATOM     24  C   UNL     1      15.765  12.952  28.034  0.00  0.00    +0.189 C 
BRANCH  24  27
ATOM      6  O   UNL     1      14.680  11.078  26.975  0.00  0.00    -0.250 OA
ATOM     27  C   UNL     1      15.712  11.606  27.371  0.00  0.00    +0.315 C 
BRANCH  27   5
ATOM      5  O   UNL     1      16.936  11.035  27.244  0.00  0.00    -0.480 OA
ATOM     33  H   UNL     1      17.559  11.610  26.752  0.00  0.00    +0.295 HD
ENDBRANCH  27   5
ENDBRANCH  24  27
ENDBRANCH   1  24
ENDBRANCH  19   1
ENDBRANCH  17  19
ENDBRANCH  13   7
TORSDOF 8
ENDMDL
MODEL 5
REMARK VINA RESULT:      -6.4      4.831      9.664
REMARK  Name = 11912241
REMARK  8 active torsions:
REMARK  status: ('A' for Active; 'I' for Inactive)
REMARK    1  A    between atoms: S_1  and  C_19
REMARK    2  A    between atoms: S_1  and  C_24
REMARK    3  A    between atoms: O_5  and  C_27
REMARK    4  A    between atoms: N_7  and  C_13
REMARK    5  A    between atoms: N_8  and  C_14
REMARK    6  A    between atoms: C_17  and  C_19
REMARK    7  A    between atoms: C_20  and  C_23
REMARK    8  A    between atoms: C_24  and  C_27
REMARK                            x       y       z     vdW  Elec       q    Type
REMARK                         _______ _______ _______ _____ _____    ______ ____
ROOT
ATOM      2  O   UNL     1      19.948   6.487  20.089  0.00  0.00    -0.370 OA
ATOM      3  O   UNL     1      19.589   8.180  22.685  0.00  0.00    -0.370 OA
ATOM     11  C   UNL     1      19.717   6.770  22.440  0.00  0.00    +0.171 C 
ATOM     12  C   UNL     1      18.978   6.466  21.150  0.00  0.00    +0.171 C 
ATOM     13  C   UNL     1      21.156   6.419  22.131  0.00  0.00    +0.130 C 
ATOM     14  C   UNL     1      18.012   7.618  21.000  0.00  0.00    +0.130 C 
ATOM     15  C   UNL     1      21.251   6.718  20.646  0.00  0.00    +0.185 C 
ATOM     16  C   UNL     1      18.746   8.760  21.678  0.00  0.00    +0.185 C 
ENDROOT
BRANCH  14   8
ATOM      8  N   UNL     1      16.782   7.325  21.700  0.00  0.00    -0.306 N 
ATOM      9  N   UNL     1      15.484   8.161  19.966  0.00  0.00    -0.214 NA
ATOM     10  N   UNL     1      14.475   7.262  21.961  0.00  0.00    -0.223 NA
ATOM     18  C   UNL     1      15.526   7.594  21.187  0.00  0.00    +0.216 A 
ATOM     20  C   UNL     1      14.244   8.409  19.496  0.00  0.00    +0.076 A 
ATOM     21  C   UNL     1      13.266   7.537  21.429  0.00  0.00    +0.116 A 
ATOM     22  C   UNL     1      13.087   8.116  20.189  0.00  0.00    +0.048 A 
ATOM     32  H   UNL     1      16.819   6.851  22.596  0.00  0.00    +0.149 HD
BRANCH  20  23
ATOM     23  C   UNL     1      14.195   9.016  18.187  0.00  0.00    +0.001 A 
ATOM     25  C   UNL     1      13.965   8.226  17.060  0.00  0.00    +0.010 A 
ATOM     26  C   UNL     1      14.378  10.391  18.048  0.00  0.00    +0.010 A 
ATOM     28  C   UNL     1      13.918   8.812  15.795  0.00  0.00    +0.001 A 
ATOM     29  C   UNL     1      14.330  10.978  16.783  0.00  0.00    +0.001 A 
ATOM     30  C   UNL     1      14.100  10.187  15.656  0.00  0.00    +0.000 A 
ENDBRANCH  20  23
ENDBRANCH  14   8
BRANCH  13   7
ATOM      4  O   UNL     1      23.451   5.312  23.502  0.00  0.00    -0.275 OA
ATOM      7  N   UNL     1      21.424   5.027  22.403  0.00  0.00    -0.307 N 
ATOM     17  C   UNL     1      22.556   4.588  23.071  0.00  0.00    +0.223 C 
ATOM     31  H   UNL     1      20.715   4.350  22.137  0.00  0.00    +0.149 HD
BRANCH  17  19
ATOM     19  C   UNL     1      22.613   3.085  23.214  0.00  0.00    +0.165 C 
BRANCH  19   1
ATOM      1  S   UNL     1      24.176   2.488  22.530  0.00  0.00    -0.140 S 
BRANCH   1  24
ATOM     24  C   UNL     1      23.624   2.161  20.839  0.00  0.00    +0.189 C 
BRANCH  24  27
ATOM      6  O   UNL     1      23.844   4.460  20.150  0.00  0.00    -0.250 OA
ATOM     27  C   UNL     1      24.076   3.276  19.941  0.00  0.00    +0.315 C 
BRANCH  27   5
ATOM      5  O   UNL     1      24.785   2.834  18.872  0.00  0.00    -0.480 OA
ATOM     33  H   UNL     1      24.201   2.537  18.143  0.00  0.00    +0.295 HD
ENDBRANCH  27   5
ENDBRANCH  24  27
ENDBRANCH   1  24
ENDBRANCH  19   1
ENDBRANCH  17  19
ENDBRANCH  13   7
TORSDOF 8
ENDMDL
MODEL 6
REMARK VINA RESULT:      -6.4     27.792     30.600
REMARK  Name = 11912241
REMARK  8 active torsions:
REMARK  status: ('A' for Active; 'I' for Inactive)
REMARK    1  A    between atoms: S_1  and  C_19
REMARK    2  A    between atoms: S_1  and  C_24
REMARK    3  A    between atoms: O_5  and  C_27
REMARK    4  A    between atoms: N_7  and  C_13
REMARK    5  A    between atoms: N_8  and  C_14
REMARK    6  A    between atoms: C_17  and  C_19
REMARK    7  A    between atoms: C_20  and  C_23
REMARK    8  A    between atoms: C_24  and  C_27
REMARK                            x       y       z     vdW  Elec       q    Type
REMARK                         _______ _______ _______ _____ _____    ______ ____
ROOT
ATOM      2  O   UNL     1      -7.134 -11.997  15.862  0.00  0.00    -0.370 OA
ATOM      3  O   UNL     1      -5.987 -12.287  18.749  0.00  0.00    -0.370 OA
ATOM     11  C   UNL     1      -6.469 -11.166  17.990  0.00  0.00    +0.171 C 
ATOM     12  C   UNL     1      -6.036 -11.375  16.551  0.00  0.00    +0.171 C 
ATOM     13  C   UNL     1      -7.980 -11.186  17.927  0.00  0.00    +0.130 C 
ATOM     14  C   UNL     1      -4.872 -12.331  16.652  0.00  0.00    +0.130 C 
ATOM     15  C   UNL     1      -8.244 -12.127  16.764  0.00  0.00    +0.185 C 
ATOM     16  C   UNL     1      -5.208 -13.137  17.893  0.00  0.00    +0.185 C 
ENDROOT
BRANCH  14   8
ATOM      8  N   UNL     1      -3.643 -11.595  16.850  0.00  0.00    -0.306 N 
ATOM      9  N   UNL     1      -3.345 -11.294  14.567  0.00  0.00    -0.214 NA
ATOM     10  N   UNL     1      -1.765 -10.416  16.161  0.00  0.00    -0.223 NA
ATOM     18  C   UNL     1      -2.885 -11.079  15.814  0.00  0.00    +0.216 A 
ATOM     20  C   UNL     1      -2.581 -10.777  13.582  0.00  0.00    +0.076 A 
ATOM     21  C   UNL     1      -1.050  -9.926  15.126  0.00  0.00    +0.116 A 
ATOM     22  C   UNL     1      -1.413 -10.077  13.803  0.00  0.00    +0.048 A 
ATOM     32  H   UNL     1      -3.330 -11.392  17.793  0.00  0.00    +0.149 HD
BRANCH  20  23
ATOM     23  C   UNL     1      -3.072 -11.005  12.243  0.00  0.00    +0.001 A 
ATOM     25  C   UNL     1      -3.429 -12.293  11.842  0.00  0.00    +0.010 A 
ATOM     26  C   UNL     1      -3.189  -9.940  11.352  0.00  0.00    +0.010 A 
ATOM     28  C   UNL     1      -3.903 -12.515  10.548  0.00  0.00    +0.001 A 
ATOM     29  C   UNL     1      -3.663 -10.160  10.059  0.00  0.00    +0.001 A 
ATOM     30  C   UNL     1      -4.020 -11.448   9.657  0.00  0.00    +0.000 A 
ENDBRANCH  20  23
ENDBRANCH  14   8
BRANCH  13   7
ATOM      4  O   UNL     1     -10.714 -10.297  18.262  0.00  0.00    -0.275 OA
ATOM      7  N   UNL     1      -8.509  -9.869  17.665  0.00  0.00    -0.307 N 
ATOM     17  C   UNL     1      -9.840  -9.533  17.856  0.00  0.00    +0.223 C 
ATOM     31  H   UNL     1      -7.855  -9.147  17.379  0.00  0.00    +0.149 HD
BRANCH  17  19
ATOM     19  C   UNL     1     -10.146  -8.099  17.493  0.00  0.00    +0.165 C 
BRANCH  19   1
ATOM      1  S   UNL     1     -10.529  -8.009  15.728  0.00  0.00    -0.140 S 
BRANCH   1  24
ATOM     24  C   UNL     1     -10.565  -6.210  15.551  0.00  0.00    +0.189 C 
BRANCH  24  27
ATOM      6  O   UNL     1     -12.968  -6.170  15.370  0.00  0.00    -0.250 OA
ATOM     27  C   UNL     1     -11.879  -5.791  14.958  0.00  0.00    +0.315 C 
BRANCH  27   5
ATOM      5  O   UNL     1     -11.735  -4.933  13.916  0.00  0.00    -0.480 OA
ATOM     33  H   UNL     1     -12.088  -4.043  14.125  0.00  0.00    +0.295 HD
ENDBRANCH  27   5
ENDBRANCH  24  27
ENDBRANCH   1  24
ENDBRANCH  19   1
ENDBRANCH  17  19
ENDBRANCH  13   7
TORSDOF 8
ENDMDL
MODEL 7
REMARK VINA RESULT:      -6.3     28.658     31.119
REMARK  Name = 11912241
REMARK  8 active torsions:
REMARK  status: ('A' for Active; 'I' for Inactive)
REMARK    1  A    between atoms: S_1  and  C_19
REMARK    2  A    between atoms: S_1  and  C_24
REMARK    3  A    between atoms: O_5  and  C_27
REMARK    4  A    between atoms: N_7  and  C_13
REMARK    5  A    between atoms: N_8  and  C_14
REMARK    6  A    between atoms: C_17  and  C_19
REMARK    7  A    between atoms: C_20  and  C_23
REMARK    8  A    between atoms: C_24  and  C_27
REMARK                            x       y       z     vdW  Elec       q    Type
REMARK                         _______ _______ _______ _____ _____    ______ ____
ROOT
ATOM      2  O   UNL     1      -2.661 -12.948  12.599  0.00  0.00    -0.370 OA
ATOM      3  O   UNL     1      -1.839 -10.012  13.260  0.00  0.00    -0.370 OA
ATOM     11  C   UNL     1      -2.870 -10.881  13.759  0.00  0.00    +0.171 C 
ATOM     12  C   UNL     1      -3.375 -11.700  12.586  0.00  0.00    +0.171 C 
ATOM     13  C   UNL     1      -2.281 -11.908  14.699  0.00  0.00    +0.130 C 
ATOM     14  C   UNL     1      -2.987 -10.888  11.374  0.00  0.00    +0.130 C 
ATOM     15  C   UNL     1      -1.794 -12.982  13.743  0.00  0.00    +0.185 C 
ATOM     16  C   UNL     1      -1.730 -10.176  11.838  0.00  0.00    +0.185 C 
ENDROOT
BRANCH  14   8
ATOM      8  N   UNL     1      -4.024  -9.927  11.069  0.00  0.00    -0.306 N 
ATOM      9  N   UNL     1      -4.327 -10.789   8.934  0.00  0.00    -0.214 NA
ATOM     10  N   UNL     1      -5.633  -8.925   9.728  0.00  0.00    -0.223 NA
ATOM     18  C   UNL     1      -4.690  -9.878   9.858  0.00  0.00    +0.216 A 
ATOM     20  C   UNL     1      -4.997 -10.712   7.766  0.00  0.00    +0.076 A 
ATOM     21  C   UNL     1      -6.263  -8.906   8.535  0.00  0.00    +0.116 A 
ATOM     22  C   UNL     1      -5.984  -9.784   7.506  0.00  0.00    +0.048 A 
ATOM     32  H   UNL     1      -4.329  -9.279  11.787  0.00  0.00    +0.149 HD
BRANCH  20  23
ATOM     23  C   UNL     1      -4.610 -11.687   6.773  0.00  0.00    +0.001 A 
ATOM     25  C   UNL     1      -4.880 -11.453   5.425  0.00  0.00    +0.010 A 
ATOM     26  C   UNL     1      -3.967 -12.861   7.161  0.00  0.00    +0.010 A 
ATOM     28  C   UNL     1      -4.507 -12.394   4.464  0.00  0.00    +0.001 A 
ATOM     29  C   UNL     1      -3.592 -13.802   6.202  0.00  0.00    +0.001 A 
ATOM     30  C   UNL     1      -3.864 -13.569   4.853  0.00  0.00    +0.000 A 
ENDBRANCH  20  23
ENDBRANCH  14   8
BRANCH  13   7
ATOM      4  O   UNL     1      -3.694 -10.457  16.766  0.00  0.00    -0.275 OA
ATOM      7  N   UNL     1      -3.282 -12.425  15.601  0.00  0.00    -0.307 N 
ATOM     17  C   UNL     1      -3.909 -11.651  16.564  0.00  0.00    +0.223 C 
ATOM     31  H   UNL     1      -3.574 -13.390  15.478  0.00  0.00    +0.149 HD
BRANCH  17  19
ATOM     19  C   UNL     1      -4.905 -12.429  17.393  0.00  0.00    +0.165 C 
BRANCH  19   1
ATOM      1  S   UNL     1      -6.572 -12.077  16.790  0.00  0.00    -0.140 S 
BRANCH   1  24
ATOM     24  C   UNL     1      -6.981 -10.715  17.907  0.00  0.00    +0.189 C 
BRANCH  24  27
ATOM      6  O   UNL     1      -8.344  -8.846  17.227  0.00  0.00    -0.250 OA
ATOM     27  C   UNL     1      -7.310  -9.490  17.102  0.00  0.00    +0.315 C 
BRANCH  27   5
ATOM      5  O   UNL     1      -6.329  -9.161  16.224  0.00  0.00    -0.480 OA
ATOM     33  H   UNL     1      -6.392  -9.679  15.394  0.00  0.00    +0.295 HD
ENDBRANCH  27   5
ENDBRANCH  24  27
ENDBRANCH   1  24
ENDBRANCH  19   1
ENDBRANCH  17  19
ENDBRANCH  13   7
TORSDOF 8
ENDMDL
MODEL 8
REMARK VINA RESULT:      -6.3     18.491     21.661
REMARK  Name = 11912241
REMARK  8 active torsions:
REMARK  status: ('A' for Active; 'I' for Inactive)
REMARK    1  A    between atoms: S_1  and  C_19
REMARK    2  A    between atoms: S_1  and  C_24
REMARK    3  A    between atoms: O_5  and  C_27
REMARK    4  A    between atoms: N_7  and  C_13
REMARK    5  A    between atoms: N_8  and  C_14
REMARK    6  A    between atoms: C_17  and  C_19
REMARK    7  A    between atoms: C_20  and  C_23
REMARK    8  A    between atoms: C_24  and  C_27
REMARK                            x       y       z     vdW  Elec       q    Type
REMARK                         _______ _______ _______ _____ _____    ______ ____
ROOT
ATOM      2  O   UNL     1      14.450   4.764   2.115  0.00  0.00    -0.370 OA
ATOM      3  O   UNL     1      11.955   3.434   0.796  0.00  0.00    -0.370 OA
ATOM     11  C   UNL     1      12.923   4.389   0.329  0.00  0.00    +0.171 C 
ATOM     12  C   UNL     1      13.264   5.294   1.498  0.00  0.00    +0.171 C 
ATOM     13  C   UNL     1      14.228   3.697   0.006  0.00  0.00    +0.130 C 
ATOM     14  C   UNL     1      12.083   5.155   2.429  0.00  0.00    +0.130 C 
ATOM     15  C   UNL     1      14.904   3.628   1.364  0.00  0.00    +0.185 C 
ATOM     16  C   UNL     1      11.606   3.740   2.155  0.00  0.00    +0.185 C 
ENDROOT
BRANCH  14   8
ATOM      8  N   UNL     1      11.056   6.108   2.071  0.00  0.00    -0.306 N 
ATOM      9  N   UNL     1      10.187   6.124   4.224  0.00  0.00    -0.214 NA
ATOM     10  N   UNL     1       9.224   7.476   2.476  0.00  0.00    -0.223 NA
ATOM     18  C   UNL     1      10.115   6.591   2.962  0.00  0.00    +0.216 A 
ATOM     20  C   UNL     1       9.254   6.616   5.066  0.00  0.00    +0.076 A 
ATOM     21  C   UNL     1       8.321   7.926   3.373  0.00  0.00    +0.116 A 
ATOM     22  C   UNL     1       8.288   7.528   4.694  0.00  0.00    +0.048 A 
ATOM     32  H   UNL     1      11.040   6.494   1.133  0.00  0.00    +0.149 HD
BRANCH  20  23
ATOM     23  C   UNL     1       9.329   6.119   6.420  0.00  0.00    +0.001 A 
ATOM     25  C   UNL     1       9.782   4.821   6.661  0.00  0.00    +0.010 A 
ATOM     26  C   UNL     1       8.949   6.934   7.484  0.00  0.00    +0.010 A 
ATOM     28  C   UNL     1       9.854   4.340   7.969  0.00  0.00    +0.001 A 
ATOM     29  C   UNL     1       9.021   6.454   8.792  0.00  0.00    +0.001 A 
ATOM     30  C   UNL     1       9.474   5.156   9.034  0.00  0.00    +0.000 A 
ENDBRANCH  20  23
ENDBRANCH  14   8
BRANCH  13   7
ATOM      4  O   UNL     1      13.855   3.883  -2.858  0.00  0.00    -0.275 OA
ATOM      7  N   UNL     1      15.011   4.469  -0.929  0.00  0.00    -0.307 N 
ATOM     17  C   UNL     1      14.756   4.498  -2.291  0.00  0.00    +0.223 C 
ATOM     31  H   UNL     1      15.746   5.060  -0.553  0.00  0.00    +0.149 HD
BRANCH  17  19
ATOM     19  C   UNL     1      15.728   5.367  -3.056  0.00  0.00    +0.165 C 
BRANCH  19   1
ATOM      1  S   UNL     1      17.276   5.473  -2.129  0.00  0.00    -0.140 S 
BRANCH   1  24
ATOM     24  C   UNL     1      17.212   7.228  -1.697  0.00  0.00    +0.189 C 
BRANCH  24  27
ATOM      6  O   UNL     1      16.841   8.447   0.349  0.00  0.00    -0.250 OA
ATOM     27  C   UNL     1      16.971   7.372  -0.222  0.00  0.00    +0.315 C 
BRANCH  27   5
ATOM      5  O   UNL     1      16.897   6.177   0.416  0.00  0.00    -0.480 OA
ATOM     33  H   UNL     1      15.983   5.972   0.706  0.00  0.00    +0.295 HD
ENDBRANCH  27   5
ENDBRANCH  24  27
ENDBRANCH   1  24
ENDBRANCH  19   1
ENDBRANCH  17  19
ENDBRANCH  13   7
TORSDOF 8
ENDMDL
MODEL 9
REMARK VINA RESULT:      -6.3     10.882     13.071
REMARK  Name = 11912241
REMARK  8 active torsions:
REMARK  status: ('A' for Active; 'I' for Inactive)
REMARK    1  A    between atoms: S_1  and  C_19
REMARK    2  A    between atoms: S_1  and  C_24
REMARK    3  A    between atoms: O_5  and  C_27
REMARK    4  A    between atoms: N_7  and  C_13
REMARK    5  A    between atoms: N_8  and  C_14
REMARK    6  A    between atoms: C_17  and  C_19
REMARK    7  A    between atoms: C_20  and  C_23
REMARK    8  A    between atoms: C_24  and  C_27
REMARK                            x       y       z     vdW  Elec       q    Type
REMARK                         _______ _______ _______ _____ _____    ______ ____
ROOT
ATOM      2  O   UNL     1      16.511  -1.972  30.367  0.00  0.00    -0.370 OA
ATOM      3  O   UNL     1      19.088  -2.489  32.048  0.00  0.00    -0.370 OA
ATOM     11  C   UNL     1      18.358  -1.299  31.708  0.00  0.00    +0.171 C 
ATOM     12  C   UNL     1      17.855  -1.468  30.287  0.00  0.00    +0.171 C 
ATOM     13  C   UNL     1      17.096  -1.203  32.535  0.00  0.00    +0.130 C 
ATOM     14  C   UNL     1      18.772  -2.512  29.694  0.00  0.00    +0.130 C 
ATOM     15  C   UNL     1      16.124  -2.063  31.746  0.00  0.00    +0.185 C 
ATOM     16  C   UNL     1      19.147  -3.351  30.901  0.00  0.00    +0.185 C 
ENDROOT
BRANCH  14   8
ATOM      8  N   UNL     1      19.947  -1.880  29.137  0.00  0.00    -0.306 N 
ATOM      9  N   UNL     1      19.043  -1.867  26.998  0.00  0.00    -0.214 NA
ATOM     10  N   UNL     1      21.238  -0.972  27.434  0.00  0.00    -0.223 NA
ATOM     18  C   UNL     1      20.082  -1.558  27.798  0.00  0.00    +0.216 A 
ATOM     20  C   UNL     1      19.209  -1.539  25.700  0.00  0.00    +0.076 A 
ATOM     21  C   UNL     1      21.336  -0.671  26.122  0.00  0.00    +0.116 A 
ATOM     22  C   UNL     1      20.343  -0.934  25.199  0.00  0.00    +0.048 A 
ATOM     32  H   UNL     1      20.703  -1.603  29.753  0.00  0.00    +0.149 HD
BRANCH  20  23
ATOM     23  C   UNL     1      18.097  -1.868  24.839  0.00  0.00    +0.001 A 
ATOM     25  C   UNL     1      17.821  -1.076  23.724  0.00  0.00    +0.010 A 
ATOM     26  C   UNL     1      17.300  -2.976  25.121  0.00  0.00    +0.010 A 
ATOM     28  C   UNL     1      16.747  -1.392  22.891  0.00  0.00    +0.001 A 
ATOM     29  C   UNL     1      16.226  -3.294  24.288  0.00  0.00    +0.001 A 
ATOM     30  C   UNL     1      15.950  -2.501  23.174  0.00  0.00    +0.000 A 
ENDBRANCH  20  23
ENDBRANCH  14   8
BRANCH  13   7
ATOM      4  O   UNL     1      17.243   0.548  34.835  0.00  0.00    -0.275 OA
ATOM      7  N   UNL     1      16.633   0.161  32.626  0.00  0.00    -0.307 N 
ATOM     17  C   UNL     1      16.746   0.927  33.776  0.00  0.00    +0.223 C 
ATOM     31  H   UNL     1      16.257   0.588  31.785  0.00  0.00    +0.149 HD
BRANCH  17  19
ATOM     19  C   UNL     1      16.170   2.315  33.621  0.00  0.00    +0.165 C 
BRANCH  19   1
ATOM      1  S   UNL     1      16.606   2.952  31.986  0.00  0.00    -0.140 S 
BRANCH   1  24
ATOM     24  C   UNL     1      17.092   4.626  32.469  0.00  0.00    +0.189 C 
BRANCH  24  27
ATOM      6  O   UNL     1      16.574   6.681  31.322  0.00  0.00    -0.250 OA
ATOM     27  C   UNL     1      17.004   5.536  31.279  0.00  0.00    +0.315 C 
BRANCH  27   5
ATOM      5  O   UNL     1      17.466   4.958  30.141  0.00  0.00    -0.480 OA
ATOM     33  H   UNL     1      17.171   4.026  30.058  0.00  0.00    +0.295 HD
ENDBRANCH  27   5
ENDBRANCH  24  27
ENDBRANCH   1  24
ENDBRANCH  19   1
ENDBRANCH  17  19
ENDBRANCH  13   7
TORSDOF 8
ENDMDL
MODEL 10
REMARK VINA RESULT:      -6.2      6.852      8.957
REMARK  Name = 11912241
REMARK  8 active torsions:
REMARK  status: ('A' for Active; 'I' for Inactive)
REMARK    1  A    between atoms: S_1  and  C_19
REMARK    2  A    between atoms: S_1  and  C_24
REMARK    3  A    between atoms: O_5  and  C_27
REMARK    4  A    between atoms: N_7  and  C_13
REMARK    5  A    between atoms: N_8  and  C_14
REMARK    6  A    between atoms: C_17  and  C_19
REMARK    7  A    between atoms: C_20  and  C_23
REMARK    8  A    between atoms: C_24  and  C_27
REMARK                            x       y       z     vdW  Elec       q    Type
REMARK                         _______ _______ _______ _____ _____    ______ ____
ROOT
ATOM      2  O   UNL     1      13.523  12.735  23.833  0.00  0.00    -0.370 OA
ATOM      3  O   UNL     1      10.572  12.664  24.845  0.00  0.00    -0.370 OA
ATOM     11  C   UNL     1      11.809  12.167  25.382  0.00  0.00    +0.171 C 
ATOM     12  C   UNL     1      12.640  11.667  24.216  0.00  0.00    +0.171 C 
ATOM     13  C   UNL     1      12.626  13.302  25.956  0.00  0.00    +0.130 C 
ATOM     14  C   UNL     1      11.627  11.409  23.126  0.00  0.00    +0.130 C 
ATOM     15  C   UNL     1      13.340  13.841  24.729  0.00  0.00    +0.185 C 
ATOM     16  C   UNL     1      10.543  12.427  23.429  0.00  0.00    +0.185 C 
ENDROOT
BRANCH  14   8
ATOM      8  N   UNL     1      11.101  10.067  23.246  0.00  0.00    -0.306 N 
ATOM      9  N   UNL     1      11.937   9.451  21.169  0.00  0.00    -0.214 NA
ATOM     10  N   UNL     1      10.709   7.891  22.536  0.00  0.00    -0.223 NA
ATOM     18  C   UNL     1      11.256   9.094  22.275  0.00  0.00    +0.216 A 
ATOM     20  C   UNL     1      12.069   8.478  20.243  0.00  0.00    +0.076 A 
ATOM     21  C   UNL     1      10.879   6.966  21.568  0.00  0.00    +0.116 A 
ATOM     22  C   UNL     1      11.557   7.205  20.389  0.00  0.00    +0.048 A 
ATOM     32  H   UNL     1      10.635   9.789  24.103  0.00  0.00    +0.149 HD
BRANCH  20  23
ATOM     23  C   UNL     1      12.799   8.857  19.057  0.00  0.00    +0.001 A 
ATOM     25  C   UNL     1      13.166   7.886  18.125  0.00  0.00    +0.010 A 
ATOM     26  C   UNL     1      13.135  10.192  18.841  0.00  0.00    +0.010 A 
ATOM     28  C   UNL     1      13.872   8.251  16.978  0.00  0.00    +0.001 A 
ATOM     29  C   UNL     1      13.840  10.559  17.694  0.00  0.00    +0.001 A 
ATOM     30  C   UNL     1      14.209   9.587  16.763  0.00  0.00    +0.000 A 
ENDBRANCH  20  23
ENDBRANCH  14   8
BRANCH  13   7
ATOM      4  O   UNL     1      13.765  14.790  28.162  0.00  0.00    -0.275 OA
ATOM      7  N   UNL     1      13.567  12.823  26.940  0.00  0.00    -0.307 N 
ATOM     17  C   UNL     1      14.060  13.612  27.968  0.00  0.00    +0.223 C 
ATOM     31  H   UNL     1      13.831  11.843  26.902  0.00  0.00    +0.149 HD
BRANCH  17  19
ATOM     19  C   UNL     1      15.043  12.884  28.853  0.00  0.00    +0.165 C 
BRANCH  19   1
ATOM      1  S   UNL     1      14.335  12.723  30.509  0.00  0.00    -0.140 S 
BRANCH   1  24
ATOM     24  C   UNL     1      14.703  10.975  30.791  0.00  0.00    +0.189 C 
BRANCH  24  27
ATOM      6  O   UNL     1      12.797  11.030  32.266  0.00  0.00    -0.250 OA
ATOM     27  C   UNL     1      13.639  10.375  31.664  0.00  0.00    +0.315 C 
BRANCH  27   5
ATOM      5  O   UNL     1      13.698   9.020  31.707  0.00  0.00    -0.480 OA
ATOM     33  H   UNL     1      12.922   8.606  31.273  0.00  0.00    +0.295 HD
ENDBRANCH  27   5
ENDBRANCH  24  27
ENDBRANCH   1  24
ENDBRANCH  19   1
ENDBRANCH  17  19
ENDBRANCH  13   7
TORSDOF 8
ENDMDL
