MODEL 1
REMARK VINA RESULT:      -7.0      0.000      0.000
REMARK  Name = 26742630
REMARK  10 active torsions:
REMARK  status: ('A' for Active; 'I' for Inactive)
REMARK    1  A    between atoms: S_1  and  N_7
REMARK    2  A    between atoms: S_1  and  C_19
REMARK    3  A    between atoms: N_8  and  C_22
REMARK    4  A    between atoms: C_10  and  C_15
REMARK    5  A    between atoms: C_11  and  C_16
REMARK    6  A    between atoms: C_15  and  C_17
REMARK    7  A    between atoms: C_16  and  C_18
REMARK    8  A    between atoms: C_20  and  C_23
REMARK    9  A    between atoms: C_21  and  C_24
REMARK   10  A    between atoms: C_22  and  C_25
REMARK                            x       y       z     vdW  Elec       q    Type
REMARK                         _______ _______ _______ _____ _____    ______ ____
ROOT
ATOM      7  N   UNL     1      -7.342 -11.384  16.522  0.00  0.00    -0.176 NA
ATOM     10  C   UNL     1      -4.980 -11.953  17.042  0.00  0.00    +0.008 C 
ATOM     11  C   UNL     1      -4.523 -10.976  15.932  0.00  0.00    +0.003 C 
ATOM     12  C   UNL     1      -5.573  -9.884  15.678  0.00  0.00    +0.021 C 
ATOM     13  C   UNL     1      -6.375 -12.506  16.709  0.00  0.00    +0.113 C 
ATOM     14  C   UNL     1      -6.947 -10.486  15.399  0.00  0.00    +0.110 C 
ENDROOT
BRANCH   7   1
ATOM      1  S   UNL     1      -8.997 -11.828  16.558  0.00  0.00    +0.066 S 
ATOM      3  O   UNL     1      -9.097 -13.271  16.554  0.00  0.00    -0.153 OA
ATOM      4  O   UNL     1      -9.718 -11.027  15.593  0.00  0.00    -0.153 OA
BRANCH   1  19
ATOM      6  O   UNL     1      -9.583 -11.044  20.386  0.00  0.00    -0.358 OA
ATOM      9  N   UNL     1     -10.386 -10.047  19.846  0.00  0.00    -0.081 NA
ATOM     19  C   UNL     1      -9.433 -11.261  18.172  0.00  0.00    +0.170 A 
ATOM     20  C   UNL     1      -9.022 -11.761  19.378  0.00  0.00    +0.161 A 
ATOM     21  C   UNL     1     -10.280 -10.195  18.523  0.00  0.00    +0.107 A 
ATOM     23  C   UNL     1      -8.139 -12.865  19.779  0.00  0.00    +0.091 C 
ATOM     24  C   UNL     1     -11.016  -9.286  17.628  0.00  0.00    +0.071 C 
ENDBRANCH   1  19
ENDBRANCH   7   1
BRANCH  10  15
ATOM     15  C   UNL     1      -4.961 -11.351  18.453  0.00  0.00    +0.002 C 
ATOM     17  C   UNL     1      -3.993 -12.091  19.351  0.00  0.00    +0.004 C 
ENDBRANCH  10  15
BRANCH  11  16
ATOM     16  C   UNL     1      -3.154 -10.352  16.207  0.00  0.00    +0.099 C 
BRANCH  16  18
ATOM      5  O   UNL     1      -1.086 -11.284  15.361  0.00  0.00    -0.276 OA
ATOM      8  N   UNL     1      -2.566 -10.263  13.887  0.00  0.00    -0.311 N 
ATOM     18  C   UNL     1      -2.142 -10.697  15.135  0.00  0.00    +0.214 C 
ATOM     31  H   UNL     1      -3.453  -9.776  13.802  0.00  0.00    +0.149 HD
BRANCH   8  22
ATOM     22  C   UNL     1      -1.795 -10.455  12.680  0.00  0.00    +0.139 C 
BRANCH  22  25
ATOM      2  F   UNL     1      -5.064 -10.551   8.092  0.00  0.00    -0.205 F 
ATOM     25  C   UNL     1      -2.669 -10.480  11.456  0.00  0.00    -0.030 A 
ATOM     26  C   UNL     1      -3.301 -11.665  11.072  0.00  0.00    +0.008 A 
ATOM     27  C   UNL     1      -2.847  -9.320  10.701  0.00  0.00    +0.008 A 
ATOM     28  C   UNL     1      -4.110 -11.688   9.937  0.00  0.00    +0.038 A 
ATOM     29  C   UNL     1      -3.657  -9.344   9.566  0.00  0.00    +0.038 A 
ATOM     30  C   UNL     1      -4.288 -10.527   9.183  0.00  0.00    +0.123 A 
ENDBRANCH  22  25
ENDBRANCH   8  22
ENDBRANCH  16  18
ENDBRANCH  11  16
TORSDOF 7
ENDMDL
MODEL 2
REMARK VINA RESULT:      -6.8      1.818      3.162
REMARK  Name = 26742630
REMARK  10 active torsions:
REMARK  status: ('A' for Active; 'I' for Inactive)
REMARK    1  A    between atoms: S_1  and  N_7
REMARK    2  A    between atoms: S_1  and  C_19
REMARK    3  A    between atoms: N_8  and  C_22
REMARK    4  A    between atoms: C_10  and  C_15
REMARK    5  A    between atoms: C_11  and  C_16
REMARK    6  A    between atoms: C_15  and  C_17
REMARK    7  A    between atoms: C_16  and  C_18
REMARK    8  A    between atoms: C_20  and  C_23
REMARK    9  A    between atoms: C_21  and  C_24
REMARK   10  A    between atoms: C_22  and  C_25
REMARK                            x       y       z     vdW  Elec       q    Type
REMARK                         _______ _______ _______ _____ _____    ______ ____
ROOT
ATOM      7  N   UNL     1      -6.265 -10.697  17.455  0.00  0.00    -0.176 NA
ATOM     10  C   UNL     1      -4.885 -10.614  15.391  0.00  0.00    +0.008 C 
ATOM     11  C   UNL     1      -3.611 -10.673  16.266  0.00  0.00    +0.003 C 
ATOM     12  C   UNL     1      -3.890 -11.345  17.620  0.00  0.00    +0.021 C 
ATOM     13  C   UNL     1      -6.031  -9.959  16.179  0.00  0.00    +0.113 C 
ATOM     14  C   UNL     1      -5.064 -10.686  18.338  0.00  0.00    +0.110 C 
ENDROOT
BRANCH   7   1
ATOM      1  S   UNL     1      -7.752 -10.357  18.237  0.00  0.00    +0.066 S 
ATOM      3  O   UNL     1      -8.191  -9.031  17.859  0.00  0.00    -0.153 OA
ATOM      4  O   UNL     1      -7.648 -10.740  19.628  0.00  0.00    -0.153 OA
BRANCH   1  19
ATOM      6  O   UNL     1     -10.516 -12.464  16.359  0.00  0.00    -0.358 OA
ATOM      9  N   UNL     1      -9.579 -13.473  16.544  0.00  0.00    -0.081 NA
ATOM     19  C   UNL     1      -8.800 -11.524  17.428  0.00  0.00    +0.170 A 
ATOM     20  C   UNL     1     -10.041 -11.309  16.891  0.00  0.00    +0.161 A 
ATOM     21  C   UNL     1      -8.563 -12.888  17.184  0.00  0.00    +0.107 A 
ATOM     23  C   UNL     1     -10.917 -10.134  16.782  0.00  0.00    +0.091 C 
ATOM     24  C   UNL     1      -7.376 -13.683  17.544  0.00  0.00    +0.071 C 
ENDBRANCH   1  19
ENDBRANCH   7   1
BRANCH  10  15
ATOM     15  C   UNL     1      -5.324 -11.974  14.832  0.00  0.00    +0.002 C 
ATOM     17  C   UNL     1      -6.650 -11.866  14.109  0.00  0.00    +0.004 C 
ENDBRANCH  10  15
BRANCH  11  16
ATOM     16  C   UNL     1      -2.430 -11.345  15.565  0.00  0.00    +0.099 C 
BRANCH  16  18
ATOM      5  O   UNL     1      -1.148  -9.552  14.566  0.00  0.00    -0.276 OA
ATOM      8  N   UNL     1      -2.367 -10.982  13.199  0.00  0.00    -0.311 N 
ATOM     18  C   UNL     1      -1.897 -10.514  14.417  0.00  0.00    +0.214 C 
ATOM     31  H   UNL     1      -2.993 -11.782  13.177  0.00  0.00    +0.149 HD
BRANCH   8  22
ATOM     22  C   UNL     1      -2.022 -10.376  11.934  0.00  0.00    +0.139 C 
BRANCH  22  25
ATOM      2  F   UNL     1      -6.551  -8.338   9.272  0.00  0.00    -0.205 F 
ATOM     25  C   UNL     1      -3.232  -9.833  11.223  0.00  0.00    -0.030 A 
ATOM     26  C   UNL     1      -3.101  -9.268   9.953  0.00  0.00    +0.008 A 
ATOM     27  C   UNL     1      -4.485  -9.891  11.833  0.00  0.00    +0.008 A 
ATOM     28  C   UNL     1      -4.221  -8.764   9.294  0.00  0.00    +0.038 A 
ATOM     29  C   UNL     1      -5.606  -9.387  11.173  0.00  0.00    +0.038 A 
ATOM     30  C   UNL     1      -5.475  -8.824   9.905  0.00  0.00    +0.123 A 
ENDBRANCH  22  25
ENDBRANCH   8  22
ENDBRANCH  16  18
ENDBRANCH  11  16
TORSDOF 7
ENDMDL
MODEL 3
REMARK VINA RESULT:      -6.7     24.794     28.347
REMARK  Name = 26742630
REMARK  10 active torsions:
REMARK  status: ('A' for Active; 'I' for Inactive)
REMARK    1  A    between atoms: S_1  and  N_7
REMARK    2  A    between atoms: S_1  and  C_19
REMARK    3  A    between atoms: N_8  and  C_22
REMARK    4  A    between atoms: C_10  and  C_15
REMARK    5  A    between atoms: C_11  and  C_16
REMARK    6  A    between atoms: C_15  and  C_17
REMARK    7  A    between atoms: C_16  and  C_18
REMARK    8  A    between atoms: C_20  and  C_23
REMARK    9  A    between atoms: C_21  and  C_24
REMARK   10  A    between atoms: C_22  and  C_25
REMARK                            x       y       z     vdW  Elec       q    Type
REMARK                         _______ _______ _______ _____ _____    ______ ____
ROOT
ATOM      7  N   UNL     1      11.973   5.142  -1.426  0.00  0.00    -0.176 NA
ATOM     10  C   UNL     1      13.396   5.359   0.599  0.00  0.00    +0.008 C 
ATOM     11  C   UNL     1      12.231   6.086   1.313  0.00  0.00    +0.003 C 
ATOM     12  C   UNL     1      10.873   5.695   0.712  0.00  0.00    +0.021 C 
ATOM     13  C   UNL     1      13.304   5.589  -0.918  0.00  0.00    +0.113 C 
ATOM     14  C   UNL     1      10.851   5.898  -0.800  0.00  0.00    +0.110 C 
ENDROOT
BRANCH   7   1
ATOM      1  S   UNL     1      11.865   4.945  -3.126  0.00  0.00    +0.066 S 
ATOM      3  O   UNL     1      13.139   4.480  -3.628  0.00  0.00    -0.153 OA
ATOM      4  O   UNL     1      11.219   6.110  -3.691  0.00  0.00    -0.153 OA
BRANCH   1  19
ATOM      6  O   UNL     1       8.915   2.361  -3.606  0.00  0.00    -0.358 OA
ATOM      9  N   UNL     1       9.823   1.521  -2.975  0.00  0.00    -0.081 NA
ATOM     19  C   UNL     1      10.727   3.598  -3.208  0.00  0.00    +0.170 A 
ATOM     20  C   UNL     1       9.465   3.595  -3.739  0.00  0.00    +0.161 A 
ATOM     21  C   UNL     1      10.897   2.282  -2.746  0.00  0.00    +0.107 A 
ATOM     23  C   UNL     1       8.628   4.613  -4.391  0.00  0.00    +0.091 C 
ATOM     24  C   UNL     1      12.073   1.698  -2.078  0.00  0.00    +0.071 C 
ENDBRANCH   1  19
ENDBRANCH   7   1
BRANCH  10  15
ATOM     15  C   UNL     1      13.484   3.860   0.912  0.00  0.00    +0.002 C 
ATOM     17  C   UNL     1      14.835   3.502   1.493  0.00  0.00    +0.004 C 
ENDBRANCH  10  15
BRANCH  11  16
ATOM     16  C   UNL     1      12.231   5.878   2.827  0.00  0.00    +0.099 C 
BRANCH  16  18
ATOM      5  O   UNL     1      10.971   7.867   3.389  0.00  0.00    -0.276 OA
ATOM      8  N   UNL     1      10.334   5.821   4.287  0.00  0.00    -0.311 N 
ATOM     18  C   UNL     1      11.127   6.655   3.513  0.00  0.00    +0.214 C 
ATOM     31  H   UNL     1      10.548   4.829   4.335  0.00  0.00    +0.149 HD
BRANCH   8  22
ATOM     22  C   UNL     1       9.206   6.294   5.056  0.00  0.00    +0.139 C 
BRANCH  22  25
ATOM      2  F   UNL     1       9.566   4.768  10.468  0.00  0.00    -0.205 F 
ATOM     25  C   UNL     1       9.301   5.885   6.501  0.00  0.00    -0.030 A 
ATOM     26  C   UNL     1       8.940   6.785   7.506  0.00  0.00    +0.008 A 
ATOM     27  C   UNL     1       9.753   4.609   6.838  0.00  0.00    +0.008 A 
ATOM     28  C   UNL     1       9.029   6.407   8.845  0.00  0.00    +0.038 A 
ATOM     29  C   UNL     1       9.841   4.231   8.178  0.00  0.00    +0.038 A 
ATOM     30  C   UNL     1       9.479   5.130   9.182  0.00  0.00    +0.123 A 
ENDBRANCH  22  25
ENDBRANCH   8  22
ENDBRANCH  16  18
ENDBRANCH  11  16
TORSDOF 7
ENDMDL
MODEL 4
REMARK VINA RESULT:      -6.7      1.110      1.904
REMARK  Name = 26742630
REMARK  10 active torsions:
REMARK  status: ('A' for Active; 'I' for Inactive)
REMARK    1  A    between atoms: S_1  and  N_7
REMARK    2  A    between atoms: S_1  and  C_19
REMARK    3  A    between atoms: N_8  and  C_22
REMARK    4  A    between atoms: C_10  and  C_15
REMARK    5  A    between atoms: C_11  and  C_16
REMARK    6  A    between atoms: C_15  and  C_17
REMARK    7  A    between atoms: C_16  and  C_18
REMARK    8  A    between atoms: C_20  and  C_23
REMARK    9  A    between atoms: C_21  and  C_24
REMARK   10  A    between atoms: C_22  and  C_25
REMARK                            x       y       z     vdW  Elec       q    Type
REMARK                         _______ _______ _______ _____ _____    ______ ____
ROOT
ATOM      7  N   UNL     1      -7.272 -11.028  16.102  0.00  0.00    -0.176 NA
ATOM     10  C   UNL     1      -5.130 -11.917  15.212  0.00  0.00    +0.008 C 
ATOM     11  C   UNL     1      -4.441 -10.587  15.600  0.00  0.00    +0.003 C 
ATOM     12  C   UNL     1      -5.183  -9.885  16.748  0.00  0.00    +0.021 C 
ATOM     13  C   UNL     1      -6.619 -11.670  14.923  0.00  0.00    +0.113 C 
ATOM     14  C   UNL     1      -6.664  -9.706  16.428  0.00  0.00    +0.110 C 
ENDROOT
BRANCH   7   1
ATOM      1  S   UNL     1      -8.986 -11.065  16.103  0.00  0.00    +0.066 S 
ATOM      3  O   UNL     1      -9.428 -12.379  15.690  0.00  0.00    -0.153 OA
ATOM      4  O   UNL     1      -9.480  -9.872  15.451  0.00  0.00    -0.153 OA
BRANCH   1  19
ATOM      6  O   UNL     1     -10.144 -10.278  19.797  0.00  0.00    -0.358 OA
ATOM      9  N   UNL     1      -9.152 -11.206  20.086  0.00  0.00    -0.081 NA
ATOM     19  C   UNL     1      -9.297 -10.908  17.833  0.00  0.00    +0.170 A 
ATOM     20  C   UNL     1     -10.220 -10.109  18.452  0.00  0.00    +0.161 A 
ATOM     21  C   UNL     1      -8.660 -11.569  18.898  0.00  0.00    +0.107 A 
ATOM     23  C   UNL     1     -11.227  -9.151  17.973  0.00  0.00    +0.091 C 
ATOM     24  C   UNL     1      -7.572 -12.560  18.833  0.00  0.00    +0.071 C 
ENDBRANCH   1  19
ENDBRANCH   7   1
BRANCH  10  15
ATOM     15  C   UNL     1      -4.960 -13.035  16.249  0.00  0.00    +0.002 C 
ATOM     17  C   UNL     1      -4.468 -14.312  15.601  0.00  0.00    +0.004 C 
ENDBRANCH  10  15
BRANCH  11  16
ATOM     16  C   UNL     1      -2.959 -10.753  15.938  0.00  0.00    +0.099 C 
BRANCH  16  18
ATOM      5  O   UNL     1      -1.355 -12.054  14.676  0.00  0.00    -0.276 OA
ATOM      8  N   UNL     1      -2.360 -10.207  13.685  0.00  0.00    -0.311 N 
ATOM     18  C   UNL     1      -2.129 -11.101  14.721  0.00  0.00    +0.214 C 
ATOM     31  H   UNL     1      -3.014  -9.441  13.821  0.00  0.00    +0.149 HD
BRANCH   8  22
ATOM     22  C   UNL     1      -1.700 -10.296  12.403  0.00  0.00    +0.139 C 
BRANCH  22  25
ATOM      2  F   UNL     1      -5.389 -10.616   8.157  0.00  0.00    -0.205 F 
ATOM     25  C   UNL     1      -2.686 -10.380  11.270  0.00  0.00    -0.030 A 
ATOM     26  C   UNL     1      -3.359 -11.577  11.018  0.00  0.00    +0.008 A 
ATOM     27  C   UNL     1      -2.926  -9.264  10.468  0.00  0.00    +0.008 A 
ATOM     28  C   UNL     1      -4.272 -11.656   9.967  0.00  0.00    +0.038 A 
ATOM     29  C   UNL     1      -3.841  -9.343   9.418  0.00  0.00    +0.038 A 
ATOM     30  C   UNL     1      -4.513 -10.539   9.167  0.00  0.00    +0.123 A 
ENDBRANCH  22  25
ENDBRANCH   8  22
ENDBRANCH  16  18
ENDBRANCH  11  16
TORSDOF 7
ENDMDL
MODEL 5
REMARK VINA RESULT:      -6.7      4.248      8.434
REMARK  Name = 26742630
REMARK  10 active torsions:
REMARK  status: ('A' for Active; 'I' for Inactive)
REMARK    1  A    between atoms: S_1  and  N_7
REMARK    2  A    between atoms: S_1  and  C_19
REMARK    3  A    between atoms: N_8  and  C_22
REMARK    4  A    between atoms: C_10  and  C_15
REMARK    5  A    between atoms: C_11  and  C_16
REMARK    6  A    between atoms: C_15  and  C_17
REMARK    7  A    between atoms: C_16  and  C_18
REMARK    8  A    between atoms: C_20  and  C_23
REMARK    9  A    between atoms: C_21  and  C_24
REMARK   10  A    between atoms: C_22  and  C_25
REMARK                            x       y       z     vdW  Elec       q    Type
REMARK                         _______ _______ _______ _____ _____    ______ ____
ROOT
ATOM      7  N   UNL     1      -5.113 -11.799  10.376  0.00  0.00    -0.176 NA
ATOM     10  C   UNL     1      -3.987  -9.901  11.519  0.00  0.00    +0.008 C 
ATOM     11  C   UNL     1      -3.268 -10.913  12.443  0.00  0.00    +0.003 C 
ATOM     12  C   UNL     1      -3.142 -12.291  11.776  0.00  0.00    +0.021 C 
ATOM     13  C   UNL     1      -5.330 -10.485  11.050  0.00  0.00    +0.113 C 
ATOM     14  C   UNL     1      -4.495 -12.801  11.290  0.00  0.00    +0.110 C 
ENDROOT
BRANCH   7   1
ATOM      1  S   UNL     1      -6.433 -12.372   9.445  0.00  0.00    +0.066 S 
ATOM      3  O   UNL     1      -7.667 -11.906  10.039  0.00  0.00    -0.153 OA
ATOM      4  O   UNL     1      -6.227 -13.774   9.154  0.00  0.00    -0.153 OA
BRANCH   1  19
ATOM      6  O   UNL     1      -5.350 -10.753   6.007  0.00  0.00    -0.358 OA
ATOM      9  N   UNL     1      -6.428  -9.925   6.293  0.00  0.00    -0.081 NA
ATOM     19  C   UNL     1      -6.174 -11.464   7.953  0.00  0.00    +0.170 A 
ATOM     20  C   UNL     1      -5.208 -11.664   7.004  0.00  0.00    +0.161 A 
ATOM     21  C   UNL     1      -6.905 -10.369   7.459  0.00  0.00    +0.107 A 
ATOM     23  C   UNL     1      -4.104 -12.622   6.857  0.00  0.00    +0.091 C 
ATOM     24  C   UNL     1      -8.072  -9.707   8.067  0.00  0.00    +0.071 C 
ENDBRANCH   1  19
ENDBRANCH   7   1
BRANCH  10  15
ATOM     15  C   UNL     1      -3.149  -9.446  10.317  0.00  0.00    +0.002 C 
ATOM     17  C   UNL     1      -4.019  -8.810   9.254  0.00  0.00    +0.004 C 
ENDBRANCH  10  15
BRANCH  11  16
ATOM     16  C   UNL     1      -1.903 -10.421  12.926  0.00  0.00    +0.099 C 
BRANCH  16  18
ATOM      5  O   UNL     1      -0.960  -9.666  15.023  0.00  0.00    -0.276 OA
ATOM      8  N   UNL     1      -2.910 -10.930  15.038  0.00  0.00    -0.311 N 
ATOM     18  C   UNL     1      -1.845 -10.279  14.432  0.00  0.00    +0.214 C 
ATOM     31  H   UNL     1      -3.590 -11.420  14.463  0.00  0.00    +0.149 HD
BRANCH   8  22
ATOM     22  C   UNL     1      -3.105 -10.961  16.469  0.00  0.00    +0.139 C 
BRANCH  22  25
ATOM      2  F   UNL     1      -8.360  -9.522  17.904  0.00  0.00    -0.205 F 
ATOM     25  C   UNL     1      -4.508 -10.576  16.852  0.00  0.00    -0.030 A 
ATOM     26  C   UNL     1      -4.974 -10.829  18.143  0.00  0.00    +0.008 A 
ATOM     27  C   UNL     1      -5.346  -9.966  15.917  0.00  0.00    +0.008 A 
ATOM     28  C   UNL     1      -6.274 -10.473  18.499  0.00  0.00    +0.038 A 
ATOM     29  C   UNL     1      -6.646  -9.609  16.273  0.00  0.00    +0.038 A 
ATOM     30  C   UNL     1      -7.111  -9.862  17.563  0.00  0.00    +0.123 A 
ENDBRANCH  22  25
ENDBRANCH   8  22
ENDBRANCH  16  18
ENDBRANCH  11  16
TORSDOF 7
ENDMDL
MODEL 6
REMARK VINA RESULT:      -6.6      4.290      8.739
REMARK  Name = 26742630
REMARK  10 active torsions:
REMARK  status: ('A' for Active; 'I' for Inactive)
REMARK    1  A    between atoms: S_1  and  N_7
REMARK    2  A    between atoms: S_1  and  C_19
REMARK    3  A    between atoms: N_8  and  C_22
REMARK    4  A    between atoms: C_10  and  C_15
REMARK    5  A    between atoms: C_11  and  C_16
REMARK    6  A    between atoms: C_15  and  C_17
REMARK    7  A    between atoms: C_16  and  C_18
REMARK    8  A    between atoms: C_20  and  C_23
REMARK    9  A    between atoms: C_21  and  C_24
REMARK   10  A    between atoms: C_22  and  C_25
REMARK                            x       y       z     vdW  Elec       q    Type
REMARK                         _______ _______ _______ _____ _____    ______ ____
ROOT
ATOM      7  N   UNL     1      -4.847 -11.931  10.330  0.00  0.00    -0.176 NA
ATOM     10  C   UNL     1      -3.979  -9.926  11.513  0.00  0.00    +0.008 C 
ATOM     11  C   UNL     1      -3.209 -10.857  12.481  0.00  0.00    +0.003 C 
ATOM     12  C   UNL     1      -2.910 -12.217  11.832  0.00  0.00    +0.021 C 
ATOM     13  C   UNL     1      -5.231 -10.644  10.982  0.00  0.00    +0.113 C 
ATOM     14  C   UNL     1      -4.177 -12.864  11.282  0.00  0.00    +0.110 C 
ENDROOT
BRANCH   7   1
ATOM      1  S   UNL     1      -6.053 -12.639   9.338  0.00  0.00    +0.066 S 
ATOM      3  O   UNL     1      -7.351 -12.157   9.758  0.00  0.00    -0.153 OA
ATOM      4  O   UNL     1      -5.786 -14.055   9.215  0.00  0.00    -0.153 OA
BRANCH   1  19
ATOM      6  O   UNL     1      -5.672 -10.509   6.032  0.00  0.00    -0.358 OA
ATOM      9  N   UNL     1      -4.670 -11.441   5.792  0.00  0.00    -0.081 NA
ATOM     19  C   UNL     1      -5.666 -11.876   7.794  0.00  0.00    +0.170 A 
ATOM     20  C   UNL     1      -6.258 -10.779   7.226  0.00  0.00    +0.161 A 
ATOM     21  C   UNL     1      -4.685 -12.247   6.858  0.00  0.00    +0.107 A 
ATOM     23  C   UNL     1      -7.348  -9.882   7.633  0.00  0.00    +0.091 C 
ATOM     24  C   UNL     1      -3.733 -13.368   6.936  0.00  0.00    +0.071 C 
ENDBRANCH   1  19
ENDBRANCH   7   1
BRANCH  10  15
ATOM     15  C   UNL     1      -3.132  -9.391  10.352  0.00  0.00    +0.002 C 
ATOM     17  C   UNL     1      -4.005  -8.802   9.265  0.00  0.00    +0.004 C 
ENDBRANCH  10  15
BRANCH  11  16
ATOM     16  C   UNL     1      -1.928 -10.227  13.028  0.00  0.00    +0.099 C 
BRANCH  16  18
ATOM      5  O   UNL     1      -0.853 -10.012  15.186  0.00  0.00    -0.276 OA
ATOM      8  N   UNL     1      -3.078 -10.676  15.079  0.00  0.00    -0.311 N 
ATOM     18  C   UNL     1      -1.863 -10.282  14.539  0.00  0.00    +0.214 C 
ATOM     31  H   UNL     1      -3.855 -10.888  14.461  0.00  0.00    +0.149 HD
BRANCH   8  22
ATOM     22  C   UNL     1      -3.302 -10.817  16.500  0.00  0.00    +0.139 C 
BRANCH  22  25
ATOM      2  F   UNL     1      -8.581  -9.466  17.934  0.00  0.00    -0.205 F 
ATOM     25  C   UNL     1      -4.713 -10.457  16.883  0.00  0.00    -0.030 A 
ATOM     26  C   UNL     1      -5.576  -9.908  15.933  0.00  0.00    +0.008 A 
ATOM     27  C   UNL     1      -5.158 -10.671  18.188  0.00  0.00    +0.008 A 
ATOM     28  C   UNL     1      -6.882  -9.574  16.288  0.00  0.00    +0.038 A 
ATOM     29  C   UNL     1      -6.465 -10.337  18.542  0.00  0.00    +0.038 A 
ATOM     30  C   UNL     1      -7.327  -9.789  17.593  0.00  0.00    +0.123 A 
ENDBRANCH  22  25
ENDBRANCH   8  22
ENDBRANCH  16  18
ENDBRANCH  11  16
TORSDOF 7
ENDMDL
MODEL 7
REMARK VINA RESULT:      -6.6      1.867      2.763
REMARK  Name = 26742630
REMARK  10 active torsions:
REMARK  status: ('A' for Active; 'I' for Inactive)
REMARK    1  A    between atoms: S_1  and  N_7
REMARK    2  A    between atoms: S_1  and  C_19
REMARK    3  A    between atoms: N_8  and  C_22
REMARK    4  A    between atoms: C_10  and  C_15
REMARK    5  A    between atoms: C_11  and  C_16
REMARK    6  A    between atoms: C_15  and  C_17
REMARK    7  A    between atoms: C_16  and  C_18
REMARK    8  A    between atoms: C_20  and  C_23
REMARK    9  A    between atoms: C_21  and  C_24
REMARK   10  A    between atoms: C_22  and  C_25
REMARK                            x       y       z     vdW  Elec       q    Type
REMARK                         _______ _______ _______ _____ _____    ______ ____
ROOT
ATOM      7  N   UNL     1      -7.207 -10.761  17.186  0.00  0.00    -0.176 NA
ATOM     10  C   UNL     1      -5.012 -11.902  17.409  0.00  0.00    +0.008 C 
ATOM     11  C   UNL     1      -4.447 -10.987  16.296  0.00  0.00    +0.003 C 
ATOM     12  C   UNL     1      -5.224  -9.665  16.209  0.00  0.00    +0.021 C 
ATOM     13  C   UNL     1      -6.525 -12.089  17.215  0.00  0.00    +0.113 C 
ATOM     14  C   UNL     1      -6.723  -9.907  16.064  0.00  0.00    +0.110 C 
ENDROOT
BRANCH   7   1
ATOM      1  S   UNL     1      -8.908 -10.806  17.392  0.00  0.00    +0.066 S 
ATOM      3  O   UNL     1      -9.312  -9.695  18.225  0.00  0.00    -0.153 OA
ATOM      4  O   UNL     1      -9.306 -12.161  17.709  0.00  0.00    -0.153 OA
BRANCH   1  19
ATOM      6  O   UNL     1      -9.909 -10.659  13.572  0.00  0.00    -0.358 OA
ATOM      9  N   UNL     1     -10.222  -9.350  13.917  0.00  0.00    -0.081 NA
ATOM     19  C   UNL     1      -9.427 -10.460  15.740  0.00  0.00    +0.170 A 
ATOM     20  C   UNL     1      -9.436 -11.309  14.666  0.00  0.00    +0.161 A 
ATOM     21  C   UNL     1      -9.926  -9.255  15.216  0.00  0.00    +0.107 A 
ATOM     23  C   UNL     1      -9.053 -12.715  14.472  0.00  0.00    +0.091 C 
ATOM     24  C   UNL     1     -10.140  -7.978  15.919  0.00  0.00    +0.071 C 
ENDBRANCH   1  19
ENDBRANCH   7   1
BRANCH  10  15
ATOM     15  C   UNL     1      -4.707 -11.418  18.833  0.00  0.00    +0.002 C 
ATOM     17  C   UNL     1      -3.669 -12.297  19.498  0.00  0.00    +0.004 C 
ENDBRANCH  10  15
BRANCH  11  16
ATOM     16  C   UNL     1      -2.948 -10.723  16.439  0.00  0.00    +0.099 C 
BRANCH  16  18
ATOM      5  O   UNL     1      -1.208  -9.974  14.932  0.00  0.00    -0.276 OA
ATOM      8  N   UNL     1      -2.974 -11.235  14.100  0.00  0.00    -0.311 N 
ATOM     18  C   UNL     1      -2.260 -10.587  15.097  0.00  0.00    +0.214 C 
ATOM     31  H   UNL     1      -3.843 -11.708  14.333  0.00  0.00    +0.149 HD
BRANCH   8  22
ATOM     22  C   UNL     1      -2.552 -11.266  12.718  0.00  0.00    +0.139 C 
BRANCH  22  25
ATOM      2  F   UNL     1      -5.600  -7.778   9.511  0.00  0.00    -0.205 F 
ATOM     25  C   UNL     1      -3.366 -10.335  11.862  0.00  0.00    -0.030 A 
ATOM     26  C   UNL     1      -2.830  -9.826  10.678  0.00  0.00    +0.008 A 
ATOM     27  C   UNL     1      -4.658  -9.978  12.251  0.00  0.00    +0.008 A 
ATOM     28  C   UNL     1      -3.584  -8.963   9.884  0.00  0.00    +0.038 A 
ATOM     29  C   UNL     1      -5.413  -9.115  11.456  0.00  0.00    +0.038 A 
ATOM     30  C   UNL     1      -4.876  -8.608  10.273  0.00  0.00    +0.123 A 
ENDBRANCH  22  25
ENDBRANCH   8  22
ENDBRANCH  16  18
ENDBRANCH  11  16
TORSDOF 7
ENDMDL
MODEL 8
REMARK VINA RESULT:      -6.5     26.430     29.040
REMARK  Name = 26742630
REMARK  10 active torsions:
REMARK  status: ('A' for Active; 'I' for Inactive)
REMARK    1  A    between atoms: S_1  and  N_7
REMARK    2  A    between atoms: S_1  and  C_19
REMARK    3  A    between atoms: N_8  and  C_22
REMARK    4  A    between atoms: C_10  and  C_15
REMARK    5  A    between atoms: C_11  and  C_16
REMARK    6  A    between atoms: C_15  and  C_17
REMARK    7  A    between atoms: C_16  and  C_18
REMARK    8  A    between atoms: C_20  and  C_23
REMARK    9  A    between atoms: C_21  and  C_24
REMARK   10  A    between atoms: C_22  and  C_25
REMARK                            x       y       z     vdW  Elec       q    Type
REMARK                         _______ _______ _______ _____ _____    ______ ____
ROOT
ATOM      7  N   UNL     1      11.453   5.045  -0.438  0.00  0.00    -0.176 NA
ATOM     10  C   UNL     1      12.452   5.022   1.836  0.00  0.00    +0.008 C 
ATOM     11  C   UNL     1      11.037   5.207   2.436  0.00  0.00    +0.003 C 
ATOM     12  C   UNL     1       9.951   4.681   1.486  0.00  0.00    +0.021 C 
ATOM     13  C   UNL     1      12.510   5.642   0.431  0.00  0.00    +0.113 C 
ATOM     14  C   UNL     1      10.083   5.293   0.094  0.00  0.00    +0.110 C 
ENDROOT
BRANCH   7   1
ATOM      1  S   UNL     1      11.646   5.318  -2.120  0.00  0.00    +0.066 S 
ATOM      3  O   UNL     1      13.007   5.003  -2.495  0.00  0.00    -0.153 OA
ATOM      4  O   UNL     1      11.054   6.594  -2.458  0.00  0.00    -0.153 OA
BRANCH   1  19
ATOM      6  O   UNL     1       8.902   2.968  -3.720  0.00  0.00    -0.358 OA
ATOM      9  N   UNL     1       9.809   1.990  -3.332  0.00  0.00    -0.081 NA
ATOM     19  C   UNL     1      10.601   4.047  -2.760  0.00  0.00    +0.170 A 
ATOM     20  C   UNL     1       9.385   4.189  -3.373  0.00  0.00    +0.161 A 
ATOM     21  C   UNL     1      10.815   2.658  -2.761  0.00  0.00    +0.107 A 
ATOM     23  C   UNL     1       8.540   5.342  -3.713  0.00  0.00    +0.091 C 
ATOM     24  C   UNL     1      11.971   1.916  -2.227  0.00  0.00    +0.071 C 
ENDBRANCH   1  19
ENDBRANCH   7   1
BRANCH  10  15
ATOM     15  C   UNL     1      12.931   3.565   1.802  0.00  0.00    +0.002 C 
ATOM     17  C   UNL     1      14.420   3.485   1.539  0.00  0.00    +0.004 C 
ENDBRANCH  10  15
BRANCH  11  16
ATOM     16  C   UNL     1      10.887   4.585   3.824  0.00  0.00    +0.099 C 
BRANCH  16  18
ATOM      5  O   UNL     1       9.517   6.081   5.144  0.00  0.00    -0.276 OA
ATOM      8  N   UNL     1      11.806   5.984   5.536  0.00  0.00    -0.311 N 
ATOM     18  C   UNL     1      10.630   5.625   4.894  0.00  0.00    +0.214 C 
ATOM     31  H   UNL     1      12.682   5.557   5.251  0.00  0.00    +0.149 HD
BRANCH   8  22
ATOM     22  C   UNL     1      11.858   6.961   6.599  0.00  0.00    +0.139 C 
BRANCH  22  25
ATOM      2  F   UNL     1      16.466  10.185   6.261  0.00  0.00    -0.205 F 
ATOM     25  C   UNL     1      13.089   7.822   6.510  0.00  0.00    -0.030 A 
ATOM     26  C   UNL     1      12.983   9.208   6.639  0.00  0.00    +0.008 A 
ATOM     27  C   UNL     1      14.338   7.235   6.296  0.00  0.00    +0.008 A 
ATOM     28  C   UNL     1      14.124  10.005   6.555  0.00  0.00    +0.038 A 
ATOM     29  C   UNL     1      15.478   8.034   6.213  0.00  0.00    +0.038 A 
ATOM     30  C   UNL     1      15.372   9.419   6.343  0.00  0.00    +0.123 A 
ENDBRANCH  22  25
ENDBRANCH   8  22
ENDBRANCH  16  18
ENDBRANCH  11  16
TORSDOF 7
ENDMDL
MODEL 9
REMARK VINA RESULT:      -6.4      3.296      7.653
REMARK  Name = 26742630
REMARK  10 active torsions:
REMARK  status: ('A' for Active; 'I' for Inactive)
REMARK    1  A    between atoms: S_1  and  N_7
REMARK    2  A    between atoms: S_1  and  C_19
REMARK    3  A    between atoms: N_8  and  C_22
REMARK    4  A    between atoms: C_10  and  C_15
REMARK    5  A    between atoms: C_11  and  C_16
REMARK    6  A    between atoms: C_15  and  C_17
REMARK    7  A    between atoms: C_16  and  C_18
REMARK    8  A    between atoms: C_20  and  C_23
REMARK    9  A    between atoms: C_21  and  C_24
REMARK   10  A    between atoms: C_22  and  C_25
REMARK                            x       y       z     vdW  Elec       q    Type
REMARK                         _______ _______ _______ _____ _____    ______ ____
ROOT
ATOM      7  N   UNL     1      -3.967 -12.098  14.271  0.00  0.00    -0.176 NA
ATOM     10  C   UNL     1      -3.783 -10.567  16.218  0.00  0.00    +0.008 C 
ATOM     11  C   UNL     1      -4.797 -11.452  16.983  0.00  0.00    +0.003 C 
ATOM     12  C   UNL     1      -4.790 -12.896  16.456  0.00  0.00    +0.021 C 
ATOM     13  C   UNL     1      -4.035 -10.672  14.705  0.00  0.00    +0.113 C 
ATOM     14  C   UNL     1      -4.997 -12.939  14.945  0.00  0.00    +0.110 C 
ENDROOT
BRANCH   7   1
ATOM      1  S   UNL     1      -3.812 -12.343  12.581  0.00  0.00    +0.066 S 
ATOM      3  O   UNL     1      -4.605 -13.491  12.197  0.00  0.00    -0.153 OA
ATOM      4  O   UNL     1      -2.415 -12.247  12.220  0.00  0.00    -0.153 OA
BRANCH   1  19
ATOM      6  O   UNL     1      -6.183  -9.368  11.514  0.00  0.00    -0.358 OA
ATOM      9  N   UNL     1      -4.996  -8.888  10.976  0.00  0.00    -0.081 NA
ATOM     19  C   UNL     1      -4.629 -10.897  11.984  0.00  0.00    +0.170 A 
ATOM     20  C   UNL     1      -5.952 -10.566  12.111  0.00  0.00    +0.161 A 
ATOM     21  C   UNL     1      -4.083  -9.817  11.270  0.00  0.00    +0.107 A 
ATOM     23  C   UNL     1      -7.113 -11.217  12.734  0.00  0.00    +0.091 C 
ATOM     24  C   UNL     1      -2.686  -9.625  10.841  0.00  0.00    +0.071 C 
ENDBRANCH   1  19
ENDBRANCH   7   1
BRANCH  10  15
ATOM     15  C   UNL     1      -2.315 -10.872  16.543  0.00  0.00    +0.002 C 
ATOM     17  C   UNL     1      -1.384 -10.160  15.585  0.00  0.00    +0.004 C 
ENDBRANCH  10  15
BRANCH  11  16
ATOM     16  C   UNL     1      -4.591 -11.431  18.497  0.00  0.00    +0.099 C 
BRANCH  16  18
ATOM      5  O   UNL     1      -5.974 -11.124  20.460  0.00  0.00    -0.276 OA
ATOM      8  N   UNL     1      -6.982 -11.526  18.405  0.00  0.00    -0.311 N 
ATOM     18  C   UNL     1      -5.900 -11.337  19.252  0.00  0.00    +0.214 C 
ATOM     31  H   UNL     1      -6.819 -11.706  17.418  0.00  0.00    +0.149 HD
BRANCH   8  22
ATOM     22  C   UNL     1      -8.354 -11.492  18.856  0.00  0.00    +0.139 C 
BRANCH  22  25
ATOM      2  F   UNL     1     -11.153  -7.083  16.742  0.00  0.00    -0.205 F 
ATOM     25  C   UNL     1      -9.101 -10.314  18.292  0.00  0.00    -0.030 A 
ATOM     26  C   UNL     1     -10.451 -10.132  18.597  0.00  0.00    +0.008 A 
ATOM     27  C   UNL     1      -8.445  -9.403  17.463  0.00  0.00    +0.008 A 
ATOM     28  C   UNL     1     -11.143  -9.041  18.074  0.00  0.00    +0.038 A 
ATOM     29  C   UNL     1      -9.139  -8.311  16.940  0.00  0.00    +0.038 A 
ATOM     30  C   UNL     1     -10.487  -8.130  17.245  0.00  0.00    +0.123 A 
ENDBRANCH  22  25
ENDBRANCH   8  22
ENDBRANCH  16  18
ENDBRANCH  11  16
TORSDOF 7
ENDMDL
MODEL 10
REMARK VINA RESULT:      -6.4     25.640     28.342
REMARK  Name = 26742630
REMARK  10 active torsions:
REMARK  status: ('A' for Active; 'I' for Inactive)
REMARK    1  A    between atoms: S_1  and  N_7
REMARK    2  A    between atoms: S_1  and  C_19
REMARK    3  A    between atoms: N_8  and  C_22
REMARK    4  A    between atoms: C_10  and  C_15
REMARK    5  A    between atoms: C_11  and  C_16
REMARK    6  A    between atoms: C_15  and  C_17
REMARK    7  A    between atoms: C_16  and  C_18
REMARK    8  A    between atoms: C_20  and  C_23
REMARK    9  A    between atoms: C_21  and  C_24
REMARK   10  A    between atoms: C_22  and  C_25
REMARK                            x       y       z     vdW  Elec       q    Type
REMARK                         _______ _______ _______ _____ _____    ______ ____
ROOT
ATOM      7  N   UNL     1      11.476   5.000  -0.469  0.00  0.00    -0.176 NA
ATOM     10  C   UNL     1      12.454   4.873   1.811  0.00  0.00    +0.008 C 
ATOM     11  C   UNL     1      11.024   4.906   2.402  0.00  0.00    +0.003 C 
ATOM     12  C   UNL     1       9.989   4.377   1.398  0.00  0.00    +0.021 C 
ATOM     13  C   UNL     1      12.477   5.604   0.459  0.00  0.00    +0.113 C 
ATOM     14  C   UNL     1      10.087   5.104   0.061  0.00  0.00    +0.110 C 
ENDROOT
BRANCH   7   1
ATOM      1  S   UNL     1      11.664   5.418  -2.121  0.00  0.00    +0.066 S 
ATOM      3  O   UNL     1      13.014   5.105  -2.536  0.00  0.00    -0.153 OA
ATOM      4  O   UNL     1      11.101   6.733  -2.338  0.00  0.00    -0.153 OA
BRANCH   1  19
ATOM      6  O   UNL     1       8.873   3.292  -3.940  0.00  0.00    -0.358 OA
ATOM      9  N   UNL     1       9.711   2.251  -3.561  0.00  0.00    -0.081 NA
ATOM     19  C   UNL     1      10.582   4.235  -2.862  0.00  0.00    +0.170 A 
ATOM     20  C   UNL     1       9.403   4.469  -3.517  0.00  0.00    +0.161 A 
ATOM     21  C   UNL     1      10.724   2.838  -2.919  0.00  0.00    +0.107 A 
ATOM     23  C   UNL     1       8.635   5.680  -3.837  0.00  0.00    +0.091 C 
ATOM     24  C   UNL     1      11.815   2.012  -2.373  0.00  0.00    +0.071 C 
ENDBRANCH   1  19
ENDBRANCH   7   1
BRANCH  10  15
ATOM     15  C   UNL     1      13.041   3.462   1.671  0.00  0.00    +0.002 C 
ATOM     17  C   UNL     1      14.551   3.505   1.582  0.00  0.00    +0.004 C 
ENDBRANCH  10  15
BRANCH  11  16
ATOM     16  C   UNL     1      10.908   4.167   3.736  0.00  0.00    +0.099 C 
BRANCH  16  18
ATOM      5  O   UNL     1       9.793   4.511   5.856  0.00  0.00    -0.276 OA
ATOM      8  N   UNL     1       9.871   6.247   4.313  0.00  0.00    -0.311 N 
ATOM     18  C   UNL     1      10.135   4.962   4.767  0.00  0.00    +0.214 C 
ATOM     31  H   UNL     1      10.188   6.526   3.389  0.00  0.00    +0.149 HD
BRANCH   8  22
ATOM     22  C   UNL     1       9.146   7.225   5.090  0.00  0.00    +0.139 C 
BRANCH  22  25
ATOM      2  F   UNL     1       6.316  10.830   1.812  0.00  0.00    -0.205 F 
ATOM     25  C   UNL     1       8.389   8.187   4.215  0.00  0.00    -0.030 A 
ATOM     26  C   UNL     1       8.509   8.110   2.826  0.00  0.00    +0.008 A 
ATOM     27  C   UNL     1       7.569   9.158   4.791  0.00  0.00    +0.008 A 
ATOM     28  C   UNL     1       7.808   9.002   2.016  0.00  0.00    +0.038 A 
ATOM     29  C   UNL     1       6.868  10.050   3.979  0.00  0.00    +0.038 A 
ATOM     30  C   UNL     1       6.987   9.972   2.592  0.00  0.00    +0.123 A 
ENDBRANCH  22  25
ENDBRANCH   8  22
ENDBRANCH  16  18
ENDBRANCH  11  16
TORSDOF 7
ENDMDL
