MODEL 1
REMARK VINA RESULT:      -5.8      0.000      0.000
REMARK  Name = 28961576
REMARK  9 active torsions:
REMARK  status: ('A' for Active; 'I' for Inactive)
REMARK    1  A    between atoms: O_2  and  C_8
REMARK    2  A    between atoms: O_3  and  C_15
REMARK    3  A    between atoms: N_4  and  C_6
REMARK    4  A    between atoms: N_5  and  C_14
REMARK    5  A    between atoms: N_5  and  C_16
REMARK    6  A    between atoms: C_7  and  C_14
REMARK    7  A    between atoms: C_9  and  C_15
REMARK    8  A    between atoms: C_16  and  C_17
REMARK    9  A    between atoms: C_16  and  C_18
REMARK                            x       y       z     vdW  Elec       q    Type
REMARK                         _______ _______ _______ _____ _____    ______ ____
ROOT
ATOM      1  O   UNL     1      11.366   7.459  19.941  0.00  0.00    -0.366 OA
ATOM      6  C   UNL     1      13.261   8.646  20.756  0.00  0.00    +0.118 C 
ATOM      7  C   UNL     1      12.444   8.314  19.500  0.00  0.00    +0.152 C 
ATOM      8  C   UNL     1      12.984   7.461  21.669  0.00  0.00    +0.165 C 
ATOM      9  C   UNL     1      11.517   7.198  21.350  0.00  0.00    +0.174 C 
ENDROOT
BRANCH   6   4
ATOM      4  N   UNL     1      14.668   8.952  20.545  0.00  0.00    -0.295 NA
ATOM     10  C   UNL     1      14.873  10.295  20.004  0.00  0.00    +0.085 C 
ATOM     11  C   UNL     1      15.438   8.922  21.788  0.00  0.00    +0.085 C 
ATOM     12  C   UNL     1      16.358  10.533  20.234  0.00  0.00    +0.017 C 
ATOM     13  C   UNL     1      16.731   9.628  21.405  0.00  0.00    +0.017 C 
ENDBRANCH   6   4
BRANCH   8   2
ATOM      2  O   UNL     1      13.777   6.336  21.316  0.00  0.00    -0.388 OA
ATOM     19  H   UNL     1      14.170   5.985  22.133  0.00  0.00    +0.210 HD
ENDBRANCH   8   2
BRANCH   7  14
ATOM     14  C   UNL     1      13.176   7.580  18.383  0.00  0.00    +0.114 C 
BRANCH  14   5
ATOM      5  N   UNL     1      12.409   7.618  17.145  0.00  0.00    -0.311 NA
ATOM     20  H   UNL     1      12.982   7.231  16.396  0.00  0.00    +0.122 HD
BRANCH   5  16
ATOM     16  C   UNL     1      12.014   8.982  16.819  0.00  0.00    +0.048 C 
ATOM     17  C   UNL     1      10.722   8.978  16.007  0.00  0.00    +0.023 C 
ATOM     18  C   UNL     1      13.141   9.667  16.051  0.00  0.00    +0.023 C 
ENDBRANCH   5  16
ENDBRANCH  14   5
ENDBRANCH   7  14
BRANCH   9  15
ATOM     15  C   UNL     1      11.024   5.796  21.655  0.00  0.00    +0.190 C 
BRANCH  15   3
ATOM      3  O   UNL     1      11.115   5.010  20.477  0.00  0.00    -0.392 OA
ATOM     21  H   UNL     1      11.217   5.623  19.730  0.00  0.00    +0.210 HD
ENDBRANCH  15   3
ENDBRANCH   9  15
TORSDOF 7
ENDMDL
MODEL 2
REMARK VINA RESULT:      -5.8     15.701     18.517
REMARK  Name = 28961576
REMARK  9 active torsions:
REMARK  status: ('A' for Active; 'I' for Inactive)
REMARK    1  A    between atoms: O_2  and  C_8
REMARK    2  A    between atoms: O_3  and  C_15
REMARK    3  A    between atoms: N_4  and  C_6
REMARK    4  A    between atoms: N_5  and  C_14
REMARK    5  A    between atoms: N_5  and  C_16
REMARK    6  A    between atoms: C_7  and  C_14
REMARK    7  A    between atoms: C_9  and  C_15
REMARK    8  A    between atoms: C_16  and  C_17
REMARK    9  A    between atoms: C_16  and  C_18
REMARK                            x       y       z     vdW  Elec       q    Type
REMARK                         _______ _______ _______ _____ _____    ______ ____
ROOT
ATOM      1  O   UNL     1      -1.450   2.503  23.657  0.00  0.00    -0.366 OA
ATOM      6  C   UNL     1      -1.791   0.171  23.989  0.00  0.00    +0.118 C 
ATOM      7  C   UNL     1      -2.418   1.455  23.429  0.00  0.00    +0.152 C 
ATOM      8  C   UNL     1      -0.833   0.691  25.050  0.00  0.00    +0.165 C 
ATOM      9  C   UNL     1      -0.325   1.957  24.372  0.00  0.00    +0.174 C 
ENDROOT
BRANCH   6   4
ATOM      4  N   UNL     1      -2.721  -0.854  24.440  0.00  0.00    -0.295 NA
ATOM     10  C   UNL     1      -3.793  -1.099  23.477  0.00  0.00    +0.085 C 
ATOM     11  C   UNL     1      -2.073  -2.152  24.625  0.00  0.00    +0.085 C 
ATOM     12  C   UNL     1      -4.381  -2.421  23.948  0.00  0.00    +0.017 C 
ATOM     13  C   UNL     1      -3.252  -3.112  24.706  0.00  0.00    +0.017 C 
ENDBRANCH   6   4
BRANCH   8   2
ATOM      2  O   UNL     1      -1.516   1.014  26.254  0.00  0.00    -0.388 OA
ATOM     19  H   UNL     1      -1.737   0.180  26.701  0.00  0.00    +0.210 HD
ENDBRANCH   8   2
BRANCH   7  14
ATOM     14  C   UNL     1      -3.730   1.906  24.059  0.00  0.00    +0.114 C 
BRANCH  14   5
ATOM      5  N   UNL     1      -3.853   3.357  24.026  0.00  0.00    -0.311 NA
ATOM     20  H   UNL     1      -2.937   3.756  23.823  0.00  0.00    +0.122 HD
BRANCH   5  16
ATOM     16  C   UNL     1      -4.352   3.867  25.296  0.00  0.00    +0.048 C 
ATOM     17  C   UNL     1      -3.196   4.099  26.264  0.00  0.00    +0.023 C 
ATOM     18  C   UNL     1      -5.363   2.882  25.876  0.00  0.00    +0.023 C 
ENDBRANCH   5  16
ENDBRANCH  14   5
ENDBRANCH   7  14
BRANCH   9  15
ATOM     15  C   UNL     1       0.238   3.016  25.303  0.00  0.00    +0.190 C 
BRANCH  15   3
ATOM      3  O   UNL     1       0.811   2.376  26.433  0.00  0.00    -0.392 OA
ATOM     21  H   UNL     1       0.096   1.899  26.886  0.00  0.00    +0.210 HD
ENDBRANCH  15   3
ENDBRANCH   9  15
TORSDOF 7
ENDMDL
MODEL 3
REMARK VINA RESULT:      -5.5      2.405      3.236
REMARK  Name = 28961576
REMARK  9 active torsions:
REMARK  status: ('A' for Active; 'I' for Inactive)
REMARK    1  A    between atoms: O_2  and  C_8
REMARK    2  A    between atoms: O_3  and  C_15
REMARK    3  A    between atoms: N_4  and  C_6
REMARK    4  A    between atoms: N_5  and  C_14
REMARK    5  A    between atoms: N_5  and  C_16
REMARK    6  A    between atoms: C_7  and  C_14
REMARK    7  A    between atoms: C_9  and  C_15
REMARK    8  A    between atoms: C_16  and  C_17
REMARK    9  A    between atoms: C_16  and  C_18
REMARK                            x       y       z     vdW  Elec       q    Type
REMARK                         _______ _______ _______ _____ _____    ______ ____
ROOT
ATOM      1  O   UNL     1      11.082   7.893  19.996  0.00  0.00    -0.366 OA
ATOM      6  C   UNL     1      11.487   9.829  21.319  0.00  0.00    +0.118 C 
ATOM      7  C   UNL     1      11.546   9.257  19.897  0.00  0.00    +0.152 C 
ATOM      8  C   UNL     1      11.621   8.590  22.193  0.00  0.00    +0.165 C 
ATOM      9  C   UNL     1      10.817   7.584  21.378  0.00  0.00    +0.174 C 
ENDROOT
BRANCH   6   4
ATOM      4  N   UNL     1      12.420  10.904  21.620  0.00  0.00    -0.295 NA
ATOM     10  C   UNL     1      12.053  12.161  20.968  0.00  0.00    +0.085 C 
ATOM     11  C   UNL     1      12.470  11.218  23.048  0.00  0.00    +0.085 C 
ATOM     12  C   UNL     1      12.895  13.189  21.710  0.00  0.00    +0.017 C 
ATOM     13  C   UNL     1      13.172  12.568  23.076  0.00  0.00    +0.017 C 
ENDBRANCH   6   4
BRANCH   8   2
ATOM      2  O   UNL     1      12.975   8.172  22.299  0.00  0.00    -0.388 OA
ATOM     19  H   UNL     1      13.535   8.911  22.005  0.00  0.00    +0.210 HD
ENDBRANCH   8   2
BRANCH   7  14
ATOM     14  C   UNL     1      12.917   9.223  19.231  0.00  0.00    +0.114 C 
BRANCH  14   5
ATOM      5  N   UNL     1      13.464   7.873  19.236  0.00  0.00    -0.311 NA
ATOM     20  H   UNL     1      13.190   7.414  20.104  0.00  0.00    +0.122 HD
BRANCH   5  16
ATOM     16  C   UNL     1      14.916   7.900  19.122  0.00  0.00    +0.048 C 
ATOM     17  C   UNL     1      15.510   6.584  19.616  0.00  0.00    +0.023 C 
ATOM     18  C   UNL     1      15.466   9.081  19.915  0.00  0.00    +0.023 C 
ENDBRANCH   5  16
ENDBRANCH  14   5
ENDBRANCH   7  14
BRANCH   9  15
ATOM     15  C   UNL     1      11.144   6.125  21.636  0.00  0.00    +0.190 C 
BRANCH  15   3
ATOM      3  O   UNL     1      12.412   5.831  21.072  0.00  0.00    -0.392 OA
ATOM     21  H   UNL     1      12.283   5.725  20.115  0.00  0.00    +0.210 HD
ENDBRANCH  15   3
ENDBRANCH   9  15
TORSDOF 7
ENDMDL
MODEL 4
REMARK VINA RESULT:      -5.2     26.535     28.580
REMARK  Name = 28961576
REMARK  9 active torsions:
REMARK  status: ('A' for Active; 'I' for Inactive)
REMARK    1  A    between atoms: O_2  and  C_8
REMARK    2  A    between atoms: O_3  and  C_15
REMARK    3  A    between atoms: N_4  and  C_6
REMARK    4  A    between atoms: N_5  and  C_14
REMARK    5  A    between atoms: N_5  and  C_16
REMARK    6  A    between atoms: C_7  and  C_14
REMARK    7  A    between atoms: C_9  and  C_15
REMARK    8  A    between atoms: C_16  and  C_17
REMARK    9  A    between atoms: C_16  and  C_18
REMARK                            x       y       z     vdW  Elec       q    Type
REMARK                         _______ _______ _______ _____ _____    ______ ____
ROOT
ATOM      1  O   UNL     1     -16.328   5.504  23.008  0.00  0.00    -0.366 OA
ATOM      6  C   UNL     1     -14.334   6.478  22.146  0.00  0.00    +0.118 C 
ATOM      7  C   UNL     1     -15.853   6.372  21.955  0.00  0.00    +0.152 C 
ATOM      8  C   UNL     1     -13.987   5.181  22.862  0.00  0.00    +0.165 C 
ATOM      9  C   UNL     1     -15.202   5.028  23.770  0.00  0.00    +0.174 C 
ENDROOT
BRANCH   6   4
ATOM      4  N   UNL     1     -13.553   6.755  20.950  0.00  0.00    -0.295 NA
ATOM     10  C   UNL     1     -13.678   8.144  20.511  0.00  0.00    +0.085 C 
ATOM     11  C   UNL     1     -12.120   6.551  21.159  0.00  0.00    +0.085 C 
ATOM     12  C   UNL     1     -12.520   8.299  19.536  0.00  0.00    +0.017 C 
ATOM     13  C   UNL     1     -11.498   7.250  19.959  0.00  0.00    +0.017 C 
ENDBRANCH   6   4
BRANCH   8   2
ATOM      2  O   UNL     1     -13.908   4.091  21.954  0.00  0.00    -0.388 OA
ATOM     19  H   UNL     1     -14.739   3.592  22.020  0.00  0.00    +0.210 HD
ENDBRANCH   8   2
BRANCH   7  14
ATOM     14  C   UNL     1     -16.336   5.787  20.633  0.00  0.00    +0.114 C 
BRANCH  14   5
ATOM      5  N   UNL     1     -16.955   4.484  20.836  0.00  0.00    -0.311 NA
ATOM     20  H   UNL     1     -16.281   3.761  20.584  0.00  0.00    +0.122 HD
BRANCH   5  16
ATOM     16  C   UNL     1     -18.160   4.349  20.028  0.00  0.00    +0.048 C 
ATOM     17  C   UNL     1     -18.766   2.961  20.211  0.00  0.00    +0.023 C 
ATOM     18  C   UNL     1     -17.820   4.609  18.563  0.00  0.00    +0.023 C 
ENDBRANCH   5  16
ENDBRANCH  14   5
ENDBRANCH   7  14
BRANCH   9  15
ATOM     15  C   UNL     1     -15.483   3.617  24.251  0.00  0.00    +0.190 C 
BRANCH  15   3
ATOM      3  O   UNL     1     -16.002   2.858  23.170  0.00  0.00    -0.392 OA
ATOM     21  H   UNL     1     -15.984   3.429  22.384  0.00  0.00    +0.210 HD
ENDBRANCH  15   3
ENDBRANCH   9  15
TORSDOF 7
ENDMDL
MODEL 5
REMARK VINA RESULT:      -5.1      2.189      4.268
REMARK  Name = 28961576
REMARK  9 active torsions:
REMARK  status: ('A' for Active; 'I' for Inactive)
REMARK    1  A    between atoms: O_2  and  C_8
REMARK    2  A    between atoms: O_3  and  C_15
REMARK    3  A    between atoms: N_4  and  C_6
REMARK    4  A    between atoms: N_5  and  C_14
REMARK    5  A    between atoms: N_5  and  C_16
REMARK    6  A    between atoms: C_7  and  C_14
REMARK    7  A    between atoms: C_9  and  C_15
REMARK    8  A    between atoms: C_16  and  C_17
REMARK    9  A    between atoms: C_16  and  C_18
REMARK                            x       y       z     vdW  Elec       q    Type
REMARK                         _______ _______ _______ _____ _____    ______ ____
ROOT
ATOM      1  O   UNL     1      13.111   7.613  16.831  0.00  0.00    -0.366 OA
ATOM      6  C   UNL     1      14.679   8.663  18.280  0.00  0.00    +0.118 C 
ATOM      7  C   UNL     1      13.773   7.437  18.102  0.00  0.00    +0.152 C 
ATOM      8  C   UNL     1      13.989   9.726  17.440  0.00  0.00    +0.165 C 
ATOM      9  C   UNL     1      13.498   8.882  16.269  0.00  0.00    +0.174 C 
ENDROOT
BRANCH   6   4
ATOM      4  N   UNL     1      14.974   9.051  19.652  0.00  0.00    -0.295 NA
ATOM     10  C   UNL     1      16.022   8.226  20.253  0.00  0.00    +0.085 C 
ATOM     11  C   UNL     1      15.469  10.424  19.749  0.00  0.00    +0.085 C 
ATOM     12  C   UNL     1      16.427   9.030  21.480  0.00  0.00    +0.017 C 
ATOM     13  C   UNL     1      16.061  10.473  21.151  0.00  0.00    +0.017 C 
ENDBRANCH   6   4
BRANCH   8   2
ATOM      2  O   UNL     1      12.888  10.302  18.130  0.00  0.00    -0.388 OA
ATOM     19  H   UNL     1      12.190   9.627  18.187  0.00  0.00    +0.210 HD
ENDBRANCH   8   2
BRANCH   7  14
ATOM     14  C   UNL     1      12.689   7.231  19.153  0.00  0.00    +0.114 C 
BRANCH  14   5
ATOM      5  N   UNL     1      13.194   6.455  20.277  0.00  0.00    -0.311 NA
ATOM     20  H   UNL     1      13.103   5.464  20.056  0.00  0.00    +0.122 HD
BRANCH   5  16
ATOM     16  C   UNL     1      12.459   6.765  21.497  0.00  0.00    +0.048 C 
ATOM     17  C   UNL     1      11.152   5.980  21.540  0.00  0.00    +0.023 C 
ATOM     18  C   UNL     1      12.198   8.267  21.564  0.00  0.00    +0.023 C 
ENDBRANCH   5  16
ENDBRANCH  14   5
ENDBRANCH   7  14
BRANCH   9  15
ATOM     15  C   UNL     1      12.331   9.462  15.490  0.00  0.00    +0.190 C 
BRANCH  15   3
ATOM      3  O   UNL     1      11.130   8.856  15.943  0.00  0.00    -0.392 OA
ATOM     21  H   UNL     1      11.379   8.042  16.412  0.00  0.00    +0.210 HD
ENDBRANCH  15   3
ENDBRANCH   9  15
TORSDOF 7
ENDMDL
MODEL 6
REMARK VINA RESULT:      -4.8     15.751     18.584
REMARK  Name = 28961576
REMARK  9 active torsions:
REMARK  status: ('A' for Active; 'I' for Inactive)
REMARK    1  A    between atoms: O_2  and  C_8
REMARK    2  A    between atoms: O_3  and  C_15
REMARK    3  A    between atoms: N_4  and  C_6
REMARK    4  A    between atoms: N_5  and  C_14
REMARK    5  A    between atoms: N_5  and  C_16
REMARK    6  A    between atoms: C_7  and  C_14
REMARK    7  A    between atoms: C_9  and  C_15
REMARK    8  A    between atoms: C_16  and  C_17
REMARK    9  A    between atoms: C_16  and  C_18
REMARK                            x       y       z     vdW  Elec       q    Type
REMARK                         _______ _______ _______ _____ _____    ______ ____
ROOT
ATOM      1  O   UNL     1      -5.084   2.282  24.230  0.00  0.00    -0.366 OA
ATOM      6  C   UNL     1      -2.721   2.346  23.955  0.00  0.00    +0.118 C 
ATOM      7  C   UNL     1      -3.955   1.435  23.922  0.00  0.00    +0.152 C 
ATOM      8  C   UNL     1      -3.144   3.463  24.898  0.00  0.00    +0.165 C 
ATOM      9  C   UNL     1      -4.611   3.613  24.514  0.00  0.00    +0.174 C 
ENDROOT
BRANCH   6   4
ATOM      4  N   UNL     1      -1.456   1.705  24.281  0.00  0.00    -0.295 NA
ATOM     10  C   UNL     1      -1.064   0.706  23.288  0.00  0.00    +0.085 C 
ATOM     11  C   UNL     1      -0.344   2.653  24.325  0.00  0.00    +0.085 C 
ATOM     12  C   UNL     1       0.405   0.469  23.604  0.00  0.00    +0.017 C 
ATOM     13  C   UNL     1       0.878   1.747  24.289  0.00  0.00    +0.017 C 
ENDBRANCH   6   4
BRANCH   8   2
ATOM      2  O   UNL     1      -3.026   3.069  26.258  0.00  0.00    -0.388 OA
ATOM     19  H   UNL     1      -2.268   3.544  26.638  0.00  0.00    +0.210 HD
ENDBRANCH   8   2
BRANCH   7  14
ATOM     14  C   UNL     1      -3.975   0.276  24.911  0.00  0.00    +0.114 C 
BRANCH  14   5
ATOM      5  N   UNL     1      -4.049  -1.001  24.215  0.00  0.00    -0.311 NA
ATOM     20  H   UNL     1      -5.028  -1.211  24.022  0.00  0.00    +0.122 HD
BRANCH   5  16
ATOM     16  C   UNL     1      -3.458  -2.066  25.015  0.00  0.00    +0.048 C 
ATOM     17  C   UNL     1      -3.146  -1.561  26.421  0.00  0.00    +0.023 C 
ATOM     18  C   UNL     1      -2.197  -2.578  24.325  0.00  0.00    +0.023 C 
ENDBRANCH   5  16
ENDBRANCH  14   5
ENDBRANCH   7  14
BRANCH   9  15
ATOM     15  C   UNL     1      -5.501   4.246  25.568  0.00  0.00    +0.190 C 
BRANCH  15   3
ATOM      3  O   UNL     1      -6.156   3.218  26.294  0.00  0.00    -0.392 OA
ATOM     21  H   UNL     1      -5.592   2.428  26.246  0.00  0.00    +0.210 HD
ENDBRANCH  15   3
ENDBRANCH   9  15
TORSDOF 7
ENDMDL
MODEL 7
REMARK VINA RESULT:      -4.8     11.870     13.705
REMARK  Name = 28961576
REMARK  9 active torsions:
REMARK  status: ('A' for Active; 'I' for Inactive)
REMARK    1  A    between atoms: O_2  and  C_8
REMARK    2  A    between atoms: O_3  and  C_15
REMARK    3  A    between atoms: N_4  and  C_6
REMARK    4  A    between atoms: N_5  and  C_14
REMARK    5  A    between atoms: N_5  and  C_16
REMARK    6  A    between atoms: C_7  and  C_14
REMARK    7  A    between atoms: C_9  and  C_15
REMARK    8  A    between atoms: C_16  and  C_17
REMARK    9  A    between atoms: C_16  and  C_18
REMARK                            x       y       z     vdW  Elec       q    Type
REMARK                         _______ _______ _______ _____ _____    ______ ____
ROOT
ATOM      1  O   UNL     1       8.714   6.553   8.563  0.00  0.00    -0.366 OA
ATOM      6  C   UNL     1      10.687   7.246   7.427  0.00  0.00    +0.118 C 
ATOM      7  C   UNL     1       9.169   7.448   7.524  0.00  0.00    +0.152 C 
ATOM      8  C   UNL     1      10.878   5.826   7.937  0.00  0.00    +0.165 C 
ATOM      9  C   UNL     1       9.832   5.782   9.044  0.00  0.00    +0.174 C 
ENDROOT
BRANCH   6   4
ATOM      4  N   UNL     1      11.291   7.528   6.133  0.00  0.00    -0.295 NA
ATOM     10  C   UNL     1      11.384   8.962   5.861  0.00  0.00    +0.085 C 
ATOM     11  C   UNL     1      12.665   7.035   6.040  0.00  0.00    +0.085 C 
ATOM     12  C   UNL     1      12.364   9.026   4.698  0.00  0.00    +0.017 C 
ATOM     13  C   UNL     1      13.204   7.758   4.813  0.00  0.00    +0.017 C 
ENDBRANCH   6   4
BRANCH   8   2
ATOM      2  O   UNL     1      10.575   4.867   6.932  0.00  0.00    -0.388 OA
ATOM     19  H   UNL     1       9.669   4.553   7.089  0.00  0.00    +0.210 HD
ENDBRANCH   8   2
BRANCH   7  14
ATOM     14  C   UNL     1       8.357   7.139   6.272  0.00  0.00    +0.114 C 
BRANCH  14   5
ATOM      5  N   UNL     1       7.615   8.311   5.830  0.00  0.00    -0.311 NA
ATOM     20  H   UNL     1       6.624   8.074   5.794  0.00  0.00    +0.122 HD
BRANCH   5  16
ATOM     16  C   UNL     1       8.072   8.753   4.519  0.00  0.00    +0.048 C 
ATOM     17  C   UNL     1       6.955   9.496   3.792  0.00  0.00    +0.023 C 
ATOM     18  C   UNL     1       8.542   7.546   3.713  0.00  0.00    +0.023 C 
ENDBRANCH   5  16
ENDBRANCH  14   5
ENDBRANCH   7  14
BRANCH   9  15
ATOM     15  C   UNL     1       9.353   4.397   9.436  0.00  0.00    +0.190 C 
BRANCH  15   3
ATOM      3  O   UNL     1       8.702   4.475  10.694  0.00  0.00    -0.392 OA
ATOM     21  H   UNL     1       9.117   3.814  11.274  0.00  0.00    +0.210 HD
ENDBRANCH  15   3
ENDBRANCH   9  15
TORSDOF 7
ENDMDL
MODEL 8
REMARK VINA RESULT:      -4.8     24.153     27.006
REMARK  Name = 28961576
REMARK  9 active torsions:
REMARK  status: ('A' for Active; 'I' for Inactive)
REMARK    1  A    between atoms: O_2  and  C_8
REMARK    2  A    between atoms: O_3  and  C_15
REMARK    3  A    between atoms: N_4  and  C_6
REMARK    4  A    between atoms: N_5  and  C_14
REMARK    5  A    between atoms: N_5  and  C_16
REMARK    6  A    between atoms: C_7  and  C_14
REMARK    7  A    between atoms: C_9  and  C_15
REMARK    8  A    between atoms: C_16  and  C_17
REMARK    9  A    between atoms: C_16  and  C_18
REMARK                            x       y       z     vdW  Elec       q    Type
REMARK                         _______ _______ _______ _____ _____    ______ ____
ROOT
ATOM      1  O   UNL     1      -4.515 -12.486  17.026  0.00  0.00    -0.366 OA
ATOM      6  C   UNL     1      -6.614 -11.364  17.035  0.00  0.00    +0.118 C 
ATOM      7  C   UNL     1      -5.411 -11.751  16.164  0.00  0.00    +0.152 C 
ATOM      8  C   UNL     1      -6.026 -11.334  18.438  0.00  0.00    +0.165 C 
ATOM      9  C   UNL     1      -5.056 -12.508  18.360  0.00  0.00    +0.174 C 
ENDROOT
BRANCH   6   4
ATOM      4  N   UNL     1      -7.336 -10.164  16.639  0.00  0.00    -0.295 NA
ATOM     10  C   UNL     1      -8.168 -10.378  15.455  0.00  0.00    +0.085 C 
ATOM     11  C   UNL     1      -8.259  -9.701  17.674  0.00  0.00    +0.085 C 
ATOM     12  C   UNL     1      -9.092  -9.169  15.465  0.00  0.00    +0.017 C 
ATOM     13  C   UNL     1      -9.150  -8.722  16.922  0.00  0.00    +0.017 C 
ENDBRANCH   6   4
BRANCH   8   2
ATOM      2  O   UNL     1      -5.321 -10.125  18.681  0.00  0.00    -0.388 OA
ATOM     19  H   UNL     1      -5.967  -9.399  18.666  0.00  0.00    +0.210 HD
ENDBRANCH   8   2
BRANCH   7  14
ATOM     14  C   UNL     1      -4.614 -10.605  15.553  0.00  0.00    +0.114 C 
BRANCH  14   5
ATOM      5  N   UNL     1      -3.324 -10.459  16.212  0.00  0.00    -0.311 NA
ATOM     20  H   UNL     1      -3.217  -9.488  16.507  0.00  0.00    +0.122 HD
BRANCH   5  16
ATOM     16  C   UNL     1      -2.236 -10.832  15.317  0.00  0.00    +0.048 C 
ATOM     17  C   UNL     1      -0.961 -10.082  15.692  0.00  0.00    +0.023 C 
ATOM     18  C   UNL     1      -2.641 -10.536  13.876  0.00  0.00    +0.023 C 
ENDBRANCH   5  16
ENDBRANCH  14   5
ENDBRANCH   7  14
BRANCH   9  15
ATOM     15  C   UNL     1      -3.918 -12.481  19.363  0.00  0.00    +0.190 C 
BRANCH  15   3
ATOM      3  O   UNL     1      -2.797 -11.844  18.769  0.00  0.00    -0.392 OA
ATOM     21  H   UNL     1      -2.770 -12.122  17.838  0.00  0.00    +0.210 HD
ENDBRANCH  15   3
ENDBRANCH   9  15
TORSDOF 7
ENDMDL
MODEL 9
REMARK VINA RESULT:      -4.7     25.692     26.995
REMARK  Name = 28961576
REMARK  9 active torsions:
REMARK  status: ('A' for Active; 'I' for Inactive)
REMARK    1  A    between atoms: O_2  and  C_8
REMARK    2  A    between atoms: O_3  and  C_15
REMARK    3  A    between atoms: N_4  and  C_6
REMARK    4  A    between atoms: N_5  and  C_14
REMARK    5  A    between atoms: N_5  and  C_16
REMARK    6  A    between atoms: C_7  and  C_14
REMARK    7  A    between atoms: C_9  and  C_15
REMARK    8  A    between atoms: C_16  and  C_17
REMARK    9  A    between atoms: C_16  and  C_18
REMARK                            x       y       z     vdW  Elec       q    Type
REMARK                         _______ _______ _______ _____ _____    ______ ____
ROOT
ATOM      1  O   UNL     1      -1.719 -12.696  14.348  0.00  0.00    -0.366 OA
ATOM      6  C   UNL     1      -2.338 -11.911  12.189  0.00  0.00    +0.118 C 
ATOM      7  C   UNL     1      -1.966 -11.478  13.613  0.00  0.00    +0.152 C 
ATOM      8  C   UNL     1      -2.902 -13.309  12.391  0.00  0.00    +0.165 C 
ATOM      9  C   UNL     1      -1.983 -13.825  13.493  0.00  0.00    +0.174 C 
ENDROOT
BRANCH   6   4
ATOM      4  N   UNL     1      -3.193 -11.000  11.441  0.00  0.00    -0.295 NA
ATOM     10  C   UNL     1      -2.487  -9.789  11.024  0.00  0.00    +0.085 C 
ATOM     11  C   UNL     1      -3.693 -11.594  10.202  0.00  0.00    +0.085 C 
ATOM     12  C   UNL     1      -3.413  -9.202   9.968  0.00  0.00    +0.017 C 
ATOM     13  C   UNL     1      -4.208 -10.387   9.430  0.00  0.00    +0.017 C 
ENDBRANCH   6   4
BRANCH   8   2
ATOM      2  O   UNL     1      -4.247 -13.267  12.848  0.00  0.00    -0.388 OA
ATOM     19  H   UNL     1      -4.565 -14.183  12.911  0.00  0.00    +0.210 HD
ENDBRANCH   8   2
BRANCH   7  14
ATOM     14  C   UNL     1      -3.018 -10.689  14.383  0.00  0.00    +0.114 C 
BRANCH  14   5
ATOM      5  N   UNL     1      -3.556 -11.475  15.484  0.00  0.00    -0.311 NA
ATOM     20  H   UNL     1      -4.335 -12.033  15.135  0.00  0.00    +0.122 HD
BRANCH   5  16
ATOM     16  C   UNL     1      -4.006 -10.613  16.570  0.00  0.00    +0.048 C 
ATOM     17  C   UNL     1      -4.197 -11.426  17.846  0.00  0.00    +0.023 C 
ATOM     18  C   UNL     1      -5.302  -9.919  16.162  0.00  0.00    +0.023 C 
ENDBRANCH   5  16
ENDBRANCH  14   5
ENDBRANCH   7  14
BRANCH   9  15
ATOM     15  C   UNL     1      -2.538 -14.965  14.326  0.00  0.00    +0.190 C 
BRANCH  15   3
ATOM      3  O   UNL     1      -3.364 -14.428  15.347  0.00  0.00    -0.392 OA
ATOM     21  H   UNL     1      -3.821 -15.176  15.769  0.00  0.00    +0.210 HD
ENDBRANCH  15   3
ENDBRANCH   9  15
TORSDOF 7
ENDMDL
MODEL 10
REMARK VINA RESULT:      -4.7     12.630     15.087
REMARK  Name = 28961576
REMARK  9 active torsions:
REMARK  status: ('A' for Active; 'I' for Inactive)
REMARK    1  A    between atoms: O_2  and  C_8
REMARK    2  A    between atoms: O_3  and  C_15
REMARK    3  A    between atoms: N_4  and  C_6
REMARK    4  A    between atoms: N_5  and  C_14
REMARK    5  A    between atoms: N_5  and  C_16
REMARK    6  A    between atoms: C_7  and  C_14
REMARK    7  A    between atoms: C_9  and  C_15
REMARK    8  A    between atoms: C_16  and  C_17
REMARK    9  A    between atoms: C_16  and  C_18
REMARK                            x       y       z     vdW  Elec       q    Type
REMARK                         _______ _______ _______ _____ _____    ______ ____
ROOT
ATOM      1  O   UNL     1      10.160   4.965   6.081  0.00  0.00    -0.366 OA
ATOM      6  C   UNL     1       8.827   6.784   5.320  0.00  0.00    +0.118 C 
ATOM      7  C   UNL     1       9.909   5.774   4.912  0.00  0.00    +0.152 C 
ATOM      8  C   UNL     1       9.016   6.900   6.825  0.00  0.00    +0.165 C 
ATOM      9  C   UNL     1       9.363   5.458   7.176  0.00  0.00    +0.174 C 
ENDROOT
BRANCH   6   4
ATOM      4  N   UNL     1       8.820   8.046   4.596  0.00  0.00    -0.295 NA
ATOM     10  C   UNL     1       8.394   7.890   3.205  0.00  0.00    +0.085 C 
ATOM     11  C   UNL     1       7.887   9.014   5.172  0.00  0.00    +0.085 C 
ATOM     12  C   UNL     1       8.089   9.319   2.780  0.00  0.00    +0.017 C 
ATOM     13  C   UNL     1       7.758  10.059   4.072  0.00  0.00    +0.017 C 
ENDBRANCH   6   4
BRANCH   8   2
ATOM      2  O   UNL     1      10.099   7.762   7.148  0.00  0.00    -0.388 OA
ATOM     19  H   UNL     1      10.696   7.786   6.381  0.00  0.00    +0.210 HD
ENDBRANCH   8   2
BRANCH   7  14
ATOM     14  C   UNL     1      11.247   6.350   4.464  0.00  0.00    +0.114 C 
BRANCH  14   5
ATOM      5  N   UNL     1      12.240   6.246   5.523  0.00  0.00    -0.311 NA
ATOM     20  H   UNL     1      11.756   6.212   6.420  0.00  0.00    +0.122 HD
BRANCH   5  16
ATOM     16  C   UNL     1      13.156   7.379   5.492  0.00  0.00    +0.048 C 
ATOM     17  C   UNL     1      13.907   7.415   4.165  0.00  0.00    +0.023 C 
ATOM     18  C   UNL     1      14.124   7.280   6.667  0.00  0.00    +0.023 C 
ENDBRANCH   5  16
ENDBRANCH  14   5
ENDBRANCH   7  14
BRANCH   9  15
ATOM     15  C   UNL     1      10.124   5.267   8.475  0.00  0.00    +0.190 C 
BRANCH  15   3
ATOM      3  O   UNL     1      11.507   5.469   8.231  0.00  0.00    -0.392 OA
ATOM     21  H   UNL     1      11.977   4.698   8.591  0.00  0.00    +0.210 HD
ENDBRANCH  15   3
ENDBRANCH   9  15
TORSDOF 7
ENDMDL
