MODEL 1
REMARK VINA RESULT:      -6.6      0.000      0.000
REMARK  Name = 11882511
REMARK  7 active torsions:
REMARK  status: ('A' for Active; 'I' for Inactive)
REMARK    1  A    between atoms: N_7  and  C_13
REMARK    2  A    between atoms: CA_17  and  CB_20
REMARK    3  A    between atoms: CB_20  and  CG_21
REMARK    4  A    between atoms: CG_21  and  CD1_23
REMARK    5  A    between atoms: CG_21  and  CD2_24
REMARK    6  A    between atoms: C_22  and  C_26
REMARK    7  A    between atoms: C_25  and  C_27
REMARK                            x       y       z     vdW  Elec       q    Type
REMARK                         _______ _______ _______ _____ _____    ______ ____
ROOT
ATOM      1  O   LEU A   2      21.113   9.050  21.840  0.00  0.00    -0.274 OA
ATOM      2  O   UNK A   1      18.348   5.118  19.548  0.00  0.00    -0.274 OA
ATOM      5  N   UNK A   1      19.111   7.892  21.567  0.00  0.00    -0.288 N 
ATOM      6  N   LEU A   2      20.354   6.149  19.983  0.00  0.00    -0.302 N 
ATOM     12  C   UNK A   1      18.499   6.563  21.491  0.00  0.00    +0.164 C 
ATOM     13  C   UNK A   1      16.386   7.756  20.716  0.00  0.00    +0.113 C 
ATOM     14  C   UNK A   1      16.967   6.610  21.565  0.00  0.00    +0.059 C 
ATOM     15  C   UNK A   1      17.063   9.116  20.999  0.00  0.00    +0.046 C 
ATOM     16  C   UNK A   1      18.250   9.005  21.952  0.00  0.00    +0.110 C 
ATOM     17  CA  LEU A   2      21.224   6.838  20.922  0.00  0.00    +0.159 C 
ATOM     18  C   LEU A   2      20.492   8.055  21.467  0.00  0.00    +0.237 C 
ATOM     19  C   UNK A   1      19.015   5.897  20.225  0.00  0.00    +0.234 C 
ATOM     28  H   LEU A   2      20.752   5.812  19.113  0.00  0.00    +0.150 HD
ENDROOT
BRANCH  13   7
ATOM      7  N   UNK A   1      14.922   7.823  20.814  0.00  0.00    -0.236 N 
ATOM      8  N   UNK A   1      14.328   7.694  22.006  0.00  0.00    -0.064 NA
ATOM      9  N   UNK A   1      13.020   7.796  21.800  0.00  0.00    -0.124 NA
ATOM     22  C   UNK A   1      14.028   8.009  19.813  0.00  0.00    +0.156 A 
ATOM     25  C   UNK A   1      12.819   7.988  20.461  0.00  0.00    +0.179 A 
BRANCH  22  26
ATOM      3  O   UNK A   1      14.632   7.235  17.662  0.00  0.00    -0.269 OA
ATOM     10  N   UNK A   1      14.268   9.472  17.897  0.00  0.00    -0.324 N 
ATOM     26  C   UNK A   1      14.332   8.179  18.428  0.00  0.00    +0.262 C 
ATOM     29  H   UNK A   1      14.020  10.276  18.467  0.00  0.00    +0.145 HD
ATOM     30  H   UNK A   1      14.467   9.644  16.918  0.00  0.00    +0.145 HD
ENDBRANCH  22  26
BRANCH  25  27
ATOM      4  O   UNK A   1      11.324   8.514  18.707  0.00  0.00    -0.269 OA
ATOM     11  N   UNK A   1      10.413   7.826  20.680  0.00  0.00    -0.324 N 
ATOM     27  C   UNK A   1      11.519   8.139  19.885  0.00  0.00    +0.264 C 
ATOM     31  H   UNK A   1      10.511   7.508  21.638  0.00  0.00    +0.145 HD
ATOM     32  H   UNK A   1       9.469   7.909  20.316  0.00  0.00    +0.145 HD
ENDBRANCH  25  27
ENDBRANCH  13   7
BRANCH  17  20
ATOM     20  CB  LEU A   2      21.755   5.934  22.023  0.00  0.00    +0.034 C 
BRANCH  20  21
ATOM     21  CG  LEU A   2      22.237   4.563  21.516  0.00  0.00    -0.015 C 
ATOM     23  CD1 LEU A   2      23.593   4.644  20.815  0.00  0.00    +0.007 C 
ATOM     24  CD2 LEU A   2      22.318   3.576  22.684  0.00  0.00    +0.007 C 
ENDBRANCH  20  21
ENDBRANCH  17  20
TORSDOF 5
ENDMDL
MODEL 2
REMARK VINA RESULT:      -6.5     27.546     30.196
REMARK  Name = 11882511
REMARK  7 active torsions:
REMARK  status: ('A' for Active; 'I' for Inactive)
REMARK    1  A    between atoms: N_7  and  C_13
REMARK    2  A    between atoms: CA_17  and  CB_20
REMARK    3  A    between atoms: CB_20  and  CG_21
REMARK    4  A    between atoms: CG_21  and  CD1_23
REMARK    5  A    between atoms: CG_21  and  CD2_24
REMARK    6  A    between atoms: C_22  and  C_26
REMARK    7  A    between atoms: C_25  and  C_27
REMARK                            x       y       z     vdW  Elec       q    Type
REMARK                         _______ _______ _______ _____ _____    ______ ____
ROOT
ATOM      1  O   LEU A   2      -1.799 -11.032  16.383  0.00  0.00    -0.274 OA
ATOM      2  O   UNK A   1      -6.665 -10.144  14.410  0.00  0.00    -0.274 OA
ATOM      5  N   UNK A   1      -4.107 -11.312  16.518  0.00  0.00    -0.288 N 
ATOM      6  N   LEU A   2      -4.380 -10.051  14.189  0.00  0.00    -0.302 N 
ATOM     12  C   UNK A   1      -5.318 -11.641  15.763  0.00  0.00    +0.164 C 
ATOM     13  C   UNK A   1      -6.615 -10.881  17.819  0.00  0.00    +0.113 C 
ATOM     14  C   UNK A   1      -6.530 -11.901  16.667  0.00  0.00    +0.059 C 
ATOM     15  C   UNK A   1      -5.285 -10.735  18.591  0.00  0.00    +0.046 C 
ATOM     16  C   UNK A   1      -4.139 -11.523  17.961  0.00  0.00    +0.110 C 
ATOM     17  CA  LEU A   2      -3.082 -10.672  14.389  0.00  0.00    +0.159 C 
ATOM     18  C   LEU A   2      -2.915 -10.996  15.867  0.00  0.00    +0.237 C 
ATOM     19  C   UNK A   1      -5.549 -10.519  14.763  0.00  0.00    +0.234 C 
ATOM     28  H   LEU A   2      -4.441  -9.245  13.576  0.00  0.00    +0.150 HD
ENDROOT
BRANCH  13   7
ATOM      7  N   UNK A   1      -7.755 -11.151  18.706  0.00  0.00    -0.236 N 
ATOM      8  N   UNK A   1      -7.605 -11.970  19.753  0.00  0.00    -0.064 NA
ATOM      9  N   UNK A   1      -8.780 -12.028  20.370  0.00  0.00    -0.124 NA
ATOM     22  C   UNK A   1      -9.015 -10.661  18.613  0.00  0.00    +0.156 A 
ATOM     25  C   UNK A   1      -9.655 -11.232  19.684  0.00  0.00    +0.179 A 
BRANCH  22  26
ATOM      3  O   UNK A   1     -10.069 -10.140  16.562  0.00  0.00    -0.269 OA
ATOM     10  N   UNK A   1      -9.360  -8.391  17.839  0.00  0.00    -0.324 N 
ATOM     26  C   UNK A   1      -9.503  -9.765  17.615  0.00  0.00    +0.262 C 
ATOM     29  H   UNK A   1      -8.919  -8.027  18.678  0.00  0.00    +0.145 HD
ATOM     30  H   UNK A   1      -9.697  -7.714  17.164  0.00  0.00    +0.145 HD
ENDBRANCH  22  26
BRANCH  25  27
ATOM      4  O   UNK A   1     -11.927 -11.874  19.790  0.00  0.00    -0.269 OA
ATOM     11  N   UNK A   1     -11.344  -9.936  20.838  0.00  0.00    -0.324 N 
ATOM     27  C   UNK A   1     -11.020 -11.061  20.076  0.00  0.00    +0.264 C 
ATOM     31  H   UNK A   1     -10.647  -9.249  21.107  0.00  0.00    +0.145 HD
ATOM     32  H   UNK A   1     -12.296  -9.772  21.148  0.00  0.00    +0.145 HD
ENDBRANCH  25  27
ENDBRANCH  13   7
BRANCH  17  20
ATOM     20  CB  LEU A   2      -2.850 -11.880  13.497  0.00  0.00    +0.034 C 
BRANCH  20  21
ATOM     21  CG  LEU A   2      -2.267 -11.526  12.117  0.00  0.00    -0.015 C 
ATOM     23  CD1 LEU A   2      -3.332 -11.511  11.021  0.00  0.00    +0.007 C 
ATOM     24  CD2 LEU A   2      -1.572 -10.163  12.181  0.00  0.00    +0.007 C 
ENDBRANCH  20  21
ENDBRANCH  17  20
TORSDOF 5
ENDMDL
MODEL 3
REMARK VINA RESULT:      -6.2     27.630     30.010
REMARK  Name = 11882511
REMARK  7 active torsions:
REMARK  status: ('A' for Active; 'I' for Inactive)
REMARK    1  A    between atoms: N_7  and  C_13
REMARK    2  A    between atoms: CA_17  and  CB_20
REMARK    3  A    between atoms: CB_20  and  CG_21
REMARK    4  A    between atoms: CG_21  and  CD1_23
REMARK    5  A    between atoms: CG_21  and  CD2_24
REMARK    6  A    between atoms: C_22  and  C_26
REMARK    7  A    between atoms: C_25  and  C_27
REMARK                            x       y       z     vdW  Elec       q    Type
REMARK                         _______ _______ _______ _____ _____    ______ ____
ROOT
ATOM      1  O   LEU A   2      -1.698 -10.975  16.014  0.00  0.00    -0.274 OA
ATOM      2  O   UNK A   1      -6.400 -12.286  13.885  0.00  0.00    -0.274 OA
ATOM      5  N   UNK A   1      -3.272 -10.741  14.314  0.00  0.00    -0.288 N 
ATOM      6  N   LEU A   2      -4.925 -12.350  15.644  0.00  0.00    -0.302 N 
ATOM     12  C   UNK A   1      -4.697 -10.563  14.019  0.00  0.00    +0.164 C 
ATOM     13  C   UNK A   1      -4.089 -11.035  11.591  0.00  0.00    +0.113 C 
ATOM     14  C   UNK A   1      -4.959 -10.201  12.550  0.00  0.00    +0.059 C 
ATOM     15  C   UNK A   1      -2.592 -11.025  11.974  0.00  0.00    +0.046 C 
ATOM     16  C   UNK A   1      -2.320 -10.312  13.296  0.00  0.00    +0.110 C 
ATOM     17  CA  LEU A   2      -3.946 -11.671  16.476  0.00  0.00    +0.159 C 
ATOM     18  C   LEU A   2      -2.842 -11.120  15.585  0.00  0.00    +0.237 C 
ATOM     19  C   UNK A   1      -5.412 -11.831  14.458  0.00  0.00    +0.234 C 
ATOM     28  H   LEU A   2      -5.292 -13.242  15.959  0.00  0.00    +0.150 HD
ENDROOT
BRANCH  13   7
ATOM      7  N   UNK A   1      -4.313 -10.664  10.187  0.00  0.00    -0.236 N 
ATOM      8  N   UNK A   1      -4.263  -9.378   9.822  0.00  0.00    -0.064 NA
ATOM      9  N   UNK A   1      -4.498  -9.337   8.515  0.00  0.00    -0.124 NA
ATOM     22  C   UNK A   1      -4.580 -11.485   9.142  0.00  0.00    +0.156 A 
ATOM     25  C   UNK A   1      -4.695 -10.620   8.083  0.00  0.00    +0.179 A 
BRANCH  22  26
ATOM      3  O   UNK A   1      -5.698 -13.502   9.664  0.00  0.00    -0.269 OA
ATOM     10  N   UNK A   1      -3.657 -13.673   8.663  0.00  0.00    -0.324 N 
ATOM     26  C   UNK A   1      -4.702 -12.906   9.192  0.00  0.00    +0.262 C 
ATOM     29  H   UNK A   1      -2.829 -13.247   8.258  0.00  0.00    +0.145 HD
ATOM     30  H   UNK A   1      -3.700 -14.686   8.668  0.00  0.00    +0.145 HD
ENDBRANCH  22  26
BRANCH  25  27
ATOM      4  O   UNK A   1      -4.334 -11.799   6.067  0.00  0.00    -0.269 OA
ATOM     11  N   UNK A   1      -6.039 -10.287   6.096  0.00  0.00    -0.324 N 
ATOM     27  C   UNK A   1      -4.975 -10.945   6.719  0.00  0.00    +0.264 C 
ATOM     31  H   UNK A   1      -6.599  -9.592   6.579  0.00  0.00    +0.145 HD
ATOM     32  H   UNK A   1      -6.283 -10.487   5.131  0.00  0.00    +0.145 HD
ENDBRANCH  25  27
ENDBRANCH  13   7
BRANCH  17  20
ATOM     20  CB  LEU A   2      -4.556 -10.607  17.374  0.00  0.00    +0.034 C 
BRANCH  20  21
ATOM     21  CG  LEU A   2      -4.852 -11.101  18.802  0.00  0.00    -0.015 C 
ATOM     23  CD1 LEU A   2      -6.272 -11.650  18.945  0.00  0.00    +0.007 C 
ATOM     24  CD2 LEU A   2      -3.839 -12.177  19.201  0.00  0.00    +0.007 C 
ENDBRANCH  20  21
ENDBRANCH  17  20
TORSDOF 5
ENDMDL
MODEL 4
REMARK VINA RESULT:      -6.2     28.298     31.868
REMARK  Name = 11882511
REMARK  7 active torsions:
REMARK  status: ('A' for Active; 'I' for Inactive)
REMARK    1  A    between atoms: N_7  and  C_13
REMARK    2  A    between atoms: CA_17  and  CB_20
REMARK    3  A    between atoms: CB_20  and  CG_21
REMARK    4  A    between atoms: CG_21  and  CD1_23
REMARK    5  A    between atoms: CG_21  and  CD2_24
REMARK    6  A    between atoms: C_22  and  C_26
REMARK    7  A    between atoms: C_25  and  C_27
REMARK                            x       y       z     vdW  Elec       q    Type
REMARK                         _______ _______ _______ _____ _____    ______ ____
ROOT
ATOM      1  O   LEU A   2     -11.697  -8.697  17.836  0.00  0.00    -0.274 OA
ATOM      2  O   UNK A   1      -7.867 -11.627  20.095  0.00  0.00    -0.274 OA
ATOM      5  N   UNK A   1      -9.769  -9.987  17.636  0.00  0.00    -0.288 N 
ATOM      6  N   LEU A   2      -9.874 -10.521  20.243  0.00  0.00    -0.302 N 
ATOM     12  C   UNK A   1      -9.112 -11.230  18.051  0.00  0.00    +0.164 C 
ATOM     13  C   UNK A   1      -6.998 -10.277  16.997  0.00  0.00    +0.113 C 
ATOM     14  C   UNK A   1      -7.851 -11.538  17.232  0.00  0.00    +0.059 C 
ATOM     15  C   UNK A   1      -7.819  -9.089  16.448  0.00  0.00    +0.046 C 
ATOM     16  C   UNK A   1      -9.317  -9.376  16.391  0.00  0.00    +0.110 C 
ATOM     17  CA  LEU A   2     -11.153 -10.172  19.646  0.00  0.00    +0.159 C 
ATOM     18  C   LEU A   2     -10.903  -9.517  18.296  0.00  0.00    +0.237 C 
ATOM     19  C   UNK A   1      -8.843 -11.124  19.544  0.00  0.00    +0.234 C 
ATOM     28  H   LEU A   2      -9.734 -10.335  21.230  0.00  0.00    +0.150 HD
ENDROOT
BRANCH  13   7
ATOM      7  N   UNK A   1      -5.809 -10.565  16.184  0.00  0.00    -0.236 N 
ATOM      8  N   UNK A   1      -5.713 -10.066  14.946  0.00  0.00    -0.064 NA
ATOM      9  N   UNK A   1      -4.551 -10.480  14.451  0.00  0.00    -0.124 NA
ATOM     22  C   UNK A   1      -4.728 -11.308  16.523  0.00  0.00    +0.156 A 
ATOM     25  C   UNK A   1      -3.936 -11.242  15.405  0.00  0.00    +0.179 A 
BRANCH  22  26
ATOM      3  O   UNK A   1      -4.270 -11.383  18.842  0.00  0.00    -0.269 OA
ATOM     10  N   UNK A   1      -4.617 -13.372  17.786  0.00  0.00    -0.324 N 
ATOM     26  C   UNK A   1      -4.518 -11.977  17.767  0.00  0.00    +0.262 C 
ATOM     29  H   UNK A   1      -4.825 -13.908  16.948  0.00  0.00    +0.145 HD
ATOM     30  H   UNK A   1      -4.484 -13.893  18.646  0.00  0.00    +0.145 HD
ENDBRANCH  22  26
BRANCH  25  27
ATOM      4  O   UNK A   1      -1.573 -11.281  15.460  0.00  0.00    -0.269 OA
ATOM     11  N   UNK A   1      -2.627 -13.163  14.724  0.00  0.00    -0.324 N 
ATOM     27  C   UNK A   1      -2.657 -11.851  15.206  0.00  0.00    +0.264 C 
ATOM     31  H   UNK A   1      -3.475 -13.677  14.509  0.00  0.00    +0.145 HD
ATOM     32  H   UNK A   1      -1.746 -13.643  14.572  0.00  0.00    +0.145 HD
ENDBRANCH  25  27
ENDBRANCH  13   7
BRANCH  17  20
ATOM     20  CB  LEU A   2     -12.113 -11.347  19.556  0.00  0.00    +0.034 C 
BRANCH  20  21
ATOM     21  CG  LEU A   2     -13.410 -11.147  20.361  0.00  0.00    -0.015 C 
ATOM     23  CD1 LEU A   2     -13.406 -11.930  21.675  0.00  0.00    +0.007 C 
ATOM     24  CD2 LEU A   2     -13.620  -9.658  20.648  0.00  0.00    +0.007 C 
ENDBRANCH  20  21
ENDBRANCH  17  20
TORSDOF 5
ENDMDL
MODEL 5
REMARK VINA RESULT:      -6.1     21.720     23.129
REMARK  Name = 11882511
REMARK  7 active torsions:
REMARK  status: ('A' for Active; 'I' for Inactive)
REMARK    1  A    between atoms: N_7  and  C_13
REMARK    2  A    between atoms: CA_17  and  CB_20
REMARK    3  A    between atoms: CB_20  and  CG_21
REMARK    4  A    between atoms: CG_21  and  CD1_23
REMARK    5  A    between atoms: CG_21  and  CD2_24
REMARK    6  A    between atoms: C_22  and  C_26
REMARK    7  A    between atoms: C_25  and  C_27
REMARK                            x       y       z     vdW  Elec       q    Type
REMARK                         _______ _______ _______ _____ _____    ______ ____
ROOT
ATOM      1  O   LEU A   2       8.874 -12.259  32.063  0.00  0.00    -0.274 OA
ATOM      2  O   UNK A   1       6.231  -7.756  31.017  0.00  0.00    -0.274 OA
ATOM      5  N   UNK A   1       7.730 -10.376  32.817  0.00  0.00    -0.288 N 
ATOM      6  N   LEU A   2       7.187  -9.716  30.295  0.00  0.00    -0.302 N 
ATOM     12  C   UNK A   1       6.538  -9.545  32.627  0.00  0.00    +0.164 C 
ATOM     13  C   UNK A   1       7.645  -7.878  34.203  0.00  0.00    +0.113 C 
ATOM     14  C   UNK A   1       6.325  -8.542  33.769  0.00  0.00    +0.059 C 
ATOM     15  C   UNK A   1       8.770  -8.901  34.478  0.00  0.00    +0.046 C 
ATOM     16  C   UNK A   1       8.375 -10.333  34.125  0.00  0.00    +0.110 C 
ATOM     17  CA  LEU A   2       7.441 -11.131  30.506  0.00  0.00    +0.159 C 
ATOM     18  C   LEU A   2       8.115 -11.312  31.858  0.00  0.00    +0.237 C 
ATOM     19  C   UNK A   1       6.662  -8.880  31.265  0.00  0.00    +0.234 C 
ATOM     28  H   LEU A   2       7.381  -9.321  29.381  0.00  0.00    +0.150 HD
ENDROOT
BRANCH  13   7
ATOM      7  N   UNK A   1       7.447  -6.945  35.320  0.00  0.00    -0.236 N 
ATOM      8  N   UNK A   1       7.186  -7.418  36.545  0.00  0.00    -0.064 NA
ATOM      9  N   UNK A   1       7.056  -6.366  37.346  0.00  0.00    -0.124 NA
ATOM     22  C   UNK A   1       7.492  -5.591  35.292  0.00  0.00    +0.156 A 
ATOM     25  C   UNK A   1       7.241  -5.239  36.594  0.00  0.00    +0.179 A 
BRANCH  22  26
ATOM      3  O   UNK A   1       8.886  -4.609  33.653  0.00  0.00    -0.269 OA
ATOM     10  N   UNK A   1       6.657  -4.152  33.531  0.00  0.00    -0.324 N 
ATOM     26  C   UNK A   1       7.747  -4.777  34.147  0.00  0.00    +0.262 C 
ATOM     29  H   UNK A   1       5.709  -4.258  33.879  0.00  0.00    +0.145 HD
ATOM     30  H   UNK A   1       6.785  -3.570  32.711  0.00  0.00    +0.145 HD
ENDBRANCH  22  26
BRANCH  25  27
ATOM      4  O   UNK A   1       8.102  -3.387  37.783  0.00  0.00    -0.269 OA
ATOM     11  N   UNK A   1       6.001  -3.185  36.924  0.00  0.00    -0.324 N 
ATOM     27  C   UNK A   1       7.169  -3.920  37.141  0.00  0.00    +0.264 C 
ATOM     31  H   UNK A   1       5.216  -3.563  36.404  0.00  0.00    +0.145 HD
ATOM     32  H   UNK A   1       5.903  -2.242  37.285  0.00  0.00    +0.145 HD
ENDBRANCH  25  27
ENDBRANCH  13   7
BRANCH  17  20
ATOM     20  CB  LEU A   2       6.199 -11.994  30.353  0.00  0.00    +0.034 C 
BRANCH  20  21
ATOM     21  CG  LEU A   2       6.488 -13.397  29.791  0.00  0.00    -0.015 C 
ATOM     23  CD1 LEU A   2       5.215 -14.128  29.364  0.00  0.00    +0.007 C 
ATOM     24  CD2 LEU A   2       7.447 -13.294  28.601  0.00  0.00    +0.007 C 
ENDBRANCH  20  21
ENDBRANCH  17  20
TORSDOF 5
ENDMDL
MODEL 6
REMARK VINA RESULT:      -6.0     24.151     26.109
REMARK  Name = 11882511
REMARK  7 active torsions:
REMARK  status: ('A' for Active; 'I' for Inactive)
REMARK    1  A    between atoms: N_7  and  C_13
REMARK    2  A    between atoms: CA_17  and  CB_20
REMARK    3  A    between atoms: CB_20  and  CG_21
REMARK    4  A    between atoms: CG_21  and  CD1_23
REMARK    5  A    between atoms: CG_21  and  CD2_24
REMARK    6  A    between atoms: C_22  and  C_26
REMARK    7  A    between atoms: C_25  and  C_27
REMARK                            x       y       z     vdW  Elec       q    Type
REMARK                         _______ _______ _______ _____ _____    ______ ____
ROOT
ATOM      1  O   LEU A   2      -4.094   7.653  40.803  0.00  0.00    -0.274 OA
ATOM      2  O   UNK A   1      -0.206   8.899  37.384  0.00  0.00    -0.274 OA
ATOM      5  N   UNK A   1      -3.426   8.467  38.726  0.00  0.00    -0.288 N 
ATOM      6  N   LEU A   2      -0.894   7.917  39.342  0.00  0.00    -0.302 N 
ATOM     12  C   UNK A   1      -2.534   8.245  37.585  0.00  0.00    +0.164 C 
ATOM     13  C   UNK A   1      -3.212  10.574  36.807  0.00  0.00    +0.113 C 
ATOM     14  C   UNK A   1      -2.879   9.132  36.381  0.00  0.00    +0.059 C 
ATOM     15  C   UNK A   1      -4.256  10.639  37.944  0.00  0.00    +0.046 C 
ATOM     16  C   UNK A   1      -4.626   9.264  38.493  0.00  0.00    +0.110 C 
ATOM     17  CA  LEU A   2      -1.876   7.123  40.062  0.00  0.00    +0.159 C 
ATOM     18  C   LEU A   2      -3.238   7.788  39.929  0.00  0.00    +0.237 C 
ATOM     19  C   UNK A   1      -1.109   8.437  38.079  0.00  0.00    +0.234 C 
ATOM     28  H   LEU A   2       0.007   8.081  39.778  0.00  0.00    +0.150 HD
ENDROOT
BRANCH  13   7
ATOM      7  N   UNK A   1      -3.576  11.414  35.659  0.00  0.00    -0.236 N 
ATOM      8  N   UNK A   1      -4.839  11.426  35.216  0.00  0.00    -0.064 NA
ATOM      9  N   UNK A   1      -4.880  12.262  34.184  0.00  0.00    -0.124 NA
ATOM     22  C   UNK A   1      -2.771  12.230  34.935  0.00  0.00    +0.156 A 
ATOM     25  C   UNK A   1      -3.621  12.763  33.999  0.00  0.00    +0.179 A 
BRANCH  22  26
ATOM      3  O   UNK A   1      -0.912  13.404  35.805  0.00  0.00    -0.269 OA
ATOM     10  N   UNK A   1      -0.480  11.517  34.601  0.00  0.00    -0.324 N 
ATOM     26  C   UNK A   1      -1.376  12.445  35.145  0.00  0.00    +0.262 C 
ATOM     29  H   UNK A   1      -0.797  10.714  34.066  0.00  0.00    +0.145 HD
ATOM     30  H   UNK A   1       0.520  11.621  34.729  0.00  0.00    +0.145 HD
ENDBRANCH  22  26
BRANCH  25  27
ATOM      4  O   UNK A   1      -2.957  14.881  33.187  0.00  0.00    -0.269 OA
ATOM     11  N   UNK A   1      -3.359  13.254  31.642  0.00  0.00    -0.324 N 
ATOM     27  C   UNK A   1      -3.302  13.699  32.966  0.00  0.00    +0.264 C 
ATOM     31  H   UNK A   1      -3.623  12.304  31.404  0.00  0.00    +0.145 HD
ATOM     32  H   UNK A   1      -3.135  13.877  30.872  0.00  0.00    +0.145 HD
ENDBRANCH  25  27
ENDBRANCH  13   7
BRANCH  17  20
ATOM     20  CB  LEU A   2      -1.896   5.663  39.636  0.00  0.00    +0.034 C 
BRANCH  20  21
ATOM     21  CG  LEU A   2      -0.865   4.791  40.375  0.00  0.00    -0.015 C 
ATOM     23  CD1 LEU A   2       0.509   4.819  39.705  0.00  0.00    +0.007 C 
ATOM     24  CD2 LEU A   2      -0.740   5.253  41.830  0.00  0.00    +0.007 C 
ENDBRANCH  20  21
ENDBRANCH  17  20
TORSDOF 5
ENDMDL
MODEL 7
REMARK VINA RESULT:      -6.0     15.916     18.816
REMARK  Name = 11882511
REMARK  7 active torsions:
REMARK  status: ('A' for Active; 'I' for Inactive)
REMARK    1  A    between atoms: N_7  and  C_13
REMARK    2  A    between atoms: CA_17  and  CB_20
REMARK    3  A    between atoms: CB_20  and  CG_21
REMARK    4  A    between atoms: CG_21  and  CD1_23
REMARK    5  A    between atoms: CG_21  and  CD2_24
REMARK    6  A    between atoms: C_22  and  C_26
REMARK    7  A    between atoms: C_25  and  C_27
REMARK                            x       y       z     vdW  Elec       q    Type
REMARK                         _______ _______ _______ _____ _____    ______ ____
ROOT
ATOM      1  O   LEU A   2      13.154   3.274  -0.361  0.00  0.00    -0.274 OA
ATOM      2  O   UNK A   1      14.632   6.795   3.350  0.00  0.00    -0.274 OA
ATOM      5  N   UNK A   1      12.587   4.794   1.308  0.00  0.00    -0.288 N 
ATOM      6  N   LEU A   2      15.157   5.443   1.569  0.00  0.00    -0.302 N 
ATOM     12  C   UNK A   1      12.847   6.132   1.846  0.00  0.00    +0.164 C 
ATOM     13  C   UNK A   1      11.470   5.413   3.865  0.00  0.00    +0.113 C 
ATOM     14  C   UNK A   1      11.813   6.561   2.897  0.00  0.00    +0.059 C 
ATOM     15  C   UNK A   1      11.105   4.101   3.136  0.00  0.00    +0.046 C 
ATOM     16  C   UNK A   1      11.300   4.184   1.625  0.00  0.00    +0.110 C 
ATOM     17  CA  LEU A   2      14.801   4.898   0.269  0.00  0.00    +0.159 C 
ATOM     18  C   LEU A   2      13.447   4.213   0.378  0.00  0.00    +0.237 C 
ATOM     19  C   UNK A   1      14.273   6.140   2.374  0.00  0.00    +0.234 C 
ATOM     28  H   LEU A   2      16.109   5.328   1.897  0.00  0.00    +0.150 HD
ENDROOT
BRANCH  13   7
ATOM      7  N   UNK A   1      10.455   5.812   4.849  0.00  0.00    -0.236 N 
ATOM      8  N   UNK A   1       9.157   5.645   4.572  0.00  0.00    -0.064 NA
ATOM      9  N   UNK A   1       8.476   6.085   5.624  0.00  0.00    -0.124 NA
ATOM     22  C   UNK A   1      10.652   6.360   6.073  0.00  0.00    +0.156 A 
ATOM     25  C   UNK A   1       9.378   6.527   6.553  0.00  0.00    +0.179 A 
BRANCH  22  26
ATOM      3  O   UNK A   1      12.626   7.638   6.322  0.00  0.00    -0.269 OA
ATOM     10  N   UNK A   1      12.361   5.852   7.713  0.00  0.00    -0.324 N 
ATOM     26  C   UNK A   1      11.912   6.668   6.669  0.00  0.00    +0.262 C 
ATOM     29  H   UNK A   1      11.821   5.057   8.045  0.00  0.00    +0.145 HD
ATOM     30  H   UNK A   1      13.246   6.034   8.174  0.00  0.00    +0.145 HD
ENDBRANCH  22  26
BRANCH  25  27
ATOM      4  O   UNK A   1       8.658   8.266   7.983  0.00  0.00    -0.269 OA
ATOM     11  N   UNK A   1       8.951   6.207   8.915  0.00  0.00    -0.324 N 
ATOM     27  C   UNK A   1       8.987   7.071   7.817  0.00  0.00    +0.264 C 
ATOM     31  H   UNK A   1       9.198   5.226   8.838  0.00  0.00    +0.145 HD
ATOM     32  H   UNK A   1       8.673   6.541   9.832  0.00  0.00    +0.145 HD
ENDBRANCH  25  27
ENDBRANCH  13   7
BRANCH  17  20
ATOM     20  CB  LEU A   2      14.845   5.930  -0.846  0.00  0.00    +0.034 C 
BRANCH  20  21
ATOM     21  CG  LEU A   2      15.733   5.517  -2.034  0.00  0.00    -0.015 C 
ATOM     23  CD1 LEU A   2      16.854   4.565  -1.620  0.00  0.00    +0.007 C 
ATOM     24  CD2 LEU A   2      14.876   4.864  -3.122  0.00  0.00    +0.007 C 
ENDBRANCH  20  21
ENDBRANCH  17  20
TORSDOF 5
ENDMDL
MODEL 8
REMARK VINA RESULT:      -5.9     28.065     30.865
REMARK  Name = 11882511
REMARK  7 active torsions:
REMARK  status: ('A' for Active; 'I' for Inactive)
REMARK    1  A    between atoms: N_7  and  C_13
REMARK    2  A    between atoms: CA_17  and  CB_20
REMARK    3  A    between atoms: CB_20  and  CG_21
REMARK    4  A    between atoms: CG_21  and  CD1_23
REMARK    5  A    between atoms: CG_21  and  CD2_24
REMARK    6  A    between atoms: C_22  and  C_26
REMARK    7  A    between atoms: C_25  and  C_27
REMARK                            x       y       z     vdW  Elec       q    Type
REMARK                         _______ _______ _______ _____ _____    ______ ____
ROOT
ATOM      1  O   LEU A   2     -13.062   4.745  22.533  0.00  0.00    -0.274 OA
ATOM      2  O   UNK A   1     -15.883   7.764  19.174  0.00  0.00    -0.274 OA
ATOM      5  N   UNK A   1     -13.293   6.709  21.302  0.00  0.00    -0.288 N 
ATOM      6  N   LEU A   2     -15.726   5.930  20.547  0.00  0.00    -0.302 N 
ATOM     12  C   UNK A   1     -14.213   7.788  20.934  0.00  0.00    +0.164 C 
ATOM     13  C   UNK A   1     -12.467   8.471  19.210  0.00  0.00    +0.113 C 
ATOM     14  C   UNK A   1     -13.507   8.958  20.237  0.00  0.00    +0.059 C 
ATOM     15  C   UNK A   1     -11.497   7.418  19.790  0.00  0.00    +0.046 C 
ATOM     16  C   UNK A   1     -11.864   6.985  21.207  0.00  0.00    +0.110 C 
ATOM     17  CA  LEU A   2     -15.264   5.341  21.793  0.00  0.00    +0.159 C 
ATOM     18  C   LEU A   2     -13.759   5.539  21.902  0.00  0.00    +0.237 C 
ATOM     19  C   UNK A   1     -15.320   7.173  20.092  0.00  0.00    +0.234 C 
ATOM     28  H   LEU A   2     -16.400   5.416  19.990  0.00  0.00    +0.150 HD
ENDROOT
BRANCH  13   7
ATOM      7  N   UNK A   1     -11.765   9.590  18.568  0.00  0.00    -0.236 N 
ATOM      8  N   UNK A   1     -11.550  10.721  19.251  0.00  0.00    -0.064 NA
ATOM      9  N   UNK A   1     -10.904  11.549  18.436  0.00  0.00    -0.124 NA
ATOM     22  C   UNK A   1     -11.273   9.651  17.306  0.00  0.00    +0.156 A 
ATOM     25  C   UNK A   1     -10.727  10.908  17.241  0.00  0.00    +0.179 A 
BRANCH  22  26
ATOM      3  O   UNK A   1     -12.202   8.575  15.417  0.00  0.00    -0.269 OA
ATOM     10  N   UNK A   1     -10.365   7.613  16.363  0.00  0.00    -0.324 N 
ATOM     26  C   UNK A   1     -11.337   8.619  16.323  0.00  0.00    +0.262 C 
ATOM     29  H   UNK A   1      -9.633   7.600  17.067  0.00  0.00    +0.145 HD
ATOM     30  H   UNK A   1     -10.363   6.862  15.682  0.00  0.00    +0.145 HD
ENDBRANCH  22  26
BRANCH  25  27
ATOM      4  O   UNK A   1      -8.963  12.102  16.216  0.00  0.00    -0.269 OA
ATOM     11  N   UNK A   1     -10.671  11.414  14.873  0.00  0.00    -0.324 N 
ATOM     27  C   UNK A   1     -10.063  11.512  16.127  0.00  0.00    +0.264 C 
ATOM     31  H   UNK A   1     -11.558  10.939  14.740  0.00  0.00    +0.145 HD
ATOM     32  H   UNK A   1     -10.238  11.819  14.050  0.00  0.00    +0.145 HD
ENDBRANCH  25  27
ENDBRANCH  13   7
BRANCH  17  20
ATOM     20  CB  LEU A   2     -16.009   5.856  23.014  0.00  0.00    +0.034 C 
BRANCH  20  21
ATOM     21  CG  LEU A   2     -16.737   4.753  23.803  0.00  0.00    -0.015 C 
ATOM     23  CD1 LEU A   2     -17.387   3.715  22.889  0.00  0.00    +0.007 C 
ATOM     24  CD2 LEU A   2     -15.757   4.062  24.755  0.00  0.00    +0.007 C 
ENDBRANCH  20  21
ENDBRANCH  17  20
TORSDOF 5
ENDMDL
MODEL 9
REMARK VINA RESULT:      -5.9     33.012     34.615
REMARK  Name = 11882511
REMARK  7 active torsions:
REMARK  status: ('A' for Active; 'I' for Inactive)
REMARK    1  A    between atoms: N_7  and  C_13
REMARK    2  A    between atoms: CA_17  and  CB_20
REMARK    3  A    between atoms: CB_20  and  CG_21
REMARK    4  A    between atoms: CG_21  and  CD1_23
REMARK    5  A    between atoms: CG_21  and  CD2_24
REMARK    6  A    between atoms: C_22  and  C_26
REMARK    7  A    between atoms: C_25  and  C_27
REMARK                            x       y       z     vdW  Elec       q    Type
REMARK                         _______ _______ _______ _____ _____    ______ ____
ROOT
ATOM      1  O   LEU A   2     -17.244   8.843  33.673  0.00  0.00    -0.274 OA
ATOM      2  O   UNK A   1     -12.547   6.861  32.132  0.00  0.00    -0.274 OA
ATOM      5  N   UNK A   1     -15.800   7.029  33.453  0.00  0.00    -0.288 N 
ATOM      6  N   LEU A   2     -13.908   8.666  32.541  0.00  0.00    -0.302 N 
ATOM     12  C   UNK A   1     -14.422   6.567  33.643  0.00  0.00    +0.164 C 
ATOM     13  C   UNK A   1     -15.105   4.497  32.325  0.00  0.00    +0.113 C 
ATOM     14  C   UNK A   1     -14.283   5.044  33.507  0.00  0.00    +0.059 C 
ATOM     15  C   UNK A   1     -16.570   4.986  32.334  0.00  0.00    +0.046 C 
ATOM     16  C   UNK A   1     -16.849   6.015  33.427  0.00  0.00    +0.110 C 
ATOM     17  CA  LEU A   2     -14.911   9.308  33.374  0.00  0.00    +0.159 C 
ATOM     18  C   LEU A   2     -16.116   8.386  33.491  0.00  0.00    +0.237 C 
ATOM     19  C   UNK A   1     -13.547   7.336  32.666  0.00  0.00    +0.234 C 
ATOM     28  H   LEU A   2     -13.428   9.225  31.844  0.00  0.00    +0.150 HD
ENDROOT
BRANCH  13   7
ATOM      7  N   UNK A   1     -14.999   3.036  32.216  0.00  0.00    -0.236 N 
ATOM      8  N   UNK A   1     -14.707   2.306  33.299  0.00  0.00    -0.064 NA
ATOM      9  N   UNK A   1     -14.678   1.035  32.914  0.00  0.00    -0.124 NA
ATOM     22  C   UNK A   1     -15.165   2.269  31.111  0.00  0.00    +0.156 A 
ATOM     25  C   UNK A   1     -14.956   0.995  31.575  0.00  0.00    +0.179 A 
BRANCH  22  26
ATOM      3  O   UNK A   1     -16.636   2.700  29.310  0.00  0.00    -0.269 OA
ATOM     10  N   UNK A   1     -14.449   3.278  29.028  0.00  0.00    -0.324 N 
ATOM     26  C   UNK A   1     -15.482   2.734  29.799  0.00  0.00    +0.262 C 
ATOM     29  H   UNK A   1     -13.496   3.341  29.374  0.00  0.00    +0.145 HD
ATOM     30  H   UNK A   1     -14.625   3.629  28.093  0.00  0.00    +0.145 HD
ENDBRANCH  22  26
BRANCH  25  27
ATOM      4  O   UNK A   1     -16.055  -0.887  30.660  0.00  0.00    -0.269 OA
ATOM     11  N   UNK A   1     -13.825  -0.679  30.241  0.00  0.00    -0.324 N 
ATOM     27  C   UNK A   1     -15.007  -0.224  30.829  0.00  0.00    +0.264 C 
ATOM     31  H   UNK A   1     -12.948  -0.178  30.337  0.00  0.00    +0.145 HD
ATOM     32  H   UNK A   1     -13.809  -1.534  29.695  0.00  0.00    +0.145 HD
ENDBRANCH  25  27
ENDBRANCH  13   7
BRANCH  17  20
ATOM     20  CB  LEU A   2     -14.376   9.745  34.728  0.00  0.00    +0.034 C 
BRANCH  20  21
ATOM     21  CG  LEU A   2     -12.903  10.189  34.695  0.00  0.00    -0.015 C 
ATOM     23  CD1 LEU A   2     -12.748  11.706  34.807  0.00  0.00    +0.007 C 
ATOM     24  CD2 LEU A   2     -12.128   9.506  35.826  0.00  0.00    +0.007 C 
ENDBRANCH  20  21
ENDBRANCH  17  20
TORSDOF 5
ENDMDL
MODEL 10
REMARK VINA RESULT:      -5.7     27.124     30.800
REMARK  Name = 11882511
REMARK  7 active torsions:
REMARK  status: ('A' for Active; 'I' for Inactive)
REMARK    1  A    between atoms: N_7  and  C_13
REMARK    2  A    between atoms: CA_17  and  CB_20
REMARK    3  A    between atoms: CB_20  and  CG_21
REMARK    4  A    between atoms: CG_21  and  CD1_23
REMARK    5  A    between atoms: CG_21  and  CD2_24
REMARK    6  A    between atoms: C_22  and  C_26
REMARK    7  A    between atoms: C_25  and  C_27
REMARK                            x       y       z     vdW  Elec       q    Type
REMARK                         _______ _______ _______ _____ _____    ______ ____
ROOT
ATOM      1  O   LEU A   2      -8.530 -11.070   8.222  0.00  0.00    -0.274 OA
ATOM      2  O   UNK A   1      -3.816  -8.755   9.105  0.00  0.00    -0.274 OA
ATOM      5  N   UNK A   1      -6.968 -10.190   9.708  0.00  0.00    -0.288 N 
ATOM      6  N   LEU A   2      -5.453  -9.444   7.648  0.00  0.00    -0.302 N 
ATOM     12  C   UNK A   1      -6.063  -9.066   9.966  0.00  0.00    +0.164 C 
ATOM     13  C   UNK A   1      -5.099 -10.483  11.850  0.00  0.00    +0.113 C 
ATOM     14  C   UNK A   1      -5.506  -9.069  11.396  0.00  0.00    +0.059 C 
ATOM     15  C   UNK A   1      -6.209 -11.532  11.615  0.00  0.00    +0.046 C 
ATOM     16  C   UNK A   1      -7.409 -10.972  10.857  0.00  0.00    +0.110 C 
ATOM     17  CA  LEU A   2      -6.865  -9.589   7.337  0.00  0.00    +0.159 C 
ATOM     18  C   LEU A   2      -7.534 -10.383   8.448  0.00  0.00    +0.237 C 
ATOM     19  C   UNK A   1      -4.977  -9.105   8.902  0.00  0.00    +0.234 C 
ATOM     28  H   LEU A   2      -4.777  -9.576   6.903  0.00  0.00    +0.150 HD
ENDROOT
BRANCH  13   7
ATOM      7  N   UNK A   1      -4.600 -10.491  13.231  0.00  0.00    -0.236 N 
ATOM      8  N   UNK A   1      -5.432 -10.221  14.243  0.00  0.00    -0.064 NA
ATOM      9  N   UNK A   1      -4.721 -10.299  15.363  0.00  0.00    -0.124 NA
ATOM     22  C   UNK A   1      -3.339 -10.749  13.659  0.00  0.00    +0.156 A 
ATOM     25  C   UNK A   1      -3.436 -10.622  15.022  0.00  0.00    +0.179 A 
BRANCH  22  26
ATOM      3  O   UNK A   1      -1.788 -12.238  12.676  0.00  0.00    -0.269 OA
ATOM     10  N   UNK A   1      -1.577 -10.027  12.162  0.00  0.00    -0.324 N 
ATOM     26  C   UNK A   1      -2.217 -11.072  12.839  0.00  0.00    +0.262 C 
ATOM     29  H   UNK A   1      -1.885  -9.063  12.247  0.00  0.00    +0.145 HD
ATOM     30  H   UNK A   1      -0.780 -10.206  11.561  0.00  0.00    +0.145 HD
ENDBRANCH  22  26
BRANCH  25  27
ATOM      4  O   UNK A   1      -1.223 -10.387  15.818  0.00  0.00    -0.269 OA
ATOM     11  N   UNK A   1      -2.720 -11.413  17.196  0.00  0.00    -0.324 N 
ATOM     27  C   UNK A   1      -2.396 -10.788  15.989  0.00  0.00    +0.264 C 
ATOM     31  H   UNK A   1      -3.657 -11.750  17.393  0.00  0.00    +0.145 HD
ATOM     32  H   UNK A   1      -2.020 -11.549  17.918  0.00  0.00    +0.145 HD
ENDBRANCH  25  27
ENDBRANCH  13   7
BRANCH  17  20
ATOM     20  CB  LEU A   2      -7.559  -8.263   7.067  0.00  0.00    +0.034 C 
BRANCH  20  21
ATOM     21  CG  LEU A   2      -8.688  -8.359   6.026  0.00  0.00    -0.015 C 
ATOM     23  CD1 LEU A   2      -9.883  -7.474   6.380  0.00  0.00    +0.007 C 
ATOM     24  CD2 LEU A   2      -8.154  -7.978   4.642  0.00  0.00    +0.007 C 
ENDBRANCH  20  21
ENDBRANCH  17  20
TORSDOF 5
ENDMDL
