MODEL 1
REMARK VINA RESULT:      -5.9      0.000      0.000
REMARK  Name = 51137752
REMARK  6 active torsions:
REMARK  status: ('A' for Active; 'I' for Inactive)
REMARK    1  A    between atoms: C_6  and  C_10
REMARK    2  A    between atoms: C_9  and  C_14
REMARK    3  A    between atoms: C_15  and  C_16
REMARK    4  A    between atoms: C_15  and  C_17
REMARK    5  A    between atoms: C_15  and  C_18
REMARK    6  A    between atoms: C_15  and  C_19
REMARK                            x       y       z     vdW  Elec       q    Type
REMARK                         _______ _______ _______ _____ _____    ______ ____
ROOT
ATOM      1  O   UNL     1      -3.371 -12.021  10.328  0.00  0.00    -0.275 OA
ATOM      3  N   UNL     1      -2.660 -11.278  12.401  0.00  0.00    -0.300 N 
ATOM      9  C   UNL     1      -2.274 -10.902  14.719  0.00  0.00    +0.095 C 
ATOM     10  C   UNL     1      -3.042 -11.110  11.080  0.00  0.00    +0.219 C 
ATOM     11  C   UNL     1      -2.285 -10.223  13.341  0.00  0.00    +0.120 C 
ATOM     12  C   UNL     1      -1.912 -12.351  14.361  0.00  0.00    +0.033 C 
ATOM     13  C   UNL     1      -2.614 -12.587  13.031  0.00  0.00    +0.108 C 
ENDROOT
BRANCH   9  14
ATOM      2  O   UNL     1      -3.540 -11.372  16.769  0.00  0.00    -0.424 OA
ATOM      4  N   UNL     1      -4.723 -10.312  15.194  0.00  0.00    -0.112 NA
ATOM      5  N   UNL     1      -5.548 -10.513  16.286  0.00  0.00    -0.112 NA
ATOM     14  C   UNL     1      -3.563 -10.830  15.521  0.00  0.00    +0.222 A 
ATOM     16  C   UNL     1      -4.815 -11.134  17.179  0.00  0.00    +0.223 A 
BRANCH  16  15
ATOM     15  C   UNL     1      -5.175 -11.594  18.527  0.00  0.00    +0.040 C 
ATOM     17  C   UNL     1      -3.921 -12.062  19.345  0.00  0.00    +0.020 C 
ATOM     18  C   UNL     1      -6.168 -12.809  18.490  0.00  0.00    +0.020 C 
ATOM     19  C   UNL     1      -5.881 -10.536  19.456  0.00  0.00    +0.020 C 
ENDBRANCH  16  15
ENDBRANCH   9  14
BRANCH  10   6
ATOM      6  C   UNL     1      -3.071  -9.707  10.568  0.00  0.00    +0.075 C 
ATOM      7  C   UNL     1      -4.347  -8.922  10.654  0.00  0.00    +0.013 C 
ATOM      8  C   UNL     1      -3.849  -9.403   9.321  0.00  0.00    +0.013 C 
ENDBRANCH  10   6
TORSDOF 3
ENDMDL
MODEL 2
REMARK VINA RESULT:      -5.7     26.254     27.633
REMARK  Name = 51137752
REMARK  6 active torsions:
REMARK  status: ('A' for Active; 'I' for Inactive)
REMARK    1  A    between atoms: C_6  and  C_10
REMARK    2  A    between atoms: C_9  and  C_14
REMARK    3  A    between atoms: C_15  and  C_16
REMARK    4  A    between atoms: C_15  and  C_17
REMARK    5  A    between atoms: C_15  and  C_18
REMARK    6  A    between atoms: C_15  and  C_19
REMARK                            x       y       z     vdW  Elec       q    Type
REMARK                         _______ _______ _______ _____ _____    ______ ____
ROOT
ATOM      1  O   UNL     1      10.523   9.190  22.626  0.00  0.00    -0.275 OA
ATOM      3  N   UNL     1      11.652   9.580  20.643  0.00  0.00    -0.300 N 
ATOM      9  C   UNL     1      12.816   9.430  18.573  0.00  0.00    +0.095 C 
ATOM     10  C   UNL     1      11.340   9.828  21.970  0.00  0.00    +0.219 C 
ATOM     11  C   UNL     1      12.633  10.294  19.829  0.00  0.00    +0.120 C 
ATOM     12  C   UNL     1      11.443   8.752  18.446  0.00  0.00    +0.033 C 
ATOM     13  C   UNL     1      11.018   8.510  19.888  0.00  0.00    +0.108 C 
ENDROOT
BRANCH   9  14
ATOM      2  O   UNL     1      14.783   8.462  19.677  0.00  0.00    -0.424 OA
ATOM      4  N   UNL     1      14.238   7.461  17.753  0.00  0.00    -0.112 NA
ATOM      5  N   UNL     1      15.353   6.823  18.266  0.00  0.00    -0.112 NA
ATOM     14  C   UNL     1      13.941   8.410  18.610  0.00  0.00    +0.222 A 
ATOM     16  C   UNL     1      15.634   7.441  19.389  0.00  0.00    +0.223 A 
BRANCH  16  15
ATOM     15  C   UNL     1      16.715   7.185  20.351  0.00  0.00    +0.040 C 
ATOM     17  C   UNL     1      17.846   6.285  19.741  0.00  0.00    +0.020 C 
ATOM     18  C   UNL     1      16.196   6.448  21.635  0.00  0.00    +0.020 C 
ATOM     19  C   UNL     1      17.470   8.452  20.900  0.00  0.00    +0.020 C 
ENDBRANCH  16  15
ENDBRANCH   9  14
BRANCH  10   6
ATOM      6  C   UNL     1      12.085  10.941  22.632  0.00  0.00    +0.075 C 
ATOM      7  C   UNL     1      11.645  11.410  23.988  0.00  0.00    +0.013 C 
ATOM      8  C   UNL     1      11.416  12.276  22.783  0.00  0.00    +0.013 C 
ENDBRANCH  10   6
TORSDOF 3
ENDMDL
MODEL 3
REMARK VINA RESULT:      -5.7     22.324     25.367
REMARK  Name = 51137752
REMARK  6 active torsions:
REMARK  status: ('A' for Active; 'I' for Inactive)
REMARK    1  A    between atoms: C_6  and  C_10
REMARK    2  A    between atoms: C_9  and  C_14
REMARK    3  A    between atoms: C_15  and  C_16
REMARK    4  A    between atoms: C_15  and  C_17
REMARK    5  A    between atoms: C_15  and  C_18
REMARK    6  A    between atoms: C_15  and  C_19
REMARK                            x       y       z     vdW  Elec       q    Type
REMARK                         _______ _______ _______ _____ _____    ______ ____
ROOT
ATOM      1  O   UNL     1       8.391   7.156   8.003  0.00  0.00    -0.275 OA
ATOM      3  N   UNL     1      10.300   6.965   6.707  0.00  0.00    -0.300 N 
ATOM      9  C   UNL     1      11.902   6.800   4.957  0.00  0.00    +0.095 C 
ATOM     10  C   UNL     1       9.501   6.672   7.801  0.00  0.00    +0.219 C 
ATOM     11  C   UNL     1      11.613   6.398   6.410  0.00  0.00    +0.120 C 
ATOM     12  C   UNL     1      11.128   8.120   4.828  0.00  0.00    +0.033 C 
ATOM     13  C   UNL     1       9.882   7.899   5.674  0.00  0.00    +0.108 C 
ENDROOT
BRANCH   9  14
ATOM      2  O   UNL     1      12.157   5.875   2.697  0.00  0.00    -0.424 OA
ATOM      4  N   UNL     1      10.582   4.863   3.920  0.00  0.00    -0.112 NA
ATOM      5  N   UNL     1      10.620   4.250   2.681  0.00  0.00    -0.112 NA
ATOM     14  C   UNL     1      11.494   5.805   3.884  0.00  0.00    +0.222 A 
ATOM     16  C   UNL     1      11.554   4.873   2.002  0.00  0.00    +0.223 A 
BRANCH  16  15
ATOM     15  C   UNL     1      12.025   4.640   0.630  0.00  0.00    +0.040 C 
ATOM     17  C   UNL     1      12.957   3.383   0.532  0.00  0.00    +0.020 C 
ATOM     18  C   UNL     1      12.850   5.856   0.077  0.00  0.00    +0.020 C 
ATOM     19  C   UNL     1      10.911   4.393  -0.454  0.00  0.00    +0.020 C 
ENDBRANCH  16  15
ENDBRANCH   9  14
BRANCH  10   6
ATOM      6  C   UNL     1      10.041   5.675   8.773  0.00  0.00    +0.075 C 
ATOM      7  C   UNL     1       9.677   4.227   8.615  0.00  0.00    +0.013 C 
ATOM      8  C   UNL     1       9.102   5.026   9.748  0.00  0.00    +0.013 C 
ENDBRANCH  10   6
TORSDOF 3
ENDMDL
MODEL 4
REMARK VINA RESULT:      -5.4     21.679     23.043
REMARK  Name = 51137752
REMARK  6 active torsions:
REMARK  status: ('A' for Active; 'I' for Inactive)
REMARK    1  A    between atoms: C_6  and  C_10
REMARK    2  A    between atoms: C_9  and  C_14
REMARK    3  A    between atoms: C_15  and  C_16
REMARK    4  A    between atoms: C_15  and  C_17
REMARK    5  A    between atoms: C_15  and  C_18
REMARK    6  A    between atoms: C_15  and  C_19
REMARK                            x       y       z     vdW  Elec       q    Type
REMARK                         _______ _______ _______ _____ _____    ______ ____
ROOT
ATOM      1  O   UNL     1     -16.775   5.085  25.981  0.00  0.00    -0.275 OA
ATOM      3  N   UNL     1     -16.957   2.925  26.794  0.00  0.00    -0.300 N 
ATOM      9  C   UNL     1     -17.092   0.954  28.120  0.00  0.00    +0.095 C 
ATOM     10  C   UNL     1     -16.526   3.886  25.894  0.00  0.00    +0.219 C 
ATOM     11  C   UNL     1     -16.666   1.493  26.747  0.00  0.00    +0.120 C 
ATOM     12  C   UNL     1     -18.223   1.919  28.509  0.00  0.00    +0.033 C 
ATOM     13  C   UNL     1     -17.766   3.261  27.955  0.00  0.00    +0.108 C 
ENDROOT
BRANCH   9  14
ATOM      2  O   UNL     1     -16.073   1.835  30.172  0.00  0.00    -0.424 OA
ATOM      4  N   UNL     1     -15.013   0.059  29.323  0.00  0.00    -0.112 NA
ATOM      5  N   UNL     1     -14.341   0.451  30.466  0.00  0.00    -0.112 NA
ATOM     14  C   UNL     1     -16.015   0.895  29.190  0.00  0.00    +0.222 A 
ATOM     16  C   UNL     1     -14.996   1.490  30.928  0.00  0.00    +0.223 A 
BRANCH  16  15
ATOM     15  C   UNL     1     -14.730   2.308  32.119  0.00  0.00    +0.040 C 
ATOM     17  C   UNL     1     -15.808   3.431  32.314  0.00  0.00    +0.020 C 
ATOM     18  C   UNL     1     -13.338   3.028  32.040  0.00  0.00    +0.020 C 
ATOM     19  C   UNL     1     -14.702   1.543  33.494  0.00  0.00    +0.020 C 
ENDBRANCH  16  15
ENDBRANCH   9  14
BRANCH  10   6
ATOM      6  C   UNL     1     -15.680   3.406  24.761  0.00  0.00    +0.075 C 
ATOM      7  C   UNL     1     -15.089   4.408  23.813  0.00  0.00    +0.013 C 
ATOM      8  C   UNL     1     -16.208   3.516  23.360  0.00  0.00    +0.013 C 
ENDBRANCH  10   6
TORSDOF 3
ENDMDL
MODEL 5
REMARK VINA RESULT:      -5.3      3.236      4.978
REMARK  Name = 51137752
REMARK  6 active torsions:
REMARK  status: ('A' for Active; 'I' for Inactive)
REMARK    1  A    between atoms: C_6  and  C_10
REMARK    2  A    between atoms: C_9  and  C_14
REMARK    3  A    between atoms: C_15  and  C_16
REMARK    4  A    between atoms: C_15  and  C_17
REMARK    5  A    between atoms: C_15  and  C_18
REMARK    6  A    between atoms: C_15  and  C_19
REMARK                            x       y       z     vdW  Elec       q    Type
REMARK                         _______ _______ _______ _____ _____    ______ ____
ROOT
ATOM      1  O   UNL     1      -4.456 -13.007  14.780  0.00  0.00    -0.275 OA
ATOM      3  N   UNL     1      -4.700 -11.697  16.672  0.00  0.00    -0.300 N 
ATOM      9  C   UNL     1      -5.306 -10.746  18.767  0.00  0.00    +0.095 C 
ATOM     10  C   UNL     1      -4.536 -11.905  15.313  0.00  0.00    +0.219 C 
ATOM     11  C   UNL     1      -4.825 -10.408  17.349  0.00  0.00    +0.120 C 
ATOM     12  C   UNL     1      -4.705 -12.143  18.987  0.00  0.00    +0.033 C 
ATOM     13  C   UNL     1      -4.795 -12.800  17.616  0.00  0.00    +0.108 C 
ENDROOT
BRANCH   9  14
ATOM      2  O   UNL     1      -7.567 -10.093  18.070  0.00  0.00    -0.424 OA
ATOM      4  N   UNL     1      -7.509 -11.280  19.964  0.00  0.00    -0.112 NA
ATOM      5  N   UNL     1      -8.830 -10.980  19.688  0.00  0.00    -0.112 NA
ATOM     14  C   UNL     1      -6.808 -10.742  18.994  0.00  0.00    +0.222 A 
ATOM     16  C   UNL     1      -8.815 -10.287  18.574  0.00  0.00    +0.223 A 
BRANCH  16  15
ATOM     15  C   UNL     1      -9.934  -9.711  17.817  0.00  0.00    +0.040 C 
ATOM     17  C   UNL     1     -10.245 -10.524  16.512  0.00  0.00    +0.020 C 
ATOM     18  C   UNL     1      -9.643  -8.235  17.368  0.00  0.00    +0.020 C 
ATOM     19  C   UNL     1     -11.314  -9.629  18.570  0.00  0.00    +0.020 C 
ENDBRANCH  16  15
ENDBRANCH   9  14
BRANCH  10   6
ATOM      6  C   UNL     1      -4.481 -10.684  14.454  0.00  0.00    +0.075 C 
ATOM      7  C   UNL     1      -4.997 -10.755  13.046  0.00  0.00    +0.013 C 
ATOM      8  C   UNL     1      -3.521 -10.648  13.300  0.00  0.00    +0.013 C 
ENDBRANCH  10   6
TORSDOF 3
ENDMDL
MODEL 6
REMARK VINA RESULT:      -5.3     27.501     28.837
REMARK  Name = 51137752
REMARK  6 active torsions:
REMARK  status: ('A' for Active; 'I' for Inactive)
REMARK    1  A    between atoms: C_6  and  C_10
REMARK    2  A    between atoms: C_9  and  C_14
REMARK    3  A    between atoms: C_15  and  C_16
REMARK    4  A    between atoms: C_15  and  C_17
REMARK    5  A    between atoms: C_15  and  C_18
REMARK    6  A    between atoms: C_15  and  C_19
REMARK                            x       y       z     vdW  Elec       q    Type
REMARK                         _______ _______ _______ _____ _____    ______ ____
ROOT
ATOM      1  O   UNL     1      10.849  11.280  25.469  0.00  0.00    -0.275 OA
ATOM      3  N   UNL     1      11.189  11.131  23.184  0.00  0.00    -0.300 N 
ATOM      9  C   UNL     1      11.837  10.534  20.974  0.00  0.00    +0.095 C 
ATOM     10  C   UNL     1      11.046  11.813  24.381  0.00  0.00    +0.219 C 
ATOM     11  C   UNL     1      11.449  11.718  21.871  0.00  0.00    +0.120 C 
ATOM     12  C   UNL     1      11.064   9.374  21.619  0.00  0.00    +0.033 C 
ATOM     13  C   UNL     1      11.117   9.680  23.109  0.00  0.00    +0.108 C 
ENDROOT
BRANCH   9  14
ATOM      2  O   UNL     1      13.665   8.916  20.718  0.00  0.00    -0.424 OA
ATOM      4  N   UNL     1      14.349  11.038  20.886  0.00  0.00    -0.112 NA
ATOM      5  N   UNL     1      15.469  10.238  20.748  0.00  0.00    -0.112 NA
ATOM     14  C   UNL     1      13.320  10.224  20.864  0.00  0.00    +0.222 A 
ATOM     16  C   UNL     1      15.021   9.009  20.653  0.00  0.00    +0.223 A 
BRANCH  16  15
ATOM     15  C   UNL     1      15.765   7.753  20.488  0.00  0.00    +0.040 C 
ATOM     17  C   UNL     1      15.348   6.677  21.551  0.00  0.00    +0.020 C 
ATOM     18  C   UNL     1      17.313   7.962  20.642  0.00  0.00    +0.020 C 
ATOM     19  C   UNL     1      15.601   7.025  19.102  0.00  0.00    +0.020 C 
ENDBRANCH  16  15
ENDBRANCH   9  14
BRANCH  10   6
ATOM      6  C   UNL     1      11.169  13.301  24.319  0.00  0.00    +0.075 C 
ATOM      7  C   UNL     1      10.625  14.128  25.447  0.00  0.00    +0.013 C 
ATOM      8  C   UNL     1       9.931  14.126  24.116  0.00  0.00    +0.013 C 
ENDBRANCH  10   6
TORSDOF 3
ENDMDL
MODEL 7
REMARK VINA RESULT:      -5.0     20.961     23.022
REMARK  Name = 51137752
REMARK  6 active torsions:
REMARK  status: ('A' for Active; 'I' for Inactive)
REMARK    1  A    between atoms: C_6  and  C_10
REMARK    2  A    between atoms: C_9  and  C_14
REMARK    3  A    between atoms: C_15  and  C_16
REMARK    4  A    between atoms: C_15  and  C_17
REMARK    5  A    between atoms: C_15  and  C_18
REMARK    6  A    between atoms: C_15  and  C_19
REMARK                            x       y       z     vdW  Elec       q    Type
REMARK                         _______ _______ _______ _____ _____    ______ ____
ROOT
ATOM      1  O   UNL     1     -12.529   9.712  20.910  0.00  0.00    -0.275 OA
ATOM      3  N   UNL     1     -11.052  10.247  19.210  0.00  0.00    -0.300 N 
ATOM      9  C   UNL     1      -9.967  11.074  17.260  0.00  0.00    +0.095 C 
ATOM     10  C   UNL     1     -11.616   9.401  20.151  0.00  0.00    +0.219 C 
ATOM     11  C   UNL     1      -9.983   9.917  18.269  0.00  0.00    +0.120 C 
ATOM     12  C   UNL     1     -10.472  12.250  18.110  0.00  0.00    +0.033 C 
ATOM     13  C   UNL     1     -11.505  11.618  19.033  0.00  0.00    +0.108 C 
ENDROOT
BRANCH   9  14
ATOM      2  O   UNL     1     -10.732   9.681  15.390  0.00  0.00    -0.424 OA
ATOM      4  N   UNL     1     -11.607  11.739  15.406  0.00  0.00    -0.112 NA
ATOM      5  N   UNL     1     -12.117  11.066  14.310  0.00  0.00    -0.112 NA
ATOM     14  C   UNL     1     -10.804  10.892  16.005  0.00  0.00    +0.222 A 
ATOM     16  C   UNL     1     -11.579   9.870  14.342  0.00  0.00    +0.223 A 
BRANCH  16  15
ATOM     15  C   UNL     1     -11.763   8.737  13.425  0.00  0.00    +0.040 C 
ATOM     17  C   UNL     1     -10.500   7.809  13.372  0.00  0.00    +0.020 C 
ATOM     18  C   UNL     1     -12.036   9.210  11.953  0.00  0.00    +0.020 C 
ATOM     19  C   UNL     1     -12.956   7.764  13.754  0.00  0.00    +0.020 C 
ENDBRANCH  16  15
ENDBRANCH   9  14
BRANCH  10   6
ATOM      6  C   UNL     1     -11.073   8.011  20.207  0.00  0.00    +0.075 C 
ATOM      7  C   UNL     1     -11.680   6.952  19.335  0.00  0.00    +0.013 C 
ATOM      8  C   UNL     1     -11.911   6.926  20.818  0.00  0.00    +0.013 C 
ENDBRANCH  10   6
TORSDOF 3
ENDMDL
MODEL 8
REMARK VINA RESULT:      -4.9     23.167     25.029
REMARK  Name = 51137752
REMARK  6 active torsions:
REMARK  status: ('A' for Active; 'I' for Inactive)
REMARK    1  A    between atoms: C_6  and  C_10
REMARK    2  A    between atoms: C_9  and  C_14
REMARK    3  A    between atoms: C_15  and  C_16
REMARK    4  A    between atoms: C_15  and  C_17
REMARK    5  A    between atoms: C_15  and  C_18
REMARK    6  A    between atoms: C_15  and  C_19
REMARK                            x       y       z     vdW  Elec       q    Type
REMARK                         _______ _______ _______ _____ _____    ______ ____
ROOT
ATOM      1  O   UNL     1      17.694  -6.413  29.186  0.00  0.00    -0.275 OA
ATOM      3  N   UNL     1      17.443  -7.007  26.963  0.00  0.00    -0.300 N 
ATOM      9  C   UNL     1      17.627  -7.295  24.609  0.00  0.00    +0.095 C 
ATOM     10  C   UNL     1      16.977  -6.656  28.220  0.00  0.00    +0.219 C 
ATOM     11  C   UNL     1      16.632  -7.281  25.778  0.00  0.00    +0.120 C 
ATOM     12  C   UNL     1      18.920  -7.766  25.291  0.00  0.00    +0.033 C 
ATOM     13  C   UNL     1      18.862  -7.124  26.670  0.00  0.00    +0.108 C 
ENDROOT
BRANCH   9  14
ATOM      2  O   UNL     1      16.949  -4.981  24.150  0.00  0.00    -0.424 OA
ATOM      4  N   UNL     1      18.745  -5.647  22.994  0.00  0.00    -0.112 NA
ATOM      5  N   UNL     1      18.473  -4.337  22.644  0.00  0.00    -0.112 NA
ATOM     14  C   UNL     1      17.830  -5.981  23.874  0.00  0.00    +0.222 A 
ATOM     16  C   UNL     1      17.418  -3.990  23.343  0.00  0.00    +0.223 A 
BRANCH  16  15
ATOM     15  C   UNL     1      16.695  -2.712  23.373  0.00  0.00    +0.040 C 
ATOM     17  C   UNL     1      17.448  -1.590  22.576  0.00  0.00    +0.020 C 
ATOM     18  C   UNL     1      16.507  -2.176  24.836  0.00  0.00    +0.020 C 
ATOM     19  C   UNL     1      15.242  -2.721  22.767  0.00  0.00    +0.020 C 
ENDBRANCH  16  15
ENDBRANCH   9  14
BRANCH  10   6
ATOM      6  C   UNL     1      15.496  -6.547  28.375  0.00  0.00    +0.075 C 
ATOM      7  C   UNL     1      14.930  -6.086  29.687  0.00  0.00    +0.013 C 
ATOM      8  C   UNL     1      14.784  -7.521  29.270  0.00  0.00    +0.013 C 
ENDBRANCH  10   6
TORSDOF 3
ENDMDL
MODEL 9
REMARK VINA RESULT:      -4.9     26.607     28.788
REMARK  Name = 51137752
REMARK  6 active torsions:
REMARK  status: ('A' for Active; 'I' for Inactive)
REMARK    1  A    between atoms: C_6  and  C_10
REMARK    2  A    between atoms: C_9  and  C_14
REMARK    3  A    between atoms: C_15  and  C_16
REMARK    4  A    between atoms: C_15  and  C_17
REMARK    5  A    between atoms: C_15  and  C_18
REMARK    6  A    between atoms: C_15  and  C_19
REMARK                            x       y       z     vdW  Elec       q    Type
REMARK                         _______ _______ _______ _____ _____    ______ ____
ROOT
ATOM      1  O   UNL     1      15.737  -5.598  -5.677  0.00  0.00    -0.275 OA
ATOM      3  N   UNL     1      16.463  -4.035  -4.132  0.00  0.00    -0.300 N 
ATOM      9  C   UNL     1      17.697  -2.507  -2.789  0.00  0.00    +0.095 C 
ATOM     10  C   UNL     1      15.710  -5.122  -4.547  0.00  0.00    +0.219 C 
ATOM     11  C   UNL     1      16.484  -3.448  -2.794  0.00  0.00    +0.120 C 
ATOM     12  C   UNL     1      17.786  -2.089  -4.265  0.00  0.00    +0.033 C 
ATOM     13  C   UNL     1      17.377  -3.342  -5.026  0.00  0.00    +0.108 C 
ENDROOT
BRANCH   9  14
ATOM      2  O   UNL     1      18.931  -4.014  -1.295  0.00  0.00    -0.424 OA
ATOM      4  N   UNL     1      20.236  -2.846  -2.687  0.00  0.00    -0.112 NA
ATOM      5  N   UNL     1      21.051  -3.648  -1.909  0.00  0.00    -0.112 NA
ATOM     14  C   UNL     1      19.008  -3.093  -2.294  0.00  0.00    +0.222 A 
ATOM     16  C   UNL     1      20.246  -4.311  -1.113  0.00  0.00    +0.223 A 
BRANCH  16  15
ATOM     15  C   UNL     1      20.564  -5.306  -0.079  0.00  0.00    +0.040 C 
ATOM     17  C   UNL     1      22.108  -5.421   0.172  0.00  0.00    +0.020 C 
ATOM     18  C   UNL     1      20.063  -6.741  -0.469  0.00  0.00    +0.020 C 
ATOM     19  C   UNL     1      19.949  -5.047   1.347  0.00  0.00    +0.020 C 
ENDBRANCH  16  15
ENDBRANCH   9  14
BRANCH  10   6
ATOM      6  C   UNL     1      14.832  -5.755  -3.518  0.00  0.00    +0.075 C 
ATOM      7  C   UNL     1      13.921  -6.877  -3.924  0.00  0.00    +0.013 C 
ATOM      8  C   UNL     1      13.349  -5.530  -3.589  0.00  0.00    +0.013 C 
ENDBRANCH  10   6
TORSDOF 3
ENDMDL
MODEL 10
REMARK VINA RESULT:      -4.7     24.063     26.129
REMARK  Name = 51137752
REMARK  6 active torsions:
REMARK  status: ('A' for Active; 'I' for Inactive)
REMARK    1  A    between atoms: C_6  and  C_10
REMARK    2  A    between atoms: C_9  and  C_14
REMARK    3  A    between atoms: C_15  and  C_16
REMARK    4  A    between atoms: C_15  and  C_17
REMARK    5  A    between atoms: C_15  and  C_18
REMARK    6  A    between atoms: C_15  and  C_19
REMARK                            x       y       z     vdW  Elec       q    Type
REMARK                         _______ _______ _______ _____ _____    ______ ____
ROOT
ATOM      1  O   UNL     1      15.189  -3.502  31.135  0.00  0.00    -0.275 OA
ATOM      3  N   UNL     1      16.872  -4.225  29.720  0.00  0.00    -0.300 N 
ATOM      9  C   UNL     1      18.435  -4.544  27.954  0.00  0.00    +0.095 C 
ATOM     10  C   UNL     1      15.826  -4.409  30.609  0.00  0.00    +0.219 C 
ATOM     11  C   UNL     1      17.642  -5.271  29.050  0.00  0.00    +0.120 C 
ATOM     12  C   UNL     1      18.620  -3.146  28.564  0.00  0.00    +0.033 C 
ATOM     13  C   UNL     1      17.322  -2.901  29.320  0.00  0.00    +0.108 C 
ENDROOT
BRANCH   9  14
ATOM      2  O   UNL     1      17.829  -3.272  25.944  0.00  0.00    -0.424 OA
ATOM      4  N   UNL     1      17.181  -5.412  25.894  0.00  0.00    -0.112 NA
ATOM      5  N   UNL     1      16.780  -4.817  24.712  0.00  0.00    -0.112 NA
ATOM     14  C   UNL     1      17.788  -4.473  26.582  0.00  0.00    +0.222 A 
ATOM     16  C   UNL     1      17.180  -3.569  24.786  0.00  0.00    +0.223 A 
BRANCH  16  15
ATOM     15  C   UNL     1      17.027  -2.479  23.812  0.00  0.00    +0.040 C 
ATOM     17  C   UNL     1      17.073  -1.068  24.495  0.00  0.00    +0.020 C 
ATOM     18  C   UNL     1      15.661  -2.563  23.044  0.00  0.00    +0.020 C 
ATOM     19  C   UNL     1      18.115  -2.405  22.677  0.00  0.00    +0.020 C 
ENDBRANCH  16  15
ENDBRANCH   9  14
BRANCH  10   6
ATOM      6  C   UNL     1      15.450  -5.823  30.912  0.00  0.00    +0.075 C 
ATOM      7  C   UNL     1      14.301  -6.449  30.176  0.00  0.00    +0.013 C 
ATOM      8  C   UNL     1      14.160  -6.096  31.629  0.00  0.00    +0.013 C 
ENDBRANCH  10   6
TORSDOF 3
ENDMDL
