REMARK  Name = 51136888
REMARK  8 active torsions:
REMARK  status: ('A' for Active; 'I' for Inactive)
REMARK    1  A    between atoms: O_3  and  C_33
REMARK    2  A    between atoms: O_3  and  C_34
REMARK    3  A    between atoms: N_4  and  C_14
REMARK    4  A    between atoms: N_9  and  C_26
REMARK    5  A    between atoms: C_10  and  C_15
REMARK    6  A    between atoms: C_14  and  C_16
REMARK    7  A    between atoms: C_17  and  C_20
REMARK    8  A    between atoms: C_27  and  C_28
REMARK                            x       y       z     vdW  Elec       q    Type
REMARK                         _______ _______ _______ _____ _____    ______ ____
ROOT
ATOM      8  N   UNL     1       1.511  -0.427  -1.733  0.00  0.00    -0.239 NA
ATOM     20  C   UNL     1      -0.655   0.344  -0.984  0.00  0.00    +0.041 A 
ATOM     23  C   UNL     1      -0.066   0.946   0.122  0.00  0.00    +0.016 A 
ATOM     24  C   UNL     1       0.170  -0.325  -1.874  0.00  0.00    +0.124 A 
ATOM     25  C   UNL     1       1.311   0.862   0.302  0.00  0.00    +0.044 A 
ATOM     26  C   UNL     1       2.048   0.171  -0.646  0.00  0.00    +0.125 A 
ENDROOT
BRANCH  20  17
ATOM      1  O   UNL     1      -4.017   0.165  -2.043  0.00  0.00    -0.336 OA
ATOM      5  N   UNL     1      -2.895   1.067  -0.328  0.00  0.00    -0.190 NA
ATOM      6  N   UNL     1      -2.669  -0.154  -2.249  0.00  0.00    -0.056 NA
ATOM     15  C   UNL     1      -4.062   0.885  -0.891  0.00  0.00    +0.245 A 
ATOM     17  C   UNL     1      -2.071   0.412  -1.196  0.00  0.00    +0.204 A 
BRANCH  15  10
ATOM      4  N   UNL     1      -5.776   0.884   0.913  0.00  0.00    -0.287 NA
ATOM     10  C   UNL     1      -5.430   1.356  -0.443  0.00  0.00    +0.146 C 
ATOM     11  C   UNL     1      -5.533   2.890  -0.362  0.00  0.00    +0.030 C 
ATOM     12  C   UNL     1      -6.002   3.182   1.056  0.00  0.00    +0.017 C 
ATOM     13  C   UNL     1      -6.670   1.891   1.485  0.00  0.00    +0.085 C 
BRANCH   4  14
ATOM     14  C   UNL     1      -6.372  -0.446   0.923  0.00  0.00    +0.121 C 
BRANCH  14  16
ATOM      7  N   UNL     1      -4.463  -3.432  -0.408  0.00  0.00    -0.263 NA
ATOM     16  C   UNL     1      -5.331  -1.527   0.802  0.00  0.00    -0.015 A 
ATOM     18  C   UNL     1      -4.304  -1.641   1.732  0.00  0.00    +0.008 A 
ATOM     19  C   UNL     1      -5.366  -2.439  -0.241  0.00  0.00    +0.115 A 
ATOM     21  C   UNL     1      -3.356  -2.650   1.594  0.00  0.00    +0.020 A 
ATOM     22  C   UNL     1      -3.480  -3.511   0.516  0.00  0.00    +0.111 A 
ENDBRANCH  14  16
ENDBRANCH   4  14
ENDBRANCH  15  10
ENDBRANCH  20  17
BRANCH  26   9
ATOM      2  O   UNL     1       3.768   1.283   1.542  0.00  0.00    -0.270 OA
ATOM      9  N   UNL     1       3.432   0.092  -0.455  0.00  0.00    -0.266 N 
ATOM     27  C   UNL     1       4.187   0.633   0.590  0.00  0.00    +0.249 C 
ATOM     35  H   UNL     1       3.896  -0.467  -1.165  0.00  0.00    +0.157 HD
BRANCH  27  28
ATOM     28  C   UNL     1       5.645   0.354   0.530  0.00  0.00    +0.037 A 
ATOM     29  C   UNL     1       6.398   0.322   1.704  0.00  0.00    +0.016 A 
ATOM     30  C   UNL     1       6.261   0.125  -0.700  0.00  0.00    +0.016 A 
ATOM     31  C   UNL     1       7.767   0.061   1.647  0.00  0.00    +0.046 A 
ATOM     32  C   UNL     1       7.631  -0.136  -0.757  0.00  0.00    +0.046 A 
ATOM     33  C   UNL     1       8.383  -0.168   0.417  0.00  0.00    +0.120 A 
BRANCH  33   3
ATOM      3  O   UNL     1       9.720  -0.422   0.362  0.00  0.00    -0.495 OA
ATOM     34  C   UNL     1      10.285  -0.647  -0.928  0.00  0.00    +0.277 C 
ENDBRANCH  33   3
ENDBRANCH  27  28
ENDBRANCH  26   9
TORSDOF 7
