MODEL 1
REMARK VINA RESULT:      -7.3      0.000      0.000
REMARK  Name = 26742832
REMARK  3 active torsions:
REMARK  status: ('A' for Active; 'I' for Inactive)
REMARK    1  A    between atoms: N_6  and  C_21
REMARK    2  A    between atoms: N_7  and  C_18
REMARK    3  A    between atoms: C_21  and  C_25
REMARK                            x       y       z     vdW  Elec       q    Type
REMARK                         _______ _______ _______ _____ _____    ______ ____
ROOT
ATOM      1  O   UNL     1      -5.578  -9.715   6.680  0.00  0.00    -0.276 OA
ATOM      2  O   UNL     1      -1.988 -10.865  13.885  0.00  0.00    -0.253 OA
ATOM      5  N   UNL     1      -3.696 -10.410  12.377  0.00  0.00    -0.285 N 
ATOM      6  N   UNL     1      -7.135  -9.799   8.400  0.00  0.00    -0.297 N 
ATOM      7  N   UNL     1      -4.131 -10.708  14.685  0.00  0.00    -0.296 N 
ATOM      8  C   UNL     1      -5.406  -9.129  11.077  0.00  0.00    +0.011 C 
ATOM      9  C   UNL     1      -4.477  -9.126   9.844  0.00  0.00    +0.004 C 
ATOM     10  C   UNL     1      -3.021  -9.172  10.339  0.00  0.00    +0.023 C 
ATOM     11  C   UNL     1      -5.123 -10.315  12.022  0.00  0.00    +0.113 C 
ATOM     12  C   UNL     1      -6.903  -9.011  10.738  0.00  0.00    +0.024 C 
ATOM     13  C   UNL     1      -4.750 -10.262   8.843  0.00  0.00    +0.100 C 
ATOM     14  C   UNL     1      -2.761 -10.367  11.249  0.00  0.00    +0.109 C 
ATOM     15  C   UNL     1      -7.449 -10.082   9.800  0.00  0.00    +0.108 C 
ATOM     16  C   UNL     1      -5.854  -9.904   7.867  0.00  0.00    +0.216 C 
ATOM     17  C   UNL     1      -3.188 -10.671  13.665  0.00  0.00    +0.302 C 
ATOM     32  H   UNL     1      -5.079 -10.398  14.526  0.00  0.00    +0.151 HD
ENDROOT
BRANCH   7  18
ATOM     18  C   UNL     1      -3.769 -10.973  16.060  0.00  0.00    +0.074 C 
ATOM     19  C   UNL     1      -4.458  -9.987  17.010  0.00  0.00    +0.022 C 
ATOM     20  C   UNL     1      -4.082 -12.424  16.442  0.00  0.00    +0.022 C 
ATOM     22  C   UNL     1      -5.958 -10.251  17.141  0.00  0.00    +0.002 C 
ATOM     23  C   UNL     1      -5.583 -12.684  16.573  0.00  0.00    +0.002 C 
ATOM     24  C   UNL     1      -6.243 -11.698  17.532  0.00  0.00    +0.000 C 
ENDBRANCH   7  18
BRANCH   6  21
ATOM     21  C   UNL     1      -8.244  -9.383   7.553  0.00  0.00    +0.143 C 
BRANCH  21  25
ATOM      3  O   UNL     1     -11.665  -6.128   9.023  0.00  0.00    -0.453 OA
ATOM      4  O   UNL     1     -10.144  -4.268   8.838  0.00  0.00    -0.453 OA
ATOM     25  C   UNL     1      -8.719  -7.999   7.888  0.00  0.00    -0.026 A 
ATOM     26  C   UNL     1     -10.038  -7.800   8.305  0.00  0.00    +0.054 A 
ATOM     27  C   UNL     1      -7.832  -6.913   7.780  0.00  0.00    +0.009 A 
ATOM     28  C   UNL     1     -10.428  -6.511   8.604  0.00  0.00    +0.167 A 
ATOM     29  C   UNL     1      -8.253  -5.618   8.089  0.00  0.00    +0.050 A 
ATOM     30  C   UNL     1      -9.560  -5.449   8.499  0.00  0.00    +0.166 A 
ATOM     31  C   UNL     1     -11.477  -4.706   9.170  0.00  0.00    +0.466 C 
ENDBRANCH  21  25
ENDBRANCH   6  21
TORSDOF 3
ENDMDL
MODEL 2
REMARK VINA RESULT:      -7.3      3.873      7.764
REMARK  Name = 26742832
REMARK  3 active torsions:
REMARK  status: ('A' for Active; 'I' for Inactive)
REMARK    1  A    between atoms: N_6  and  C_21
REMARK    2  A    between atoms: N_7  and  C_18
REMARK    3  A    between atoms: C_21  and  C_25
REMARK                            x       y       z     vdW  Elec       q    Type
REMARK                         _______ _______ _______ _____ _____    ______ ____
ROOT
ATOM      1  O   UNL     1      -6.784 -10.355  19.812  0.00  0.00    -0.276 OA
ATOM      2  O   UNL     1      -1.783 -10.843  13.419  0.00  0.00    -0.253 OA
ATOM      5  N   UNL     1      -3.793 -10.772  14.581  0.00  0.00    -0.285 N 
ATOM      6  N   UNL     1      -7.949 -10.210  17.809  0.00  0.00    -0.297 N 
ATOM      7  N   UNL     1      -3.730 -10.703  12.215  0.00  0.00    -0.296 N 
ATOM      8  C   UNL     1      -5.940 -11.533  15.616  0.00  0.00    +0.011 C 
ATOM      9  C   UNL     1      -5.272 -11.547  17.008  0.00  0.00    +0.004 C 
ATOM     10  C   UNL     1      -3.773 -11.837  16.819  0.00  0.00    +0.023 C 
ATOM     11  C   UNL     1      -5.249 -10.554  14.643  0.00  0.00    +0.113 C 
ATOM     12  C   UNL     1      -7.465 -11.326  15.650  0.00  0.00    +0.024 C 
ATOM     13  C   UNL     1      -5.480 -10.259  17.823  0.00  0.00    +0.100 C 
ATOM     14  C   UNL     1      -3.109 -10.841  15.875  0.00  0.00    +0.109 C 
ATOM     15  C   UNL     1      -7.938 -10.058  16.355  0.00  0.00    +0.108 C 
ATOM     16  C   UNL     1      -6.794 -10.275  18.581  0.00  0.00    +0.216 C 
ATOM     17  C   UNL     1      -3.016 -10.780  13.406  0.00  0.00    +0.302 C 
ATOM     32  H   UNL     1      -4.734 -10.808  12.205  0.00  0.00    +0.151 HD
ENDROOT
BRANCH   7  18
ATOM     18  C   UNL     1      -3.076 -10.692  10.925  0.00  0.00    +0.074 C 
ATOM     19  C   UNL     1      -3.804 -11.604   9.932  0.00  0.00    +0.022 C 
ATOM     20  C   UNL     1      -2.955  -9.263  10.382  0.00  0.00    +0.022 C 
ATOM     22  C   UNL     1      -5.147 -11.028   9.484  0.00  0.00    +0.002 C 
ATOM     23  C   UNL     1      -4.300  -8.691   9.934  0.00  0.00    +0.002 C 
ATOM     24  C   UNL     1      -4.998  -9.611   8.937  0.00  0.00    +0.000 C 
ENDBRANCH   7  18
BRANCH   6  21
ATOM     21  C   UNL     1      -9.257 -10.298  18.446  0.00  0.00    +0.143 C 
BRANCH  21  25
ATOM      3  O   UNL     1     -11.083  -6.163  16.441  0.00  0.00    -0.453 OA
ATOM      4  O   UNL     1     -13.072  -7.279  15.661  0.00  0.00    -0.453 OA
ATOM     25  C   UNL     1     -10.300  -9.520  17.698  0.00  0.00    -0.026 A 
ATOM     26  C   UNL     1     -10.110  -8.158  17.458  0.00  0.00    +0.054 A 
ATOM     27  C   UNL     1     -11.460 -10.171  17.243  0.00  0.00    +0.009 A 
ATOM     28  C   UNL     1     -11.095  -7.485  16.765  0.00  0.00    +0.167 A 
ATOM     29  C   UNL     1     -12.443  -9.467  16.543  0.00  0.00    +0.050 A 
ATOM     30  C   UNL     1     -12.231  -8.122  16.319  0.00  0.00    +0.166 A 
ATOM     31  C   UNL     1     -12.339  -6.040  15.741  0.00  0.00    +0.466 C 
ENDBRANCH  21  25
ENDBRANCH   6  21
TORSDOF 3
ENDMDL
MODEL 3
REMARK VINA RESULT:      -7.3     28.546     30.830
REMARK  Name = 26742832
REMARK  3 active torsions:
REMARK  status: ('A' for Active; 'I' for Inactive)
REMARK    1  A    between atoms: N_6  and  C_21
REMARK    2  A    between atoms: N_7  and  C_18
REMARK    3  A    between atoms: C_21  and  C_25
REMARK                            x       y       z     vdW  Elec       q    Type
REMARK                         _______ _______ _______ _____ _____    ______ ____
ROOT
ATOM      1  O   UNL     1      11.813   6.616  19.848  0.00  0.00    -0.276 OA
ATOM      2  O   UNL     1      19.901   6.406  20.660  0.00  0.00    -0.253 OA
ATOM      5  N   UNL     1      17.749   7.274  20.755  0.00  0.00    -0.285 N 
ATOM      6  N   UNL     1      12.598   8.466  21.010  0.00  0.00    -0.297 N 
ATOM      7  N   UNL     1      19.589   8.426  21.698  0.00  0.00    -0.296 N 
ATOM      8  C   UNL     1      15.742   8.655  20.185  0.00  0.00    +0.011 C 
ATOM      9  C   UNL     1      15.094   7.439  19.489  0.00  0.00    +0.004 C 
ATOM     10  C   UNL     1      16.219   6.538  18.948  0.00  0.00    +0.023 C 
ATOM     11  C   UNL     1      16.759   8.238  21.268  0.00  0.00    +0.113 C 
ATOM     12  C   UNL     1      14.733   9.690  20.716  0.00  0.00    +0.024 C 
ATOM     13  C   UNL     1      14.133   6.636  20.382  0.00  0.00    +0.100 C 
ATOM     14  C   UNL     1      17.194   6.119  20.043  0.00  0.00    +0.109 C 
ATOM     15  C   UNL     1      13.695   9.150  21.694  0.00  0.00    +0.108 C 
ATOM     16  C   UNL     1      12.737   7.229  20.388  0.00  0.00    +0.216 C 
ATOM     17  C   UNL     1      19.133   7.307  21.011  0.00  0.00    +0.302 C 
ATOM     32  H   UNL     1      18.989   9.225  21.844  0.00  0.00    +0.151 HD
ENDROOT
BRANCH   7  18
ATOM     18  C   UNL     1      20.982   8.604  22.044  0.00  0.00    +0.074 C 
ATOM     19  C   UNL     1      21.710   9.435  20.983  0.00  0.00    +0.022 C 
ATOM     20  C   UNL     1      21.128   9.228  23.436  0.00  0.00    +0.022 C 
ATOM     22  C   UNL     1      21.304  10.909  21.013  0.00  0.00    +0.002 C 
ATOM     23  C   UNL     1      20.723  10.701  23.462  0.00  0.00    +0.002 C 
ATOM     24  C   UNL     1      21.470  11.510  22.406  0.00  0.00    +0.000 C 
ENDBRANCH   7  18
BRANCH   6  21
ATOM     21  C   UNL     1      11.311   9.148  20.997  0.00  0.00    +0.143 C 
BRANCH  21  25
ATOM      3  O   UNL     1      10.790  11.379  25.379  0.00  0.00    -0.453 OA
ATOM      4  O   UNL     1      11.254  13.557  24.458  0.00  0.00    -0.453 OA
ATOM     25  C   UNL     1      11.303  10.352  21.894  0.00  0.00    -0.026 A 
ATOM     26  C   UNL     1      11.029  10.199  23.255  0.00  0.00    +0.054 A 
ATOM     27  C   UNL     1      11.573  11.622  21.357  0.00  0.00    +0.009 A 
ATOM     28  C   UNL     1      11.034  11.334  24.041  0.00  0.00    +0.167 A 
ATOM     29  C   UNL     1      11.572  12.755  22.174  0.00  0.00    +0.050 A 
ATOM     30  C   UNL     1      11.299  12.577  23.515  0.00  0.00    +0.166 A 
ATOM     31  C   UNL     1      10.932  12.792  25.636  0.00  0.00    +0.466 C 
ENDBRANCH  21  25
ENDBRANCH   6  21
TORSDOF 3
ENDMDL
MODEL 4
REMARK VINA RESULT:      -7.2      4.254      7.538
REMARK  Name = 26742832
REMARK  3 active torsions:
REMARK  status: ('A' for Active; 'I' for Inactive)
REMARK    1  A    between atoms: N_6  and  C_21
REMARK    2  A    between atoms: N_7  and  C_18
REMARK    3  A    between atoms: C_21  and  C_25
REMARK                            x       y       z     vdW  Elec       q    Type
REMARK                         _______ _______ _______ _____ _____    ______ ____
ROOT
ATOM      1  O   UNL     1      -1.331 -10.364  15.100  0.00  0.00    -0.276 OA
ATOM      2  O   UNL     1      -7.604 -11.824  20.065  0.00  0.00    -0.253 OA
ATOM      5  N   UNL     1      -6.218 -12.067  18.216  0.00  0.00    -0.285 N 
ATOM      6  N   UNL     1      -2.473 -12.289  14.482  0.00  0.00    -0.297 N 
ATOM      7  N   UNL     1      -7.966 -13.600  18.660  0.00  0.00    -0.296 N 
ATOM      8  C   UNL     1      -5.407 -11.954  15.852  0.00  0.00    +0.011 C 
ATOM      9  C   UNL     1      -4.527 -10.736  16.205  0.00  0.00    +0.004 C 
ATOM     10  C   UNL     1      -5.199  -9.975  17.362  0.00  0.00    +0.023 C 
ATOM     11  C   UNL     1      -5.695 -12.845  17.079  0.00  0.00    +0.113 C 
ATOM     12  C   UNL     1      -4.897 -12.775  14.655  0.00  0.00    +0.024 C 
ATOM     13  C   UNL     1      -3.071 -11.087  16.555  0.00  0.00    +0.100 C 
ATOM     14  C   UNL     1      -5.447 -10.871  18.570  0.00  0.00    +0.109 C 
ATOM     15  C   UNL     1      -3.475 -13.310  14.786  0.00  0.00    +0.108 C 
ATOM     16  C   UNL     1      -2.204 -11.208  15.317  0.00  0.00    +0.216 C 
ATOM     17  C   UNL     1      -7.286 -12.452  19.049  0.00  0.00    +0.302 C 
ATOM     32  H   UNL     1      -7.804 -14.016  17.754  0.00  0.00    +0.151 HD
ENDROOT
BRANCH   7  18
ATOM     18  C   UNL     1      -9.081 -14.129  19.414  0.00  0.00    +0.074 C 
ATOM     19  C   UNL     1     -10.382 -13.404  19.054  0.00  0.00    +0.022 C 
ATOM     20  C   UNL     1      -9.214 -15.643  19.213  0.00  0.00    +0.022 C 
ATOM     22  C   UNL     1     -10.889 -13.770  17.659  0.00  0.00    +0.002 C 
ATOM     23  C   UNL     1      -9.722 -16.004  17.818  0.00  0.00    +0.002 C 
ATOM     24  C   UNL     1     -11.024 -15.280  17.488  0.00  0.00    +0.000 C 
ENDBRANCH   7  18
BRANCH   6  21
ATOM     21  C   UNL     1      -1.744 -12.442  13.231  0.00  0.00    +0.143 C 
BRANCH  21  25
ATOM      3  O   UNL     1      -3.333  -8.858  10.216  0.00  0.00    -0.453 OA
ATOM      4  O   UNL     1      -4.617 -10.394   8.874  0.00  0.00    -0.453 OA
ATOM     25  C   UNL     1      -2.526 -11.929  12.057  0.00  0.00    -0.026 A 
ATOM     26  C   UNL     1      -2.503 -10.566  11.751  0.00  0.00    +0.054 A 
ATOM     27  C   UNL     1      -3.275 -12.824  11.274  0.00  0.00    +0.009 A 
ATOM     28  C   UNL     1      -3.236 -10.141  10.663  0.00  0.00    +0.167 A 
ATOM     29  C   UNL     1      -4.009 -12.368  10.177  0.00  0.00    +0.050 A 
ATOM     30  C   UNL     1      -3.969 -11.018   9.896  0.00  0.00    +0.166 A 
ATOM     31  C   UNL     1      -4.208  -9.027   9.082  0.00  0.00    +0.466 C 
ENDBRANCH  21  25
ENDBRANCH   6  21
TORSDOF 3
ENDMDL
MODEL 5
REMARK VINA RESULT:      -6.8      3.911      7.188
REMARK  Name = 26742832
REMARK  3 active torsions:
REMARK  status: ('A' for Active; 'I' for Inactive)
REMARK    1  A    between atoms: N_6  and  C_21
REMARK    2  A    between atoms: N_7  and  C_18
REMARK    3  A    between atoms: C_21  and  C_25
REMARK                            x       y       z     vdW  Elec       q    Type
REMARK                         _______ _______ _______ _____ _____    ______ ____
ROOT
ATOM      1  O   UNL     1      -1.430 -11.740  14.849  0.00  0.00    -0.276 OA
ATOM      2  O   UNL     1      -7.840 -12.806  19.738  0.00  0.00    -0.253 OA
ATOM      5  N   UNL     1      -6.631 -12.043  17.907  0.00  0.00    -0.285 N 
ATOM      6  N   UNL     1      -3.384 -10.953  13.872  0.00  0.00    -0.297 N 
ATOM      7  N   UNL     1      -8.975 -11.751  18.048  0.00  0.00    -0.296 N 
ATOM      8  C   UNL     1      -5.403 -10.485  16.382  0.00  0.00    +0.011 C 
ATOM      9  C   UNL     1      -4.054 -11.035  16.895  0.00  0.00    +0.004 C 
ATOM     10  C   UNL     1      -4.249 -11.512  18.345  0.00  0.00    +0.023 C 
ATOM     11  C   UNL     1      -6.550 -11.506  16.537  0.00  0.00    +0.113 C 
ATOM     12  C   UNL     1      -5.345  -9.900  14.960  0.00  0.00    +0.024 C 
ATOM     13  C   UNL     1      -3.456 -12.155  16.027  0.00  0.00    +0.100 C 
ATOM     14  C   UNL     1      -5.370 -12.538  18.466  0.00  0.00    +0.109 C 
ATOM     15  C   UNL     1      -4.843 -10.852  13.880  0.00  0.00    +0.108 C 
ATOM     16  C   UNL     1      -2.656 -11.604  14.863  0.00  0.00    +0.216 C 
ATOM     17  C   UNL     1      -7.817 -12.237  18.642  0.00  0.00    +0.302 C 
ATOM     32  H   UNL     1      -8.930 -11.155  17.234  0.00  0.00    +0.151 HD
ENDROOT
BRANCH   7  18
ATOM     18  C   UNL     1     -10.274 -11.880  18.672  0.00  0.00    +0.074 C 
ATOM     19  C   UNL     1     -10.639 -10.611  19.450  0.00  0.00    +0.022 C 
ATOM     20  C   UNL     1     -11.350 -12.227  17.637  0.00  0.00    +0.022 C 
ATOM     22  C   UNL     1     -10.973  -9.436  18.530  0.00  0.00    +0.002 C 
ATOM     23  C   UNL     1     -11.681 -11.050  16.720  0.00  0.00    +0.002 C 
ATOM     24  C   UNL     1     -12.053  -9.803  17.518  0.00  0.00    +0.000 C 
ENDBRANCH   7  18
BRANCH   6  21
ATOM     21  C   UNL     1      -2.692 -10.324  12.755  0.00  0.00    +0.143 C 
BRANCH  21  25
ATOM      3  O   UNL     1      -4.782  -9.297   8.392  0.00  0.00    -0.453 OA
ATOM      4  O   UNL     1      -4.944 -11.624   7.789  0.00  0.00    -0.453 OA
ATOM     25  C   UNL     1      -3.291 -10.709  11.433  0.00  0.00    -0.026 A 
ATOM     26  C   UNL     1      -3.748  -9.716  10.564  0.00  0.00    +0.054 A 
ATOM     27  C   UNL     1      -3.386 -12.066  11.081  0.00  0.00    +0.009 A 
ATOM     28  C   UNL     1      -4.289 -10.117   9.359  0.00  0.00    +0.167 A 
ATOM     29  C   UNL     1      -3.938 -12.447   9.855  0.00  0.00    +0.050 A 
ATOM     30  C   UNL     1      -4.380 -11.446   9.015  0.00  0.00    +0.166 A 
ATOM     31  C   UNL     1      -5.195 -10.259   7.400  0.00  0.00    +0.466 C 
ENDBRANCH  21  25
ENDBRANCH   6  21
TORSDOF 3
ENDMDL
MODEL 6
REMARK VINA RESULT:      -6.7      5.337     10.904
REMARK  Name = 26742832
REMARK  3 active torsions:
REMARK  status: ('A' for Active; 'I' for Inactive)
REMARK    1  A    between atoms: N_6  and  C_21
REMARK    2  A    between atoms: N_7  and  C_18
REMARK    3  A    between atoms: C_21  and  C_25
REMARK                            x       y       z     vdW  Elec       q    Type
REMARK                         _______ _______ _______ _____ _____    ______ ____
ROOT
ATOM      1  O   UNL     1      -9.319 -11.830  19.064  0.00  0.00    -0.276 OA
ATOM      2  O   UNL     1     -15.002  -7.948  14.733  0.00  0.00    -0.253 OA
ATOM      5  N   UNL     1     -12.910  -8.377  15.648  0.00  0.00    -0.285 N 
ATOM      6  N   UNL     1      -8.393 -10.142  17.768  0.00  0.00    -0.297 N 
ATOM      7  N   UNL     1     -13.230  -6.665  14.045  0.00  0.00    -0.296 N 
ATOM      8  C   UNL     1     -10.897  -8.165  17.118  0.00  0.00    +0.011 C 
ATOM      9  C   UNL     1     -11.383  -9.359  17.969  0.00  0.00    +0.004 C 
ATOM     10  C   UNL     1     -12.921  -9.399  17.907  0.00  0.00    +0.023 C 
ATOM     11  C   UNL     1     -11.446  -8.209  15.677  0.00  0.00    +0.113 C 
ATOM     12  C   UNL     1      -9.373  -7.953  17.144  0.00  0.00    +0.024 C 
ATOM     13  C   UNL     1     -10.785 -10.715  17.556  0.00  0.00    +0.100 C 
ATOM     14  C   UNL     1     -13.436  -9.468  16.474  0.00  0.00    +0.109 C 
ATOM     15  C   UNL     1      -8.537  -9.149  16.703  0.00  0.00    +0.108 C 
ATOM     16  C   UNL     1      -9.434 -10.957  18.201  0.00  0.00    +0.216 C 
ATOM     17  C   UNL     1     -13.798  -7.680  14.806  0.00  0.00    +0.302 C 
ATOM     32  H   UNL     1     -12.287  -6.351  14.221  0.00  0.00    +0.151 HD
ENDROOT
BRANCH   7  18
ATOM     18  C   UNL     1     -14.007  -5.864  13.126  0.00  0.00    +0.074 C 
ATOM     19  C   UNL     1     -13.693  -4.374  13.293  0.00  0.00    +0.022 C 
ATOM     20  C   UNL     1     -13.789  -6.319  11.678  0.00  0.00    +0.022 C 
ATOM     22  C   UNL     1     -12.308  -4.005  12.762  0.00  0.00    +0.002 C 
ATOM     23  C   UNL     1     -12.404  -5.947  11.151  0.00  0.00    +0.002 C 
ATOM     24  C   UNL     1     -12.119  -4.457  11.318  0.00  0.00    +0.000 C 
ENDBRANCH   7  18
BRANCH   6  21
ATOM     21  C   UNL     1      -7.078 -10.249  18.386  0.00  0.00    +0.143 C 
BRANCH  21  25
ATOM      3  O   UNL     1      -2.714 -10.433  16.066  0.00  0.00    -0.453 OA
ATOM      4  O   UNL     1      -3.243 -12.522  14.988  0.00  0.00    -0.453 OA
ATOM     25  C   UNL     1      -6.075 -10.886  17.468  0.00  0.00    -0.026 A 
ATOM     26  C   UNL     1      -4.844 -10.264  17.248  0.00  0.00    +0.054 A 
ATOM     27  C   UNL     1      -6.383 -12.105  16.839  0.00  0.00    +0.009 A 
ATOM     28  C   UNL     1      -3.954 -10.887  16.398  0.00  0.00    +0.167 A 
ATOM     29  C   UNL     1      -5.464 -12.715  15.983  0.00  0.00    +0.050 A 
ATOM     30  C   UNL     1      -4.255 -12.081  15.783  0.00  0.00    +0.166 A 
ATOM     31  C   UNL     1      -2.270 -11.475  15.173  0.00  0.00    +0.466 C 
ENDBRANCH  21  25
ENDBRANCH   6  21
TORSDOF 3
ENDMDL
MODEL 7
REMARK VINA RESULT:      -6.6      4.760      7.696
REMARK  Name = 26742832
REMARK  3 active torsions:
REMARK  status: ('A' for Active; 'I' for Inactive)
REMARK    1  A    between atoms: N_6  and  C_21
REMARK    2  A    between atoms: N_7  and  C_18
REMARK    3  A    between atoms: C_21  and  C_25
REMARK                            x       y       z     vdW  Elec       q    Type
REMARK                         _______ _______ _______ _____ _____    ______ ____
ROOT
ATOM      1  O   UNL     1      -8.496 -10.481  20.088  0.00  0.00    -0.276 OA
ATOM      2  O   UNL     1      -1.840 -11.638  15.563  0.00  0.00    -0.253 OA
ATOM      5  N   UNL     1      -4.096 -11.366  16.046  0.00  0.00    -0.285 N 
ATOM      6  N   UNL     1      -8.977 -10.349  17.821  0.00  0.00    -0.297 N 
ATOM      7  N   UNL     1      -3.307 -11.416  13.814  0.00  0.00    -0.296 N 
ATOM      8  C   UNL     1      -6.512 -11.919  16.386  0.00  0.00    +0.011 C 
ATOM      9  C   UNL     1      -6.305 -11.913  17.916  0.00  0.00    +0.004 C 
ATOM     10  C   UNL     1      -4.849 -12.320  18.206  0.00  0.00    +0.023 C 
ATOM     11  C   UNL     1      -5.478 -11.040  15.651  0.00  0.00    +0.113 C 
ATOM     12  C   UNL     1      -7.952 -11.601  15.944  0.00  0.00    +0.024 C 
ATOM     13  C   UNL     1      -6.644 -10.575  18.596  0.00  0.00    +0.100 C 
ATOM     14  C   UNL     1      -3.848 -11.421  17.489  0.00  0.00    +0.109 C 
ATOM     15  C   UNL     1      -8.509 -10.270  16.437  0.00  0.00    +0.108 C 
ATOM     16  C   UNL     1      -8.122 -10.460  18.913  0.00  0.00    +0.216 C 
ATOM     17  C   UNL     1      -3.001 -11.487  15.168  0.00  0.00    +0.302 C 
ATOM     32  H   UNL     1      -4.265 -11.449  13.497  0.00  0.00    +0.151 HD
ENDROOT
BRANCH   7  18
ATOM     18  C   UNL     1      -2.292 -11.515  12.789  0.00  0.00    +0.074 C 
ATOM     19  C   UNL     1      -2.582 -12.680  11.838  0.00  0.00    +0.022 C 
ATOM     20  C   UNL     1      -2.153 -10.194  12.023  0.00  0.00    +0.022 C 
ATOM     22  C   UNL     1      -3.773 -12.404  10.919  0.00  0.00    +0.002 C 
ATOM     23  C   UNL     1      -3.345  -9.922  11.105  0.00  0.00    +0.002 C 
ATOM     24  C   UNL     1      -3.606 -11.091  10.160  0.00  0.00    +0.000 C 
ENDBRANCH   7  18
BRANCH   6  21
ATOM     21  C   UNL     1     -10.419 -10.312  18.025  0.00  0.00    +0.143 C 
BRANCH  21  25
ATOM      3  O   UNL     1     -14.006  -8.166  15.381  0.00  0.00    -0.453 OA
ATOM      4  O   UNL     1     -12.905  -6.023  15.409  0.00  0.00    -0.453 OA
ATOM     25  C   UNL     1     -11.055  -9.141  17.334  0.00  0.00    -0.026 A 
ATOM     26  C   UNL     1     -12.280  -9.303  16.682  0.00  0.00    +0.054 A 
ATOM     27  C   UNL     1     -10.414  -7.891  17.349  0.00  0.00    +0.009 A 
ATOM     28  C   UNL     1     -12.827  -8.199  16.062  0.00  0.00    +0.167 A 
ATOM     29  C   UNL     1     -10.989  -6.788  16.714  0.00  0.00    +0.050 A 
ATOM     30  C   UNL     1     -12.199  -6.974  16.078  0.00  0.00    +0.166 A 
ATOM     31  C   UNL     1     -14.049  -6.784  14.972  0.00  0.00    +0.466 C 
ENDBRANCH  21  25
ENDBRANCH   6  21
TORSDOF 3
ENDMDL
MODEL 8
REMARK VINA RESULT:      -6.6     29.091     31.250
REMARK  Name = 26742832
REMARK  3 active torsions:
REMARK  status: ('A' for Active; 'I' for Inactive)
REMARK    1  A    between atoms: N_6  and  C_21
REMARK    2  A    between atoms: N_7  and  C_18
REMARK    3  A    between atoms: C_21  and  C_25
REMARK                            x       y       z     vdW  Elec       q    Type
REMARK                         _______ _______ _______ _____ _____    ______ ____
ROOT
ATOM      1  O   UNL     1      13.903   6.538  20.809  0.00  0.00    -0.276 OA
ATOM      2  O   UNL     1      21.910   6.843  22.191  0.00  0.00    -0.253 OA
ATOM      5  N   UNL     1      19.744   7.628  21.896  0.00  0.00    -0.285 N 
ATOM      6  N   UNL     1      14.571   8.663  21.462  0.00  0.00    -0.297 N 
ATOM      7  N   UNL     1      21.491   9.059  22.604  0.00  0.00    -0.296 N 
ATOM      8  C   UNL     1      17.765   8.727  20.831  0.00  0.00    +0.011 C 
ATOM      9  C   UNL     1      17.188   7.344  20.457  0.00  0.00    +0.004 C 
ATOM     10  C   UNL     1      18.364   6.369  20.266  0.00  0.00    +0.023 C 
ATOM     11  C   UNL     1      18.704   8.661  22.054  0.00  0.00    +0.113 C 
ATOM     12  C   UNL     1      16.703   9.832  20.984  0.00  0.00    +0.024 C 
ATOM     13  C   UNL     1      16.175   6.786  21.472  0.00  0.00    +0.100 C 
ATOM     14  C   UNL     1      19.261   6.303  21.496  0.00  0.00    +0.109 C 
ATOM     15  C   UNL     1      15.604   9.548  22.001  0.00  0.00    +0.108 C 
ATOM     16  C   UNL     1      14.774   7.308  21.219  0.00  0.00    +0.216 C 
ATOM     17  C   UNL     1      21.105   7.779  22.225  0.00  0.00    +0.302 C 
ATOM     32  H   UNL     1      20.870   9.846  22.481  0.00  0.00    +0.151 HD
ENDROOT
BRANCH   7  18
ATOM     18  C   UNL     1      22.852   9.374  22.980  0.00  0.00    +0.074 C 
ATOM     19  C   UNL     1      23.240  10.781  22.514  0.00  0.00    +0.022 C 
ATOM     20  C   UNL     1      23.057   9.212  24.490  0.00  0.00    +0.022 C 
ATOM     22  C   UNL     1      22.547  11.878  23.323  0.00  0.00    +0.002 C 
ATOM     23  C   UNL     1      22.364  10.311  25.296  0.00  0.00    +0.002 C 
ATOM     24  C   UNL     1      22.776  11.702  24.821  0.00  0.00    +0.000 C 
ENDBRANCH   7  18
BRANCH   6  21
ATOM     21  C   UNL     1      13.279   9.270  21.173  0.00  0.00    +0.143 C 
BRANCH  21  25
ATOM      3  O   UNL     1      10.318   8.408  17.306  0.00  0.00    -0.453 OA
ATOM      4  O   UNL     1      11.975   9.153  15.722  0.00  0.00    -0.453 OA
ATOM     25  C   UNL     1      12.964   9.251  19.705  0.00  0.00    -0.026 A 
ATOM     26  C   UNL     1      11.715   8.804  19.270  0.00  0.00    +0.054 A 
ATOM     27  C   UNL     1      13.931   9.685  18.781  0.00  0.00    +0.009 A 
ATOM     28  C   UNL     1      11.471   8.806  17.912  0.00  0.00    +0.167 A 
ATOM     29  C   UNL     1      13.658   9.677  17.411  0.00  0.00    +0.050 A 
ATOM     30  C   UNL     1      12.416   9.232  17.007  0.00  0.00    +0.166 A 
ATOM     31  C   UNL     1      10.645   8.631  15.919  0.00  0.00    +0.466 C 
ENDBRANCH  21  25
ENDBRANCH   6  21
TORSDOF 3
ENDMDL
MODEL 9
REMARK VINA RESULT:      -6.6     25.857     28.693
REMARK  Name = 26742832
REMARK  3 active torsions:
REMARK  status: ('A' for Active; 'I' for Inactive)
REMARK    1  A    between atoms: N_6  and  C_21
REMARK    2  A    between atoms: N_7  and  C_18
REMARK    3  A    between atoms: C_21  and  C_25
REMARK                            x       y       z     vdW  Elec       q    Type
REMARK                         _______ _______ _______ _____ _____    ______ ____
ROOT
ATOM      1  O   UNL     1      16.791   9.193   0.999  0.00  0.00    -0.276 OA
ATOM      2  O   UNL     1      10.181   4.982   3.166  0.00  0.00    -0.253 OA
ATOM      5  N   UNL     1      12.074   6.304   3.425  0.00  0.00    -0.285 N 
ATOM      6  N   UNL     1      16.258   9.540   3.231  0.00  0.00    -0.297 N 
ATOM      7  N   UNL     1      10.605   5.881   5.232  0.00  0.00    -0.296 N 
ATOM      8  C   UNL     1      14.408   6.980   4.020  0.00  0.00    +0.011 C 
ATOM      9  C   UNL     1      14.822   6.884   2.535  0.00  0.00    +0.004 C 
ATOM     10  C   UNL     1      13.932   5.828   1.855  0.00  0.00    +0.023 C 
ATOM     11  C   UNL     1      12.899   7.254   4.192  0.00  0.00    +0.113 C 
ATOM     12  C   UNL     1      15.265   7.950   4.852  0.00  0.00    +0.024 C 
ATOM     13  C   UNL     1      14.762   8.221   1.775  0.00  0.00    +0.100 C 
ATOM     14  C   UNL     1      12.448   6.137   2.018  0.00  0.00    +0.109 C 
ATOM     15  C   UNL     1      15.315   9.385   4.339  0.00  0.00    +0.108 C 
ATOM     16  C   UNL     1      16.031   9.032   1.956  0.00  0.00    +0.216 C 
ATOM     17  C   UNL     1      10.904   5.672   3.891  0.00  0.00    +0.302 C 
ATOM     32  H   UNL     1      11.275   6.313   5.852  0.00  0.00    +0.151 HD
ENDROOT
BRANCH   7  18
ATOM     18  C   UNL     1       9.434   5.308   5.859  0.00  0.00    +0.074 C 
ATOM     19  C   UNL     1       9.793   4.646   7.193  0.00  0.00    +0.022 C 
ATOM     20  C   UNL     1       8.334   6.361   6.038  0.00  0.00    +0.022 C 
ATOM     22  C   UNL     1      10.126   5.666   8.282  0.00  0.00    +0.002 C 
ATOM     23  C   UNL     1       8.670   7.378   7.128  0.00  0.00    +0.002 C 
ATOM     24  C   UNL     1       9.012   6.695   8.449  0.00  0.00    +0.000 C 
ENDBRANCH   7  18
BRANCH   6  21
ATOM     21  C   UNL     1      17.488  10.265   3.518  0.00  0.00    +0.143 C 
BRANCH  21  25
ATOM      3  O   UNL     1      21.149   6.953   3.227  0.00  0.00    -0.453 OA
ATOM      4  O   UNL     1      21.451   6.902   5.618  0.00  0.00    -0.453 OA
ATOM     25  C   UNL     1      18.539   9.375   4.115  0.00  0.00    -0.026 A 
ATOM     26  C   UNL     1      19.334   8.585   3.281  0.00  0.00    +0.054 A 
ATOM     27  C   UNL     1      18.715   9.345   5.510  0.00  0.00    +0.009 A 
ATOM     28  C   UNL     1      20.288   7.785   3.876  0.00  0.00    +0.167 A 
ATOM     29  C   UNL     1      19.689   8.525   6.086  0.00  0.00    +0.050 A 
ATOM     30  C   UNL     1      20.461   7.756   5.240  0.00  0.00    +0.166 A 
ATOM     31  C   UNL     1      21.883   6.398   4.338  0.00  0.00    +0.466 C 
ENDBRANCH  21  25
ENDBRANCH   6  21
TORSDOF 3
ENDMDL
MODEL 10
REMARK VINA RESULT:      -6.5      5.058      7.116
REMARK  Name = 26742832
REMARK  3 active torsions:
REMARK  status: ('A' for Active; 'I' for Inactive)
REMARK    1  A    between atoms: N_6  and  C_21
REMARK    2  A    between atoms: N_7  and  C_18
REMARK    3  A    between atoms: C_21  and  C_25
REMARK                            x       y       z     vdW  Elec       q    Type
REMARK                         _______ _______ _______ _____ _____    ______ ____
ROOT
ATOM      1  O   UNL     1     -14.235  -7.455  16.113  0.00  0.00    -0.276 OA
ATOM      2  O   UNL     1      -8.103 -11.105  20.012  0.00  0.00    -0.253 OA
ATOM      5  N   UNL     1      -9.379 -10.368  18.216  0.00  0.00    -0.285 N 
ATOM      6  N   UNL     1     -12.561  -8.107  14.641  0.00  0.00    -0.297 N 
ATOM      7  N   UNL     1      -7.248 -11.348  17.898  0.00  0.00    -0.296 N 
ATOM      8  C   UNL     1     -10.932 -10.418  16.256  0.00  0.00    +0.011 C 
ATOM      9  C   UNL     1     -12.076  -9.875  17.139  0.00  0.00    +0.004 C 
ATOM     10  C   UNL     1     -11.830 -10.341  18.585  0.00  0.00    +0.023 C 
ATOM     11  C   UNL     1      -9.539 -10.025  16.791  0.00  0.00    +0.113 C 
ATOM     12  C   UNL     1     -11.083 -10.093  14.759  0.00  0.00    +0.024 C 
ATOM     13  C   UNL     1     -12.251  -8.348  17.080  0.00  0.00    +0.100 C 
ATOM     14  C   UNL     1     -10.458  -9.917  19.099  0.00  0.00    +0.109 C 
ATOM     15  C   UNL     1     -11.206  -8.611  14.420  0.00  0.00    +0.108 C 
ATOM     16  C   UNL     1     -13.112  -7.922  15.906  0.00  0.00    +0.216 C 
ATOM     17  C   UNL     1      -8.235 -10.953  18.793  0.00  0.00    +0.302 C 
ATOM     32  H   UNL     1      -7.425 -11.364  16.904  0.00  0.00    +0.151 HD
ENDROOT
BRANCH   7  18
ATOM     18  C   UNL     1      -6.011 -11.957  18.335  0.00  0.00    +0.074 C 
ATOM     19  C   UNL     1      -5.604 -13.105  17.404  0.00  0.00    +0.022 C 
ATOM     20  C   UNL     1      -4.894 -10.914  18.452  0.00  0.00    +0.022 C 
ATOM     22  C   UNL     1      -5.116 -12.609  16.043  0.00  0.00    +0.002 C 
ATOM     23  C   UNL     1      -4.408 -10.421  17.089  0.00  0.00    +0.002 C 
ATOM     24  C   UNL     1      -3.998 -11.581  16.185  0.00  0.00    +0.000 C 
ENDBRANCH   7  18
BRANCH   6  21
ATOM     21  C   UNL     1     -13.346  -7.800  13.453  0.00  0.00    +0.143 C 
BRANCH  21  25
ATOM      3  O   UNL     1     -11.526  -5.259   9.621  0.00  0.00    -0.453 OA
ATOM      4  O   UNL     1     -11.582  -3.172  10.827  0.00  0.00    -0.453 OA
ATOM     25  C   UNL     1     -12.880  -6.541  12.781  0.00  0.00    -0.026 A 
ATOM     26  C   UNL     1     -12.419  -6.588  11.464  0.00  0.00    +0.054 A 
ATOM     27  C   UNL     1     -12.913  -5.324  13.484  0.00  0.00    +0.009 A 
ATOM     28  C   UNL     1     -12.003  -5.406  10.888  0.00  0.00    +0.167 A 
ATOM     29  C   UNL     1     -12.485  -4.141  12.878  0.00  0.00    +0.050 A 
ATOM     30  C   UNL     1     -12.036  -4.214  11.575  0.00  0.00    +0.166 A 
ATOM     31  C   UNL     1     -11.262  -3.841   9.590  0.00  0.00    +0.466 C 
ENDBRANCH  21  25
ENDBRANCH   6  21
TORSDOF 3
ENDMDL
