REMARK  Name = 45784265
REMARK  6 active torsions:
REMARK  status: ('A' for Active; 'I' for Inactive)
REMARK    1  A    between atoms: N_4  and  C_11
REMARK    2  A    between atoms: C_7  and  C_12
REMARK    3  A    between atoms: C_11  and  C_13
REMARK    4  A    between atoms: C_13  and  C_14
REMARK    5  A    between atoms: C_13  and  C_15
REMARK    6  A    between atoms: C_20  and  C_22
REMARK                            x       y       z     vdW  Elec       q    Type
REMARK                         _______ _______ _______ _____ _____    ______ ____
ROOT
ATOM      5  N   UNL     1       0.524   0.423   1.201  0.00  0.00    -0.342 N 
ATOM      6  N   UNL     1      -0.048   0.539  -0.944  0.00  0.00    -0.232 NA
ATOM     12  C   UNL     1      -0.480   0.618   0.294  0.00  0.00    +0.113 A 
ATOM     16  C   UNL     1       1.683   0.203   0.500  0.00  0.00    +0.067 A 
ATOM     17  C   UNL     1       1.300   0.280  -0.836  0.00  0.00    +0.089 A 
ATOM     18  C   UNL     1       2.993  -0.050   0.909  0.00  0.00    +0.040 A 
ATOM     19  C   UNL     1       2.268   0.098  -1.837  0.00  0.00    +0.030 A 
ATOM     20  C   UNL     1       3.943  -0.229  -0.102  0.00  0.00    +0.057 A 
ATOM     21  C   UNL     1       3.590  -0.157  -1.451  0.00  0.00    +0.014 A 
ATOM     23  H   UNL     1       0.434   0.437   2.208  0.00  0.00    +0.167 HD
ENDROOT
BRANCH  12   7
ATOM      4  N   UNL     1      -4.140   0.591   0.118  0.00  0.00    -0.301 NA
ATOM      7  C   UNL     1      -1.899   0.888   0.740  0.00  0.00    +0.070 C 
ATOM      8  C   UNL     1      -2.894  -0.168   0.241  0.00  0.00    +0.095 C 
ATOM      9  C   UNL     1      -2.482   2.229   0.263  0.00  0.00    +0.028 C 
ATOM     10  C   UNL     1      -3.749   1.860  -0.497  0.00  0.00    +0.085 C 
BRANCH   4  11
ATOM     11  C   UNL     1      -5.146  -0.116  -0.661  0.00  0.00    +0.087 C 
BRANCH  11  13
ATOM     13  C   UNL     1      -5.610  -1.415   0.019  0.00  0.00    -0.003 C 
ATOM     14  C   UNL     1      -6.217  -1.094   1.388  0.00  0.00    +0.008 C 
ATOM     15  C   UNL     1      -6.625  -2.190  -0.825  0.00  0.00    +0.008 C 
ENDBRANCH  11  13
ENDBRANCH   4  11
ENDBRANCH  12   7
BRANCH  20  22
ATOM      1  F   UNL     1       6.170  -0.655  -0.818  0.00  0.00    -0.166 F 
ATOM      2  F   UNL     1       5.933   0.489   1.016  0.00  0.00    -0.166 F 
ATOM      3  F   UNL     1       5.523  -1.641   1.009  0.00  0.00    -0.166 F 
ATOM     22  C   UNL     1       5.364  -0.503   0.272  0.00  0.00    +0.417 C 
ENDBRANCH  20  22
TORSDOF 4
