MODEL 1
REMARK VINA RESULT:      -7.2      0.000      0.000
REMARK  Name = 7664141
REMARK  5 active torsions:
REMARK  status: ('A' for Active; 'I' for Inactive)
REMARK    1  A    between atoms: N_8  and  C_22
REMARK    2  A    between atoms: N_9  and  C_20
REMARK    3  A    between atoms: C_23  and  C_26
REMARK    4  A    between atoms: C_29  and  C_31
REMARK    5  A    between atoms: C_31  and  C_34
REMARK                            x       y       z     vdW  Elec       q    Type
REMARK                         _______ _______ _______ _____ _____    ______ ____
ROOT
ATOM      1  O   UNL     1      14.009   6.575   7.211  0.00  0.00    -0.266 OA
ATOM      2  O   UNL     1       9.989   4.152   4.918  0.00  0.00    -0.252 OA
ATOM      6  N   UNL     1       9.303   6.279   5.515  0.00  0.00    -0.284 N 
ATOM      7  N   UNL     1      11.945   7.570   6.755  0.00  0.00    -0.310 N 
ATOM      8  N   UNL     1       9.917   5.798   3.288  0.00  0.00    -0.269 N 
ATOM     10  C   UNL     1       9.775   6.848   7.903  0.00  0.00    +0.027 C 
ATOM     11  C   UNL     1       9.724   8.632   6.214  0.00  0.00    +0.054 C 
ATOM     12  C   UNL     1       9.322   8.279   7.643  0.00  0.00    +0.018 C 
ATOM     13  C   UNL     1       9.099   5.885   6.911  0.00  0.00    +0.114 C 
ATOM     14  C   UNL     1      11.304   6.785   7.817  0.00  0.00    +0.130 C 
ATOM     15  C   UNL     1       9.007   7.693   5.221  0.00  0.00    +0.119 C 
ATOM     16  C   UNL     1      11.226   8.523   6.025  0.00  0.00    +0.027 A 
ATOM     17  C   UNL     1      11.857   9.311   5.138  0.00  0.00    +0.024 A 
ATOM     18  C   UNL     1      13.332   7.389   6.581  0.00  0.00    +0.273 A 
ATOM     19  C   UNL     1       9.764   5.318   4.587  0.00  0.00    +0.306 C 
ATOM     20  C   UNL     1      13.991   8.268   5.565  0.00  0.00    +0.099 A 
ATOM     21  C   UNL     1      13.267   9.178   4.905  0.00  0.00    +0.030 A 
ATOM     35  H   UNL     1       9.334   6.572   2.989  0.00  0.00    +0.156 HD
ENDROOT
BRANCH   8  22
ATOM     22  C   UNL     1      10.779   5.292   2.283  0.00  0.00    +0.035 A 
ATOM     24  C   UNL     1      12.158   5.379   2.447  0.00  0.00    +0.024 A 
ATOM     25  C   UNL     1      10.242   4.709   1.140  0.00  0.00    +0.024 A 
ATOM     27  C   UNL     1      13.007   4.879   1.459  0.00  0.00    +0.013 A 
ATOM     28  C   UNL     1      11.089   4.209   0.152  0.00  0.00    +0.013 A 
ATOM     29  C   UNL     1      12.473   4.293   0.312  0.00  0.00    +0.017 A 
BRANCH  29  31
ATOM      5  O   UNL     1      14.597   3.813  -0.594  0.00  0.00    -0.292 OA
ATOM     31  C   UNL     1      13.357   3.773  -0.718  0.00  0.00    +0.160 C 
ATOM     34  C   UNL     1      12.778   3.159  -1.989  0.00  0.00    +0.091 C 
ENDBRANCH  29  31
ENDBRANCH   8  22
BRANCH  20   9
ATOM      3  O   UNL     1      16.061   9.956   6.573  0.00  0.00    -0.266 OA
ATOM      9  N   UNL     1      15.330   8.113   5.356  0.00  0.00    -0.275 N 
ATOM     23  C   UNL     1      16.290   8.971   5.875  0.00  0.00    +0.284 C 
ATOM     36  H   UNL     1      15.615   7.450   4.639  0.00  0.00    +0.155 HD
BRANCH  23  26
ATOM      4  O   UNL     1      17.909   8.132   4.340  0.00  0.00    -0.458 OA
ATOM     26  C   UNL     1      17.701   8.628   5.557  0.00  0.00    +0.189 A 
ATOM     30  C   UNL     1      18.794   8.743   6.313  0.00  0.00    +0.054 A 
ATOM     32  C   UNL     1      19.838   8.264   5.486  0.00  0.00    +0.042 A 
ATOM     33  C   UNL     1      19.248   7.905   4.297  0.00  0.00    +0.196 A 
ENDBRANCH  23  26
ENDBRANCH  20   9
TORSDOF 4
ENDMDL
MODEL 2
REMARK VINA RESULT:      -7.1     24.916     29.152
REMARK  Name = 7664141
REMARK  5 active torsions:
REMARK  status: ('A' for Active; 'I' for Inactive)
REMARK    1  A    between atoms: N_8  and  C_22
REMARK    2  A    between atoms: N_9  and  C_20
REMARK    3  A    between atoms: C_23  and  C_26
REMARK    4  A    between atoms: C_29  and  C_31
REMARK    5  A    between atoms: C_31  and  C_34
REMARK                            x       y       z     vdW  Elec       q    Type
REMARK                         _______ _______ _______ _____ _____    ______ ____
ROOT
ATOM      1  O   UNL     1      -8.599  -8.241  17.399  0.00  0.00    -0.266 OA
ATOM      2  O   UNL     1      -3.840 -10.283  16.711  0.00  0.00    -0.252 OA
ATOM      6  N   UNL     1      -5.243 -11.961  17.464  0.00  0.00    -0.284 N 
ATOM      7  N   UNL     1      -8.072 -10.501  17.672  0.00  0.00    -0.310 N 
ATOM      8  N   UNL     1      -4.701 -11.789  15.174  0.00  0.00    -0.269 N 
ATOM     10  C   UNL     1      -6.521 -11.348  19.523  0.00  0.00    +0.027 C 
ATOM     11  C   UNL     1      -7.487 -12.940  17.920  0.00  0.00    +0.054 C 
ATOM     12  C   UNL     1      -7.314 -12.643  19.406  0.00  0.00    +0.018 C 
ATOM     13  C   UNL     1      -5.145 -11.502  18.852  0.00  0.00    +0.114 C 
ATOM     14  C   UNL     1      -7.338 -10.205  18.909  0.00  0.00    +0.130 C 
ATOM     15  C   UNL     1      -6.105 -13.140  17.262  0.00  0.00    +0.119 C 
ATOM     16  C   UNL     1      -8.228 -11.815  17.219  0.00  0.00    +0.027 A 
ATOM     17  C   UNL     1      -9.000 -12.075  16.151  0.00  0.00    +0.024 A 
ATOM     18  C   UNL     1      -8.694  -9.412  17.028  0.00  0.00    +0.273 A 
ATOM     19  C   UNL     1      -4.542 -11.264  16.455  0.00  0.00    +0.306 C 
ATOM     20  C   UNL     1      -9.524  -9.741  15.827  0.00  0.00    +0.099 A 
ATOM     21  C   UNL     1      -9.660 -11.014  15.442  0.00  0.00    +0.030 A 
ATOM     35  H   UNL     1      -4.896 -12.779  15.081  0.00  0.00    +0.156 HD
ENDROOT
BRANCH   8  22
ATOM     22  C   UNL     1      -4.569 -11.100  13.943  0.00  0.00    +0.035 A 
ATOM     24  C   UNL     1      -3.362 -11.146  13.251  0.00  0.00    +0.024 A 
ATOM     25  C   UNL     1      -5.646 -10.383  13.431  0.00  0.00    +0.024 A 
ATOM     27  C   UNL     1      -3.232 -10.469  12.038  0.00  0.00    +0.013 A 
ATOM     28  C   UNL     1      -5.517  -9.707  12.219  0.00  0.00    +0.013 A 
ATOM     29  C   UNL     1      -4.309  -9.750  11.521  0.00  0.00    +0.017 A 
BRANCH  29  31
ATOM      5  O   UNL     1      -3.089  -9.009   9.644  0.00  0.00    -0.292 OA
ATOM     31  C   UNL     1      -4.174  -9.044  10.257  0.00  0.00    +0.160 C 
ATOM     34  C   UNL     1      -5.372  -8.323   9.648  0.00  0.00    +0.091 C 
ENDBRANCH  29  31
ENDBRANCH   8  22
BRANCH  20   9
ATOM      3  O   UNL     1     -12.082  -8.626  16.428  0.00  0.00    -0.266 OA
ATOM      9  N   UNL     1     -10.130  -8.713  15.166  0.00  0.00    -0.275 N 
ATOM     23  C   UNL     1     -11.380  -8.214  15.507  0.00  0.00    +0.284 C 
ATOM     36  H   UNL     1      -9.726  -8.431  14.275  0.00  0.00    +0.155 HD
BRANCH  23  26
ATOM      4  O   UNL     1     -12.127  -7.363  13.411  0.00  0.00    -0.458 OA
ATOM     26  C   UNL     1     -11.867  -7.077  14.684  0.00  0.00    +0.189 A 
ATOM     30  C   UNL     1     -12.083  -5.808  15.033  0.00  0.00    +0.054 A 
ATOM     32  C   UNL     1     -12.539  -5.196  13.841  0.00  0.00    +0.042 A 
ATOM     33  C   UNL     1     -12.548  -6.183  12.884  0.00  0.00    +0.196 A 
ENDBRANCH  23  26
ENDBRANCH  20   9
TORSDOF 4
ENDMDL
MODEL 3
REMARK VINA RESULT:      -7.0      2.068      6.999
REMARK  Name = 7664141
REMARK  5 active torsions:
REMARK  status: ('A' for Active; 'I' for Inactive)
REMARK    1  A    between atoms: N_8  and  C_22
REMARK    2  A    between atoms: N_9  and  C_20
REMARK    3  A    between atoms: C_23  and  C_26
REMARK    4  A    between atoms: C_29  and  C_31
REMARK    5  A    between atoms: C_31  and  C_34
REMARK                            x       y       z     vdW  Elec       q    Type
REMARK                         _______ _______ _______ _____ _____    ______ ____
ROOT
ATOM      1  O   UNL     1      10.215   7.217   0.978  0.00  0.00    -0.266 OA
ATOM      2  O   UNL     1      11.814   9.606   5.340  0.00  0.00    -0.252 OA
ATOM      6  N   UNL     1      10.515   7.790   5.947  0.00  0.00    -0.284 N 
ATOM      7  N   UNL     1       9.789   6.450   3.144  0.00  0.00    -0.310 N 
ATOM      8  N   UNL     1      12.870   7.661   6.027  0.00  0.00    -0.269 N 
ATOM     10  C   UNL     1       8.298   7.716   4.794  0.00  0.00    +0.027 C 
ATOM     11  C   UNL     1       9.379   5.621   5.489  0.00  0.00    +0.054 C 
ATOM     12  C   UNL     1       8.038   6.343   5.401  0.00  0.00    +0.018 C 
ATOM     13  C   UNL     1       9.271   8.515   5.679  0.00  0.00    +0.114 C 
ATOM     14  C   UNL     1       8.830   7.539   3.367  0.00  0.00    +0.130 C 
ATOM     15  C   UNL     1      10.335   6.404   6.415  0.00  0.00    +0.119 C 
ATOM     16  C   UNL     1      10.011   5.469   4.117  0.00  0.00    +0.027 A 
ATOM     17  C   UNL     1      10.804   4.419   3.849  0.00  0.00    +0.024 A 
ATOM     18  C   UNL     1      10.392   6.387   1.871  0.00  0.00    +0.273 A 
ATOM     19  C   UNL     1      11.752   8.440   5.735  0.00  0.00    +0.306 C 
ATOM     20  C   UNL     1      11.289   5.215   1.623  0.00  0.00    +0.099 A 
ATOM     21  C   UNL     1      11.456   4.292   2.575  0.00  0.00    +0.030 A 
ATOM     35  H   UNL     1      12.779   6.931   6.725  0.00  0.00    +0.156 HD
ENDROOT
BRANCH   8  22
ATOM     22  C   UNL     1      14.174   7.798   5.490  0.00  0.00    +0.035 A 
ATOM     24  C   UNL     1      14.437   7.363   4.194  0.00  0.00    +0.024 A 
ATOM     25  C   UNL     1      15.184   8.366   6.259  0.00  0.00    +0.024 A 
ATOM     27  C   UNL     1      15.720   7.499   3.664  0.00  0.00    +0.013 A 
ATOM     28  C   UNL     1      16.466   8.503   5.730  0.00  0.00    +0.013 A 
ATOM     29  C   UNL     1      16.735   8.069   4.431  0.00  0.00    +0.017 A 
BRANCH  29  31
ATOM      5  O   UNL     1      18.256   8.434   2.667  0.00  0.00    -0.292 OA
ATOM     31  C   UNL     1      18.073   8.211   3.879  0.00  0.00    +0.160 C 
ATOM     34  C   UNL     1      19.294   8.087   4.785  0.00  0.00    +0.091 C 
ENDBRANCH  29  31
ENDBRANCH   8  22
BRANCH  20   9
ATOM      3  O   UNL     1      10.259   3.907  -0.696  0.00  0.00    -0.266 OA
ATOM      9  N   UNL     1      11.904   5.125   0.408  0.00  0.00    -0.275 N 
ATOM     23  C   UNL     1      11.349   4.473  -0.685  0.00  0.00    +0.284 C 
ATOM     36  H   UNL     1      12.886   5.388   0.364  0.00  0.00    +0.155 HD
BRANCH  23  26
ATOM      4  O   UNL     1      12.051   5.606  -2.660  0.00  0.00    -0.458 OA
ATOM     26  C   UNL     1      12.159   4.499  -1.930  0.00  0.00    +0.189 A 
ATOM     30  C   UNL     1      12.980   3.573  -2.429  0.00  0.00    +0.054 A 
ATOM     32  C   UNL     1      13.464   4.150  -3.627  0.00  0.00    +0.042 A 
ATOM     33  C   UNL     1      12.869   5.386  -3.722  0.00  0.00    +0.196 A 
ENDBRANCH  23  26
ENDBRANCH  20   9
TORSDOF 4
ENDMDL
MODEL 4
REMARK VINA RESULT:      -6.9      3.795      7.975
REMARK  Name = 7664141
REMARK  5 active torsions:
REMARK  status: ('A' for Active; 'I' for Inactive)
REMARK    1  A    between atoms: N_8  and  C_22
REMARK    2  A    between atoms: N_9  and  C_20
REMARK    3  A    between atoms: C_23  and  C_26
REMARK    4  A    between atoms: C_29  and  C_31
REMARK    5  A    between atoms: C_31  and  C_34
REMARK                            x       y       z     vdW  Elec       q    Type
REMARK                         _______ _______ _______ _____ _____    ______ ____
ROOT
ATOM      1  O   UNL     1      13.022   6.578   3.685  0.00  0.00    -0.266 OA
ATOM      2  O   UNL     1      11.264   9.855   0.017  0.00  0.00    -0.252 OA
ATOM      6  N   UNL     1      11.734   7.827  -0.993  0.00  0.00    -0.284 N 
ATOM      7  N   UNL     1      12.649   5.995   1.454  0.00  0.00    -0.310 N 
ATOM      8  N   UNL     1       9.513   8.408  -0.446  0.00  0.00    -0.269 N 
ATOM     10  C   UNL     1      14.022   6.961  -0.478  0.00  0.00    +0.027 C 
ATOM     11  C   UNL     1      12.200   5.381  -0.949  0.00  0.00    +0.054 C 
ATOM     12  C   UNL     1      13.680   5.659  -1.191  0.00  0.00    +0.018 C 
ATOM     13  C   UNL     1      13.170   8.115  -1.036  0.00  0.00    +0.114 C 
ATOM     14  C   UNL     1      13.821   6.772   1.030  0.00  0.00    +0.130 C 
ATOM     15  C   UNL     1      11.348   6.520  -1.551  0.00  0.00    +0.119 C 
ATOM     16  C   UNL     1      11.902   5.253   0.534  0.00  0.00    +0.027 A 
ATOM     17  C   UNL     1      10.906   4.457   0.959  0.00  0.00    +0.024 A 
ATOM     18  C   UNL     1      12.382   5.955   2.837  0.00  0.00    +0.273 A 
ATOM     19  C   UNL     1      10.856   8.781  -0.430  0.00  0.00    +0.306 C 
ATOM     20  C   UNL     1      11.248   5.078   3.266  0.00  0.00    +0.099 A 
ATOM     21  C   UNL     1      10.574   4.371   2.353  0.00  0.00    +0.030 A 
ATOM     35  H   UNL     1       9.198   7.777  -1.174  0.00  0.00    +0.156 HD
ENDROOT
BRANCH   8  22
ATOM     22  C   UNL     1       8.489   8.855   0.425  0.00  0.00    +0.035 A 
ATOM     24  C   UNL     1       7.388   9.531  -0.092  0.00  0.00    +0.024 A 
ATOM     25  C   UNL     1       8.590   8.616   1.792  0.00  0.00    +0.024 A 
ATOM     27  C   UNL     1       6.378   9.970   0.766  0.00  0.00    +0.013 A 
ATOM     28  C   UNL     1       7.582   9.054   2.650  0.00  0.00    +0.013 A 
ATOM     29  C   UNL     1       6.475   9.731   2.136  0.00  0.00    +0.017 A 
BRANCH  29  31
ATOM      5  O   UNL     1       4.218  10.027   2.755  0.00  0.00    -0.292 OA
ATOM     31  C   UNL     1       5.424  10.189   3.030  0.00  0.00    +0.160 C 
ATOM     34  C   UNL     1       5.779  10.886   4.340  0.00  0.00    +0.091 C 
ENDBRANCH  29  31
ENDBRANCH   8  22
BRANCH  20   9
ATOM      3  O   UNL     1       9.159   6.510   4.582  0.00  0.00    -0.266 OA
ATOM      9  N   UNL     1      10.947   5.023   4.595  0.00  0.00    -0.275 N 
ATOM     23  C   UNL     1       9.915   5.746   5.177  0.00  0.00    +0.284 C 
ATOM     36  H   UNL     1      11.627   4.577   5.207  0.00  0.00    +0.155 HD
BRANCH  23  26
ATOM      4  O   UNL     1       9.976   4.310   7.078  0.00  0.00    -0.458 OA
ATOM     26  C   UNL     1       9.726   5.541   6.637  0.00  0.00    +0.189 A 
ATOM     30  C   UNL     1       9.341   6.408   7.573  0.00  0.00    +0.054 A 
ATOM     32  C   UNL     1       9.342   5.650   8.768  0.00  0.00    +0.042 A 
ATOM     33  C   UNL     1       9.735   4.380   8.414  0.00  0.00    +0.196 A 
ENDBRANCH  23  26
ENDBRANCH  20   9
TORSDOF 4
ENDMDL
MODEL 5
REMARK VINA RESULT:      -6.7      2.324      7.707
REMARK  Name = 7664141
REMARK  5 active torsions:
REMARK  status: ('A' for Active; 'I' for Inactive)
REMARK    1  A    between atoms: N_8  and  C_22
REMARK    2  A    between atoms: N_9  and  C_20
REMARK    3  A    between atoms: C_23  and  C_26
REMARK    4  A    between atoms: C_29  and  C_31
REMARK    5  A    between atoms: C_31  and  C_34
REMARK                            x       y       z     vdW  Elec       q    Type
REMARK                         _______ _______ _______ _____ _____    ______ ____
ROOT
ATOM      1  O   UNL     1      11.296   3.122   2.840  0.00  0.00    -0.266 OA
ATOM      2  O   UNL     1      15.733   4.703   0.583  0.00  0.00    -0.252 OA
ATOM      6  N   UNL     1      13.970   5.322  -0.781  0.00  0.00    -0.284 N 
ATOM      7  N   UNL     1      11.410   4.370   0.869  0.00  0.00    -0.310 N 
ATOM      8  N   UNL     1      14.992   6.898   0.647  0.00  0.00    -0.269 N 
ATOM     10  C   UNL     1      12.402   3.445  -1.302  0.00  0.00    +0.027 C 
ATOM     11  C   UNL     1      11.559   5.753  -1.234  0.00  0.00    +0.054 C 
ATOM     12  C   UNL     1      11.465   4.430  -1.989  0.00  0.00    +0.018 C 
ATOM     13  C   UNL     1      13.848   3.971  -1.336  0.00  0.00    +0.114 C 
ATOM     14  C   UNL     1      11.910   3.204   0.130  0.00  0.00    +0.130 C 
ATOM     15  C   UNL     1      13.001   6.298  -1.311  0.00  0.00    +0.119 C 
ATOM     16  C   UNL     1      11.156   5.583   0.220  0.00  0.00    +0.027 A 
ATOM     17  C   UNL     1      10.590   6.602   0.889  0.00  0.00    +0.024 A 
ATOM     18  C   UNL     1      11.105   4.175   2.231  0.00  0.00    +0.273 A 
ATOM     19  C   UNL     1      14.960   5.581   0.193  0.00  0.00    +0.306 C 
ATOM     20  C   UNL     1      10.500   5.343   2.946  0.00  0.00    +0.099 A 
ATOM     21  C   UNL     1      10.257   6.476   2.280  0.00  0.00    +0.030 A 
ATOM     35  H   UNL     1      14.674   7.630   0.022  0.00  0.00    +0.156 HD
ENDROOT
BRANCH   8  22
ATOM     22  C   UNL     1      15.476   7.363   1.894  0.00  0.00    +0.035 A 
ATOM     24  C   UNL     1      14.800   7.032   3.065  0.00  0.00    +0.024 A 
ATOM     25  C   UNL     1      16.625   8.147   1.943  0.00  0.00    +0.024 A 
ATOM     27  C   UNL     1      15.278   7.488   4.294  0.00  0.00    +0.013 A 
ATOM     28  C   UNL     1      17.103   8.603   3.171  0.00  0.00    +0.013 A 
ATOM     29  C   UNL     1      16.429   8.273   4.348  0.00  0.00    +0.017 A 
BRANCH  29  31
ATOM      5  O   UNL     1      16.150   9.107   6.536  0.00  0.00    -0.292 OA
ATOM     31  C   UNL     1      16.926   8.750   5.628  0.00  0.00    +0.160 C 
ATOM     34  C   UNL     1      18.427   8.823   5.890  0.00  0.00    +0.091 C 
ENDBRANCH  29  31
ENDBRANCH   8  22
BRANCH  20   9
ATOM      3  O   UNL     1      11.877   6.572   5.124  0.00  0.00    -0.266 OA
ATOM      9  N   UNL     1      10.205   5.199   4.270  0.00  0.00    -0.275 N 
ATOM     23  C   UNL     1      10.915   5.826   5.286  0.00  0.00    +0.284 C 
ATOM     36  H   UNL     1       9.556   4.458   4.524  0.00  0.00    +0.155 HD
BRANCH  23  26
ATOM      4  O   UNL     1      10.098   4.304   6.928  0.00  0.00    -0.458 OA
ATOM     26  C   UNL     1      10.431   5.566   6.666  0.00  0.00    +0.189 A 
ATOM     30  C   UNL     1      10.278   6.412   7.686  0.00  0.00    +0.054 A 
ATOM     32  C   UNL     1       9.788   5.601   8.737  0.00  0.00    +0.042 A 
ATOM     33  C   UNL     1       9.697   4.328   8.226  0.00  0.00    +0.196 A 
ENDBRANCH  23  26
ENDBRANCH  20   9
TORSDOF 4
ENDMDL
MODEL 6
REMARK VINA RESULT:      -6.7      4.055      7.850
REMARK  Name = 7664141
REMARK  5 active torsions:
REMARK  status: ('A' for Active; 'I' for Inactive)
REMARK    1  A    between atoms: N_8  and  C_22
REMARK    2  A    between atoms: N_9  and  C_20
REMARK    3  A    between atoms: C_23  and  C_26
REMARK    4  A    between atoms: C_29  and  C_31
REMARK    5  A    between atoms: C_31  and  C_34
REMARK                            x       y       z     vdW  Elec       q    Type
REMARK                         _______ _______ _______ _____ _____    ______ ____
ROOT
ATOM      1  O   UNL     1      12.199   7.755   2.640  0.00  0.00    -0.266 OA
ATOM      2  O   UNL     1      13.009   6.051  -2.231  0.00  0.00    -0.252 OA
ATOM      6  N   UNL     1      13.494   4.322  -0.772  0.00  0.00    -0.284 N 
ATOM      7  N   UNL     1      12.799   5.567   2.083  0.00  0.00    -0.310 N 
ATOM      8  N   UNL     1      11.431   4.383  -1.917  0.00  0.00    -0.269 N 
ATOM     10  C   UNL     1      15.067   4.970   1.059  0.00  0.00    +0.027 C 
ATOM     11  C   UNL     1      13.405   3.203   1.451  0.00  0.00    +0.054 C 
ATOM     12  C   UNL     1      14.851   3.612   1.714  0.00  0.00    +0.018 C 
ATOM     13  C   UNL     1      14.811   4.880  -0.455  0.00  0.00    +0.114 C 
ATOM     14  C   UNL     1      14.158   6.002   1.738  0.00  0.00    +0.130 C 
ATOM     15  C   UNL     1      13.167   3.069  -0.068  0.00  0.00    +0.119 C 
ATOM     16  C   UNL     1      12.436   4.217   2.031  0.00  0.00    +0.027 A 
ATOM     17  C   UNL     1      11.224   3.827   2.462  0.00  0.00    +0.024 A 
ATOM     18  C   UNL     1      11.919   6.558   2.562  0.00  0.00    +0.273 A 
ATOM     19  C   UNL     1      12.657   5.003  -1.684  0.00  0.00    +0.306 C 
ATOM     20  C   UNL     1      10.570   6.085   3.007  0.00  0.00    +0.099 A 
ATOM     21  C   UNL     1      10.274   4.783   2.958  0.00  0.00    +0.030 A 
ATOM     35  H   UNL     1      11.374   3.376  -1.812  0.00  0.00    +0.156 HD
ENDROOT
BRANCH   8  22
ATOM     22  C   UNL     1      10.228   4.995  -2.345  0.00  0.00    +0.035 A 
ATOM     24  C   UNL     1       9.691   6.051  -1.613  0.00  0.00    +0.024 A 
ATOM     25  C   UNL     1       9.591   4.541  -3.496  0.00  0.00    +0.024 A 
ATOM     27  C   UNL     1       8.507   6.656  -2.035  0.00  0.00    +0.013 A 
ATOM     28  C   UNL     1       8.407   5.145  -3.919  0.00  0.00    +0.013 A 
ATOM     29  C   UNL     1       7.865   6.204  -3.188  0.00  0.00    +0.017 A 
BRANCH  29  31
ATOM      5  O   UNL     1       6.573   7.481  -4.692  0.00  0.00    -0.292 OA
ATOM     31  C   UNL     1       6.630   6.833  -3.628  0.00  0.00    +0.160 C 
ATOM     34  C   UNL     1       5.364   6.713  -2.787  0.00  0.00    +0.091 C 
ENDBRANCH  29  31
ENDBRANCH   8  22
BRANCH  20   9
ATOM      3  O   UNL     1       8.967   7.816   1.400  0.00  0.00    -0.266 OA
ATOM      9  N   UNL     1       9.684   7.016   3.463  0.00  0.00    -0.275 N 
ATOM     23  C   UNL     1       8.931   7.831   2.628  0.00  0.00    +0.284 C 
ATOM     36  H   UNL     1       9.718   7.244   4.454  0.00  0.00    +0.155 HD
BRANCH  23  26
ATOM      4  O   UNL     1       7.084   9.334   2.528  0.00  0.00    -0.458 OA
ATOM     26  C   UNL     1       8.002   8.770   3.309  0.00  0.00    +0.189 A 
ATOM     30  C   UNL     1       7.953   9.135   4.591  0.00  0.00    +0.054 A 
ATOM     32  C   UNL     1       6.870  10.045   4.649  0.00  0.00    +0.042 A 
ATOM     33  C   UNL     1       6.375  10.132   3.369  0.00  0.00    +0.196 A 
ENDBRANCH  23  26
ENDBRANCH  20   9
TORSDOF 4
ENDMDL
MODEL 7
REMARK VINA RESULT:      -6.6     26.050     30.193
REMARK  Name = 7664141
REMARK  5 active torsions:
REMARK  status: ('A' for Active; 'I' for Inactive)
REMARK    1  A    between atoms: N_8  and  C_22
REMARK    2  A    between atoms: N_9  and  C_20
REMARK    3  A    between atoms: C_23  and  C_26
REMARK    4  A    between atoms: C_29  and  C_31
REMARK    5  A    between atoms: C_31  and  C_34
REMARK                            x       y       z     vdW  Elec       q    Type
REMARK                         _______ _______ _______ _____ _____    ______ ____
ROOT
ATOM      1  O   UNL     1      -7.758 -12.192  14.671  0.00  0.00    -0.266 OA
ATOM      2  O   UNL     1     -12.254 -11.400  17.210  0.00  0.00    -0.252 OA
ATOM      6  N   UNL     1     -10.550 -11.500  18.773  0.00  0.00    -0.284 N 
ATOM      7  N   UNL     1      -7.938 -11.851  16.975  0.00  0.00    -0.310 N 
ATOM      8  N   UNL     1     -11.421  -9.419  18.081  0.00  0.00    -0.269 N 
ATOM     10  C   UNL     1      -9.094 -13.518  18.536  0.00  0.00    +0.027 C 
ATOM     11  C   UNL     1      -8.155 -11.440  19.452  0.00  0.00    +0.054 C 
ATOM     12  C   UNL     1      -8.159 -12.959  19.601  0.00  0.00    +0.018 C 
ATOM     13  C   UNL     1     -10.516 -12.964  18.729  0.00  0.00    +0.114 C 
ATOM     14  C   UNL     1      -8.528 -13.185  17.151  0.00  0.00    +0.130 C 
ATOM     15  C   UNL     1      -9.576 -10.887  19.693  0.00  0.00    +0.119 C 
ATOM     16  C   UNL     1      -7.674 -11.027  18.073  0.00  0.00    +0.027 A 
ATOM     17  C   UNL     1      -7.028  -9.861  17.902  0.00  0.00    +0.024 A 
ATOM     18  C   UNL     1      -7.561 -11.492  15.665  0.00  0.00    +0.273 A 
ATOM     19  C   UNL     1     -11.470 -10.806  17.955  0.00  0.00    +0.306 C 
ATOM     20  C   UNL     1      -6.868 -10.174  15.515  0.00  0.00    +0.099 A 
ATOM     21  C   UNL     1      -6.619  -9.428  16.596  0.00  0.00    +0.030 A 
ATOM     35  H   UNL     1     -11.111  -9.027  18.962  0.00  0.00    +0.156 HD
ENDROOT
BRANCH   8  22
ATOM     22  C   UNL     1     -11.811  -8.457  17.116  0.00  0.00    +0.035 A 
ATOM     24  C   UNL     1     -13.133  -8.410  16.682  0.00  0.00    +0.024 A 
ATOM     25  C   UNL     1     -10.872  -7.564  16.610  0.00  0.00    +0.024 A 
ATOM     27  C   UNL     1     -13.518  -7.462  15.734  0.00  0.00    +0.013 A 
ATOM     28  C   UNL     1     -11.257  -6.616  15.663  0.00  0.00    +0.013 A 
ATOM     29  C   UNL     1     -12.581  -6.564  15.224  0.00  0.00    +0.017 A 
BRANCH  29  31
ATOM      5  O   UNL     1     -12.157  -4.791  13.729  0.00  0.00    -0.292 OA
ATOM     31  C   UNL     1     -12.981  -5.577  14.236  0.00  0.00    +0.160 C 
ATOM     34  C   UNL     1     -14.438  -5.481  13.793  0.00  0.00    +0.091 C 
ENDBRANCH  29  31
ENDBRANCH   8  22
BRANCH  20   9
ATOM      3  O   UNL     1      -4.414 -10.810  14.202  0.00  0.00    -0.266 OA
ATOM      9  N   UNL     1      -6.500  -9.783  14.261  0.00  0.00    -0.275 N 
ATOM     23  C   UNL     1      -5.289 -10.126  13.676  0.00  0.00    +0.284 C 
ATOM     36  H   UNL     1      -7.061  -9.059  13.817  0.00  0.00    +0.155 HD
BRANCH  23  26
ATOM      4  O   UNL     1      -3.935 -10.002  11.719  0.00  0.00    -0.458 OA
ATOM     26  C   UNL     1      -5.074  -9.625  12.294  0.00  0.00    +0.189 A 
ATOM     30  C   UNL     1      -5.856  -8.849  11.542  0.00  0.00    +0.054 A 
ATOM     32  C   UNL     1      -5.138  -8.706  10.331  0.00  0.00    +0.042 A 
ATOM     33  C   UNL     1      -3.976  -9.426  10.489  0.00  0.00    +0.196 A 
ENDBRANCH  23  26
ENDBRANCH  20   9
TORSDOF 4
ENDMDL
MODEL 8
REMARK VINA RESULT:      -6.5     25.885     28.174
REMARK  Name = 7664141
REMARK  5 active torsions:
REMARK  status: ('A' for Active; 'I' for Inactive)
REMARK    1  A    between atoms: N_8  and  C_22
REMARK    2  A    between atoms: N_9  and  C_20
REMARK    3  A    between atoms: C_23  and  C_26
REMARK    4  A    between atoms: C_29  and  C_31
REMARK    5  A    between atoms: C_31  and  C_34
REMARK                            x       y       z     vdW  Elec       q    Type
REMARK                         _______ _______ _______ _____ _____    ______ ____
ROOT
ATOM      1  O   UNL     1      -5.779 -14.362  15.911  0.00  0.00    -0.266 OA
ATOM      2  O   UNL     1      -9.348 -11.008  14.093  0.00  0.00    -0.252 OA
ATOM      6  N   UNL     1      -8.479 -10.144  16.056  0.00  0.00    -0.284 N 
ATOM      7  N   UNL     1      -6.263 -12.289  16.873  0.00  0.00    -0.310 N 
ATOM      8  N   UNL     1      -7.733  -9.350  13.963  0.00  0.00    -0.269 N 
ATOM     10  C   UNL     1      -8.517 -11.760  17.963  0.00  0.00    +0.027 C 
ATOM     11  C   UNL     1      -6.774 -10.030  17.868  0.00  0.00    +0.054 C 
ATOM     12  C   UNL     1      -7.722 -10.771  18.806  0.00  0.00    +0.018 C 
ATOM     13  C   UNL     1      -9.319 -11.016  16.881  0.00  0.00    +0.114 C 
ATOM     14  C   UNL     1      -7.554 -12.790  17.361  0.00  0.00    +0.130 C 
ATOM     15  C   UNL     1      -7.586  -9.248  16.813  0.00  0.00    +0.119 C 
ATOM     16  C   UNL     1      -5.829 -10.993  17.172  0.00  0.00    +0.027 A 
ATOM     17  C   UNL     1      -4.597 -10.594  16.815  0.00  0.00    +0.024 A 
ATOM     18  C   UNL     1      -5.446 -13.207  16.182  0.00  0.00    +0.273 A 
ATOM     19  C   UNL     1      -8.571 -10.227  14.649  0.00  0.00    +0.306 C 
ATOM     20  C   UNL     1      -4.092 -12.714  15.779  0.00  0.00    +0.099 A 
ATOM     21  C   UNL     1      -3.713 -11.474  16.104  0.00  0.00    +0.030 A 
ATOM     35  H   UNL     1      -7.472  -8.481  14.416  0.00  0.00    +0.156 HD
ENDROOT
BRANCH   8  22
ATOM     22  C   UNL     1      -7.225  -9.501  12.649  0.00  0.00    +0.035 A 
ATOM     24  C   UNL     1      -8.092  -9.438  11.561  0.00  0.00    +0.024 A 
ATOM     25  C   UNL     1      -5.864  -9.709  12.452  0.00  0.00    +0.024 A 
ATOM     27  C   UNL     1      -7.592  -9.585  10.267  0.00  0.00    +0.013 A 
ATOM     28  C   UNL     1      -5.363  -9.856  11.159  0.00  0.00    +0.013 A 
ATOM     29  C   UNL     1      -6.228  -9.793  10.065  0.00  0.00    +0.017 A 
BRANCH  29  31
ATOM      5  O   UNL     1      -6.170  -9.295   7.761  0.00  0.00    -0.292 OA
ATOM     31  C   UNL     1      -5.707  -9.948   8.717  0.00  0.00    +0.160 C 
ATOM     34  C   UNL     1      -4.568 -10.923   8.440  0.00  0.00    +0.091 C 
ENDBRANCH  29  31
ENDBRANCH   8  22
BRANCH  20   9
ATOM      3  O   UNL     1      -3.903 -12.952  12.941  0.00  0.00    -0.266 OA
ATOM      9  N   UNL     1      -3.277 -13.568  15.095  0.00  0.00    -0.275 N 
ATOM     23  C   UNL     1      -3.231 -13.637  13.709  0.00  0.00    +0.284 C 
ATOM     36  H   UNL     1      -2.826 -14.308  15.629  0.00  0.00    +0.155 HD
BRANCH  23  26
ATOM      4  O   UNL     1      -1.156 -14.800  13.855  0.00  0.00    -0.458 OA
ATOM     26  C   UNL     1      -2.265 -14.614  13.144  0.00  0.00    +0.189 A 
ATOM     30  C   UNL     1      -2.344 -15.335  12.024  0.00  0.00    +0.054 A 
ATOM     32  C   UNL     1      -1.141 -16.079  12.007  0.00  0.00    +0.042 A 
ATOM     33  C   UNL     1      -0.453 -15.718  13.142  0.00  0.00    +0.196 A 
ENDBRANCH  23  26
ENDBRANCH  20   9
TORSDOF 4
ENDMDL
MODEL 9
REMARK VINA RESULT:      -6.5      3.550      6.947
REMARK  Name = 7664141
REMARK  5 active torsions:
REMARK  status: ('A' for Active; 'I' for Inactive)
REMARK    1  A    between atoms: N_8  and  C_22
REMARK    2  A    between atoms: N_9  and  C_20
REMARK    3  A    between atoms: C_23  and  C_26
REMARK    4  A    between atoms: C_29  and  C_31
REMARK    5  A    between atoms: C_31  and  C_34
REMARK                            x       y       z     vdW  Elec       q    Type
REMARK                         _______ _______ _______ _____ _____    ______ ____
ROOT
ATOM      1  O   UNL     1      10.395   4.170   3.761  0.00  0.00    -0.266 OA
ATOM      2  O   UNL     1       7.369   7.603   6.281  0.00  0.00    -0.252 OA
ATOM      6  N   UNL     1       9.574   8.056   6.815  0.00  0.00    -0.284 N 
ATOM      7  N   UNL     1      11.194   5.935   5.067  0.00  0.00    -0.310 N 
ATOM      8  N   UNL     1       8.441   9.351   5.201  0.00  0.00    -0.269 N 
ATOM     10  C   UNL     1      10.845   6.052   7.600  0.00  0.00    +0.027 C 
ATOM     11  C   UNL     1      12.030   7.870   6.448  0.00  0.00    +0.054 C 
ATOM     12  C   UNL     1      12.127   6.875   7.600  0.00  0.00    +0.018 C 
ATOM     13  C   UNL     1       9.623   6.966   7.793  0.00  0.00    +0.114 C 
ATOM     14  C   UNL     1      10.767   5.251   6.295  0.00  0.00    +0.130 C 
ATOM     15  C   UNL     1      10.829   8.815   6.671  0.00  0.00    +0.119 C 
ATOM     16  C   UNL     1      11.875   7.155   5.118  0.00  0.00    +0.027 A 
ATOM     17  C   UNL     1      12.359   7.706   3.992  0.00  0.00    +0.024 A 
ATOM     18  C   UNL     1      10.975   5.253   3.853  0.00  0.00    +0.273 A 
ATOM     19  C   UNL     1       8.378   8.287   6.099  0.00  0.00    +0.306 C 
ATOM     20  C   UNL     1      11.506   5.913   2.619  0.00  0.00    +0.099 A 
ATOM     21  C   UNL     1      12.169   7.070   2.718  0.00  0.00    +0.030 A 
ATOM     35  H   UNL     1       9.083  10.110   5.398  0.00  0.00    +0.156 HD
ENDROOT
BRANCH   8  22
ATOM     22  C   UNL     1       7.656   9.535   4.035  0.00  0.00    +0.035 A 
ATOM     24  C   UNL     1       6.410  10.149   4.130  0.00  0.00    +0.024 A 
ATOM     25  C   UNL     1       8.136   9.104   2.802  0.00  0.00    +0.024 A 
ATOM     27  C   UNL     1       5.639  10.332   2.983  0.00  0.00    +0.013 A 
ATOM     28  C   UNL     1       7.365   9.287   1.655  0.00  0.00    +0.013 A 
ATOM     29  C   UNL     1       6.116   9.902   1.745  0.00  0.00    +0.017 A 
BRANCH  29  31
ATOM      5  O   UNL     1       5.415  11.120  -0.149  0.00  0.00    -0.292 OA
ATOM     31  C   UNL     1       5.311  10.092   0.549  0.00  0.00    +0.160 C 
ATOM     34  C   UNL     1       4.311   9.024   0.118  0.00  0.00    +0.091 C 
ENDBRANCH  29  31
ENDBRANCH   8  22
BRANCH  20   9
ATOM      3  O   UNL     1      13.332   4.166   1.292  0.00  0.00    -0.266 OA
ATOM      9  N   UNL     1      11.301   5.293   1.422  0.00  0.00    -0.275 N 
ATOM     23  C   UNL     1      12.232   4.452   0.826  0.00  0.00    +0.284 C 
ATOM     36  H   UNL     1      10.513   5.610   0.863  0.00  0.00    +0.155 HD
BRANCH  23  26
ATOM      4  O   UNL     1      10.612   4.196  -0.903  0.00  0.00    -0.458 OA
ATOM     26  C   UNL     1      11.822   3.850  -0.469  0.00  0.00    +0.189 A 
ATOM     30  C   UNL     1      12.487   3.011  -1.264  0.00  0.00    +0.054 A 
ATOM     32  C   UNL     1      11.602   2.786  -2.346  0.00  0.00    +0.042 A 
ATOM     33  C   UNL     1      10.476   3.529  -2.079  0.00  0.00    +0.196 A 
ENDBRANCH  23  26
ENDBRANCH  20   9
TORSDOF 4
ENDMDL
MODEL 10
REMARK VINA RESULT:      -6.4     25.152     27.804
REMARK  Name = 7664141
REMARK  5 active torsions:
REMARK  status: ('A' for Active; 'I' for Inactive)
REMARK    1  A    between atoms: N_8  and  C_22
REMARK    2  A    between atoms: N_9  and  C_20
REMARK    3  A    between atoms: C_23  and  C_26
REMARK    4  A    between atoms: C_29  and  C_31
REMARK    5  A    between atoms: C_31  and  C_34
REMARK                            x       y       z     vdW  Elec       q    Type
REMARK                         _______ _______ _______ _____ _____    ______ ____
ROOT
ATOM      1  O   UNL     1      -5.027  -9.930  15.886  0.00  0.00    -0.266 OA
ATOM      2  O   UNL     1      -2.857  -9.784  11.136  0.00  0.00    -0.252 OA
ATOM      6  N   UNL     1      -2.900 -11.987  11.843  0.00  0.00    -0.284 N 
ATOM      7  N   UNL     1      -4.373 -11.813  14.668  0.00  0.00    -0.310 N 
ATOM      8  N   UNL     1      -4.519 -11.182  10.326  0.00  0.00    -0.269 N 
ATOM     10  C   UNL     1      -1.926 -12.327  14.120  0.00  0.00    +0.027 C 
ATOM     11  C   UNL     1      -3.696 -13.830  13.316  0.00  0.00    +0.054 C 
ATOM     12  C   UNL     1      -2.381 -13.780  14.089  0.00  0.00    +0.018 C 
ATOM     13  C   UNL     1      -1.719 -11.801  12.689  0.00  0.00    +0.114 C 
ATOM     14  C   UNL     1      -2.957 -11.498  14.895  0.00  0.00    +0.130 C 
ATOM     15  C   UNL     1      -3.472 -13.345  11.868  0.00  0.00    +0.119 C 
ATOM     16  C   UNL     1      -4.756 -12.971  13.983  0.00  0.00    +0.027 A 
ATOM     17  C   UNL     1      -6.055 -13.300  13.887  0.00  0.00    +0.024 A 
ATOM     18  C   UNL     1      -5.318 -10.951  15.260  0.00  0.00    +0.273 A 
ATOM     19  C   UNL     1      -3.397 -10.892  11.101  0.00  0.00    +0.306 C 
ATOM     20  C   UNL     1      -6.755 -11.340  15.107  0.00  0.00    +0.099 A 
ATOM     21  C   UNL     1      -7.072 -12.466  14.461  0.00  0.00    +0.030 A 
ATOM     35  H   UNL     1      -4.644 -12.132   9.996  0.00  0.00    +0.156 HD
ENDROOT
BRANCH   8  22
ATOM     22  C   UNL     1      -5.513 -10.274   9.885  0.00  0.00    +0.035 A 
ATOM     24  C   UNL     1      -5.623  -9.973   8.530  0.00  0.00    +0.024 A 
ATOM     25  C   UNL     1      -6.376  -9.689  10.807  0.00  0.00    +0.024 A 
ATOM     27  C   UNL     1      -6.603  -9.080   8.095  0.00  0.00    +0.013 A 
ATOM     28  C   UNL     1      -7.355  -8.797  10.374  0.00  0.00    +0.013 A 
ATOM     29  C   UNL     1      -7.470  -8.492   9.016  0.00  0.00    +0.017 A 
BRANCH  29  31
ATOM      5  O   UNL     1      -9.582  -7.453   9.156  0.00  0.00    -0.292 OA
ATOM     31  C   UNL     1      -8.490  -7.561   8.564  0.00  0.00    +0.160 C 
ATOM     34  C   UNL     1      -8.243  -6.687   7.339  0.00  0.00    +0.091 C 
ENDBRANCH  29  31
ENDBRANCH   8  22
BRANCH  20   9
ATOM      3  O   UNL     1      -8.361  -9.446  13.700  0.00  0.00    -0.266 OA
ATOM      9  N   UNL     1      -7.701 -10.523  15.653  0.00  0.00    -0.275 N 
ATOM     23  C   UNL     1      -8.452  -9.620  14.913  0.00  0.00    +0.284 C 
ATOM     36  H   UNL     1      -7.720 -10.447  16.668  0.00  0.00    +0.155 HD
BRANCH  23  26
ATOM      4  O   UNL     1     -10.594  -8.583  15.045  0.00  0.00    -0.458 OA
ATOM     26  C   UNL     1      -9.450  -8.830  15.680  0.00  0.00    +0.189 A 
ATOM     30  C   UNL     1      -9.370  -8.328  16.913  0.00  0.00    +0.054 A 
ATOM     32  C   UNL     1     -10.613  -7.678  17.102  0.00  0.00    +0.042 A 
ATOM     33  C   UNL     1     -11.321  -7.862  15.938  0.00  0.00    +0.196 A 
ENDBRANCH  23  26
ENDBRANCH  20   9
TORSDOF 4
ENDMDL
