MODEL 1
REMARK VINA RESULT:      -6.7      0.000      0.000
REMARK  Name = 51137732
REMARK  3 active torsions:
REMARK  status: ('A' for Active; 'I' for Inactive)
REMARK    1  A    between atoms: C_6  and  C_10
REMARK    2  A    between atoms: C_9  and  C_14
REMARK    3  A    between atoms: C_15  and  C_16
REMARK                            x       y       z     vdW  Elec       q    Type
REMARK                         _______ _______ _______ _____ _____    ______ ____
ROOT
ATOM      2  O   UNL     1      16.750   6.601  20.905  0.00  0.00    -0.420 OA
ATOM      4  N   UNL     1      16.238   5.987  18.816  0.00  0.00    -0.112 NA
ATOM      5  N   UNL     1      17.600   5.828  18.986  0.00  0.00    -0.107 NA
ATOM     14  C   UNL     1      15.782   6.440  19.961  0.00  0.00    +0.222 A 
ATOM     15  C   UNL     1      17.854   6.199  20.218  0.00  0.00    +0.248 A 
ENDROOT
BRANCH  14   9
ATOM      1  O   UNL     1      13.067  10.540  17.902  0.00  0.00    -0.275 OA
ATOM      3  N   UNL     1      13.465   8.579  19.065  0.00  0.00    -0.300 N 
ATOM      9  C   UNL     1      14.363   6.799  20.365  0.00  0.00    +0.095 C 
ATOM     10  C   UNL     1      12.962   9.322  18.011  0.00  0.00    +0.219 C 
ATOM     11  C   UNL     1      13.388   7.128  19.226  0.00  0.00    +0.120 C 
ATOM     12  C   UNL     1      14.184   9.194  20.171  0.00  0.00    +0.108 C 
ATOM     13  C   UNL     1      14.323   8.085  21.205  0.00  0.00    +0.033 C 
BRANCH  10   6
ATOM      6  C   UNL     1      12.270   8.560  16.927  0.00  0.00    +0.075 C 
ATOM      7  C   UNL     1      10.780   8.671  16.797  0.00  0.00    +0.013 C 
ATOM      8  C   UNL     1      11.672   9.309  15.773  0.00  0.00    +0.013 C 
ENDBRANCH  10   6
ENDBRANCH  14   9
BRANCH  15  16
ATOM     16  C   UNL     1      19.092   6.243  20.941  0.00  0.00    +0.038 A 
ATOM     17  C   UNL     1      20.167   5.453  20.532  0.00  0.00    +0.013 A 
ATOM     18  C   UNL     1      19.222   7.075  22.053  0.00  0.00    +0.013 A 
ATOM     19  C   UNL     1      21.371   5.496  21.235  0.00  0.00    +0.001 A 
ATOM     20  C   UNL     1      20.426   7.118  22.755  0.00  0.00    +0.001 A 
ATOM     21  C   UNL     1      21.501   6.328  22.347  0.00  0.00    +0.000 A 
ENDBRANCH  15  16
TORSDOF 3
ENDMDL
MODEL 2
REMARK VINA RESULT:      -6.5      2.688      3.979
REMARK  Name = 51137732
REMARK  3 active torsions:
REMARK  status: ('A' for Active; 'I' for Inactive)
REMARK    1  A    between atoms: C_6  and  C_10
REMARK    2  A    between atoms: C_9  and  C_14
REMARK    3  A    between atoms: C_15  and  C_16
REMARK                            x       y       z     vdW  Elec       q    Type
REMARK                         _______ _______ _______ _____ _____    ______ ____
ROOT
ATOM      2  O   UNL     1      15.560   8.518  19.851  0.00  0.00    -0.420 OA
ATOM      4  N   UNL     1      14.251   6.907  19.018  0.00  0.00    -0.112 NA
ATOM      5  N   UNL     1      15.429   6.323  19.443  0.00  0.00    -0.107 NA
ATOM     14  C   UNL     1      14.372   8.189  19.275  0.00  0.00    +0.222 A 
ATOM     15  C   UNL     1      16.163   7.299  19.922  0.00  0.00    +0.248 A 
ENDROOT
BRANCH  14   9
ATOM      1  O   UNL     1      10.161   9.206  22.384  0.00  0.00    -0.275 OA
ATOM      3  N   UNL     1      11.775   9.533  20.757  0.00  0.00    -0.300 N 
ATOM      9  C   UNL     1      13.393   9.323  19.025  0.00  0.00    +0.095 C 
ATOM     10  C   UNL     1      11.172   9.773  21.980  0.00  0.00    +0.219 C 
ATOM     11  C   UNL     1      12.990  10.163  20.244  0.00  0.00    +0.120 C 
ATOM     12  C   UNL     1      11.248   8.559  19.814  0.00  0.00    +0.108 C 
ATOM     13  C   UNL     1      12.035   8.798  18.532  0.00  0.00    +0.033 C 
BRANCH  10   6
ATOM      6  C   UNL     1      11.834  10.779  22.864  0.00  0.00    +0.075 C 
ATOM      7  C   UNL     1      11.277  12.171  22.929  0.00  0.00    +0.013 C 
ATOM      8  C   UNL     1      11.125  11.246  24.101  0.00  0.00    +0.013 C 
ENDBRANCH  10   6
ENDBRANCH  14   9
BRANCH  15  16
ATOM     16  C   UNL     1      17.476   7.281  20.498  0.00  0.00    +0.038 A 
ATOM     17  C   UNL     1      17.853   8.273  21.404  0.00  0.00    +0.013 A 
ATOM     18  C   UNL     1      18.376   6.274  20.153  0.00  0.00    +0.013 A 
ATOM     19  C   UNL     1      19.130   8.256  21.966  0.00  0.00    +0.001 A 
ATOM     20  C   UNL     1      19.653   6.257  20.714  0.00  0.00    +0.001 A 
ATOM     21  C   UNL     1      20.030   7.249  21.620  0.00  0.00    +0.000 A 
ENDBRANCH  15  16
TORSDOF 3
ENDMDL
MODEL 3
REMARK VINA RESULT:      -6.3      4.000      5.340
REMARK  Name = 51137732
REMARK  3 active torsions:
REMARK  status: ('A' for Active; 'I' for Inactive)
REMARK    1  A    between atoms: C_6  and  C_10
REMARK    2  A    between atoms: C_9  and  C_14
REMARK    3  A    between atoms: C_15  and  C_16
REMARK                            x       y       z     vdW  Elec       q    Type
REMARK                         _______ _______ _______ _____ _____    ______ ____
ROOT
ATOM      2  O   UNL     1      14.155   8.325  20.524  0.00  0.00    -0.420 OA
ATOM      4  N   UNL     1      14.346   9.800  22.194  0.00  0.00    -0.112 NA
ATOM      5  N   UNL     1      15.561   9.157  22.051  0.00  0.00    -0.107 NA
ATOM     14  C   UNL     1      13.555   9.283  21.283  0.00  0.00    +0.222 A 
ATOM     15  C   UNL     1      15.403   8.306  21.065  0.00  0.00    +0.248 A 
ENDROOT
BRANCH  14   9
ATOM      1  O   UNL     1      10.285  11.820  24.643  0.00  0.00    -0.275 OA
ATOM      3  N   UNL     1      11.065  10.906  22.665  0.00  0.00    -0.300 N 
ATOM      9  C   UNL     1      12.103   9.598  20.969  0.00  0.00    +0.095 C 
ATOM     10  C   UNL     1      10.728  11.952  23.506  0.00  0.00    +0.219 C 
ATOM     11  C   UNL     1      11.618  11.012  21.316  0.00  0.00    +0.120 C 
ATOM     12  C   UNL     1      10.919   9.515  23.066  0.00  0.00    +0.108 C 
ATOM     13  C   UNL     1      11.144   8.719  21.787  0.00  0.00    +0.033 C 
BRANCH  10   6
ATOM      6  C   UNL     1      10.955  13.332  22.978  0.00  0.00    +0.075 C 
ATOM      7  C   UNL     1      10.342  14.497  23.698  0.00  0.00    +0.013 C 
ATOM      8  C   UNL     1      11.825  14.278  23.753  0.00  0.00    +0.013 C 
ENDBRANCH  10   6
ENDBRANCH  14   9
BRANCH  15  16
ATOM     16  C   UNL     1      16.326   7.376  20.480  0.00  0.00    +0.038 A 
ATOM     17  C   UNL     1      16.003   6.731  19.286  0.00  0.00    +0.013 A 
ATOM     18  C   UNL     1      17.546   7.117  21.106  0.00  0.00    +0.013 A 
ATOM     19  C   UNL     1      16.900   5.827  18.717  0.00  0.00    +0.001 A 
ATOM     20  C   UNL     1      18.442   6.213  20.536  0.00  0.00    +0.001 A 
ATOM     21  C   UNL     1      18.119   5.567  19.342  0.00  0.00    +0.000 A 
ENDBRANCH  15  16
TORSDOF 3
ENDMDL
MODEL 4
REMARK VINA RESULT:      -6.3     26.694     27.938
REMARK  Name = 51137732
REMARK  3 active torsions:
REMARK  status: ('A' for Active; 'I' for Inactive)
REMARK    1  A    between atoms: C_6  and  C_10
REMARK    2  A    between atoms: C_9  and  C_14
REMARK    3  A    between atoms: C_15  and  C_16
REMARK                            x       y       z     vdW  Elec       q    Type
REMARK                         _______ _______ _______ _____ _____    ______ ____
ROOT
ATOM      2  O   UNL     1      -3.347 -11.099  14.906  0.00  0.00    -0.420 OA
ATOM      4  N   UNL     1      -1.179 -11.022  15.450  0.00  0.00    -0.112 NA
ATOM      5  N   UNL     1      -1.915 -10.779  16.593  0.00  0.00    -0.107 NA
ATOM     14  C   UNL     1      -2.056 -11.204  14.489  0.00  0.00    +0.222 A 
ATOM     15  C   UNL     1      -3.174 -10.833  16.230  0.00  0.00    +0.248 A 
ENDROOT
BRANCH  14   9
ATOM      1  O   UNL     1      -5.896 -10.967  10.799  0.00  0.00    -0.275 OA
ATOM      3  N   UNL     1      -3.766 -11.095  11.695  0.00  0.00    -0.300 N 
ATOM      9  C   UNL     1      -1.831 -11.506  13.018  0.00  0.00    +0.095 C 
ATOM     10  C   UNL     1      -4.801 -10.462  11.029  0.00  0.00    +0.219 C 
ATOM     11  C   UNL     1      -2.457 -10.529  12.014  0.00  0.00    +0.120 C 
ATOM     12  C   UNL     1      -3.887 -12.456  12.195  0.00  0.00    +0.108 C 
ATOM     13  C   UNL     1      -2.473 -12.841  12.611  0.00  0.00    +0.033 C 
BRANCH  10   6
ATOM      6  C   UNL     1      -4.553  -9.054  10.593  0.00  0.00    +0.075 C 
ATOM      7  C   UNL     1      -4.084  -8.798   9.192  0.00  0.00    +0.013 C 
ATOM      8  C   UNL     1      -5.479  -8.422   9.597  0.00  0.00    +0.013 C 
ENDBRANCH  10   6
ENDBRANCH  14   9
BRANCH  15  16
ATOM     16  C   UNL     1      -4.374 -10.660  16.996  0.00  0.00    +0.038 A 
ATOM     17  C   UNL     1      -5.445  -9.942  16.462  0.00  0.00    +0.013 A 
ATOM     18  C   UNL     1      -4.471 -11.207  18.275  0.00  0.00    +0.013 A 
ATOM     19  C   UNL     1      -6.612  -9.772  17.207  0.00  0.00    +0.001 A 
ATOM     20  C   UNL     1      -5.638 -11.038  19.020  0.00  0.00    +0.001 A 
ATOM     21  C   UNL     1      -6.708 -10.320  18.486  0.00  0.00    +0.000 A 
ENDBRANCH  15  16
TORSDOF 3
ENDMDL
MODEL 5
REMARK VINA RESULT:      -6.2     27.059     30.208
REMARK  Name = 51137732
REMARK  3 active torsions:
REMARK  status: ('A' for Active; 'I' for Inactive)
REMARK    1  A    between atoms: C_6  and  C_10
REMARK    2  A    between atoms: C_9  and  C_14
REMARK    3  A    between atoms: C_15  and  C_16
REMARK                            x       y       z     vdW  Elec       q    Type
REMARK                         _______ _______ _______ _____ _____    ______ ____
ROOT
ATOM      2  O   UNL     1     -13.247   7.938  20.375  0.00  0.00    -0.420 OA
ATOM      4  N   UNL     1     -12.641   6.112  21.515  0.00  0.00    -0.112 NA
ATOM      5  N   UNL     1     -11.586   6.477  20.701  0.00  0.00    -0.107 NA
ATOM     14  C   UNL     1     -13.589   6.993  21.293  0.00  0.00    +0.222 A 
ATOM     15  C   UNL     1     -11.984   7.547  20.054  0.00  0.00    +0.248 A 
ENDROOT
BRANCH  14   9
ATOM      1  O   UNL     1     -16.492   2.776  22.780  0.00  0.00    -0.275 OA
ATOM      3  N   UNL     1     -15.831   4.986  22.593  0.00  0.00    -0.300 N 
ATOM      9  C   UNL     1     -14.976   7.097  21.903  0.00  0.00    +0.095 C 
ATOM     10  C   UNL     1     -16.022   3.796  23.274  0.00  0.00    +0.219 C 
ATOM     11  C   UNL     1     -15.254   6.217  23.129  0.00  0.00    +0.120 C 
ATOM     12  C   UNL     1     -16.183   5.137  21.189  0.00  0.00    +0.108 C 
ATOM     13  C   UNL     1     -16.061   6.632  20.920  0.00  0.00    +0.033 C 
BRANCH  10   6
ATOM      6  C   UNL     1     -15.590   3.770  24.705  0.00  0.00    +0.075 C 
ATOM      7  C   UNL     1     -16.574   4.157  25.769  0.00  0.00    +0.013 C 
ATOM      8  C   UNL     1     -16.154   2.724  25.620  0.00  0.00    +0.013 C 
ENDBRANCH  10   6
ENDBRANCH  14   9
BRANCH  15  16
ATOM     16  C   UNL     1     -11.307   8.352  19.080  0.00  0.00    +0.038 A 
ATOM     17  C   UNL     1     -11.067   7.847  17.802  0.00  0.00    +0.013 A 
ATOM     18  C   UNL     1     -10.887   9.641  19.410  0.00  0.00    +0.013 A 
ATOM     19  C   UNL     1     -10.409   8.630  16.854  0.00  0.00    +0.001 A 
ATOM     20  C   UNL     1     -10.228  10.424  18.462  0.00  0.00    +0.001 A 
ATOM     21  C   UNL     1      -9.988   9.919  17.184  0.00  0.00    +0.000 A 
ENDBRANCH  15  16
TORSDOF 3
ENDMDL
MODEL 6
REMARK VINA RESULT:      -6.0     26.568     28.409
REMARK  Name = 51137732
REMARK  3 active torsions:
REMARK  status: ('A' for Active; 'I' for Inactive)
REMARK    1  A    between atoms: C_6  and  C_10
REMARK    2  A    between atoms: C_9  and  C_14
REMARK    3  A    between atoms: C_15  and  C_16
REMARK                            x       y       z     vdW  Elec       q    Type
REMARK                         _______ _______ _______ _____ _____    ______ ____
ROOT
ATOM      2  O   UNL     1      -4.185 -10.412  14.826  0.00  0.00    -0.420 OA
ATOM      4  N   UNL     1      -2.969 -10.956  16.623  0.00  0.00    -0.112 NA
ATOM      5  N   UNL     1      -4.256 -10.685  17.044  0.00  0.00    -0.107 NA
ATOM     14  C   UNL     1      -2.973 -10.784  15.321  0.00  0.00    +0.222 A 
ATOM     15  C   UNL     1      -4.931 -10.373  15.964  0.00  0.00    +0.248 A 
ENDROOT
BRANCH  14   9
ATOM      1  O   UNL     1      -3.716 -11.861  10.152  0.00  0.00    -0.275 OA
ATOM      3  N   UNL     1      -2.623 -11.226  12.092  0.00  0.00    -0.300 N 
ATOM      9  C   UNL     1      -1.840 -10.939  14.320  0.00  0.00    +0.095 C 
ATOM     10  C   UNL     1      -3.196 -10.997  10.853  0.00  0.00    +0.219 C 
ATOM     11  C   UNL     1      -2.015 -10.230  12.971  0.00  0.00    +0.120 C 
ATOM     12  C   UNL     1      -2.585 -12.551  12.692  0.00  0.00    +0.108 C 
ATOM     13  C   UNL     1      -1.661 -12.404  13.894  0.00  0.00    +0.033 C 
BRANCH  10   6
ATOM      6  C   UNL     1      -3.191  -9.584  10.367  0.00  0.00    +0.075 C 
ATOM      7  C   UNL     1      -4.001  -9.227   9.155  0.00  0.00    +0.013 C 
ATOM      8  C   UNL     1      -4.434  -8.756  10.512  0.00  0.00    +0.013 C 
ENDBRANCH  10   6
ENDBRANCH  14   9
BRANCH  15  16
ATOM     16  C   UNL     1      -6.307 -10.003  15.798  0.00  0.00    +0.038 A 
ATOM     17  C   UNL     1      -7.019  -9.470  16.873  0.00  0.00    +0.013 A 
ATOM     18  C   UNL     1      -6.933 -10.178  14.564  0.00  0.00    +0.013 A 
ATOM     19  C   UNL     1      -8.357  -9.110  16.713  0.00  0.00    +0.001 A 
ATOM     20  C   UNL     1      -8.271  -9.818  14.404  0.00  0.00    +0.001 A 
ATOM     21  C   UNL     1      -8.983  -9.285  15.479  0.00  0.00    +0.000 A 
ENDBRANCH  15  16
TORSDOF 3
ENDMDL
MODEL 7
REMARK VINA RESULT:      -6.0     27.220     30.325
REMARK  Name = 51137732
REMARK  3 active torsions:
REMARK  status: ('A' for Active; 'I' for Inactive)
REMARK    1  A    between atoms: C_6  and  C_10
REMARK    2  A    between atoms: C_9  and  C_14
REMARK    3  A    between atoms: C_15  and  C_16
REMARK                            x       y       z     vdW  Elec       q    Type
REMARK                         _______ _______ _______ _____ _____    ______ ____
ROOT
ATOM      2  O   UNL     1      -8.275 -10.567  18.783  0.00  0.00    -0.420 OA
ATOM      4  N   UNL     1      -7.243  -9.465  17.132  0.00  0.00    -0.112 NA
ATOM      5  N   UNL     1      -8.576  -9.103  17.120  0.00  0.00    -0.107 NA
ATOM     14  C   UNL     1      -7.112 -10.321  18.119  0.00  0.00    +0.222 A 
ATOM     15  C   UNL     1      -9.140  -9.770  18.099  0.00  0.00    +0.248 A 
ENDROOT
BRANCH  14   9
ATOM      1  O   UNL     1      -3.537 -12.578  14.870  0.00  0.00    -0.275 OA
ATOM      3  N   UNL     1      -4.456 -11.739  16.823  0.00  0.00    -0.300 N 
ATOM      9  C   UNL     1      -5.874 -11.055  18.606  0.00  0.00    +0.095 C 
ATOM     10  C   UNL     1      -3.578 -11.725  15.753  0.00  0.00    +0.219 C 
ATOM     11  C   UNL     1      -4.559 -10.737  17.881  0.00  0.00    +0.120 C 
ATOM     12  C   UNL     1      -5.438 -12.798  17.001  0.00  0.00    +0.108 C 
ATOM     13  C   UNL     1      -5.999 -12.572  18.400  0.00  0.00    +0.033 C 
BRANCH  10   6
ATOM      6  C   UNL     1      -2.640 -10.564  15.675  0.00  0.00    +0.075 C 
ATOM      7  C   UNL     1      -1.161 -10.818  15.705  0.00  0.00    +0.013 C 
ATOM      8  C   UNL     1      -1.820 -10.367  14.435  0.00  0.00    +0.013 C 
ENDBRANCH  10   6
ENDBRANCH  14   9
BRANCH  15  16
ATOM     16  C   UNL     1     -10.500  -9.787  18.553  0.00  0.00    +0.038 A 
ATOM     17  C   UNL     1     -10.793 -10.165  19.863  0.00  0.00    +0.013 A 
ATOM     18  C   UNL     1     -11.530  -9.427  17.684  0.00  0.00    +0.013 A 
ATOM     19  C   UNL     1     -12.116 -10.183  20.305  0.00  0.00    +0.001 A 
ATOM     20  C   UNL     1     -12.853  -9.444  18.126  0.00  0.00    +0.001 A 
ATOM     21  C   UNL     1     -13.146  -9.823  19.436  0.00  0.00    +0.000 A 
ENDBRANCH  15  16
TORSDOF 3
ENDMDL
MODEL 8
REMARK VINA RESULT:      -5.8     11.732     14.056
REMARK  Name = 51137732
REMARK  3 active torsions:
REMARK  status: ('A' for Active; 'I' for Inactive)
REMARK    1  A    between atoms: C_6  and  C_10
REMARK    2  A    between atoms: C_9  and  C_14
REMARK    3  A    between atoms: C_15  and  C_16
REMARK                            x       y       z     vdW  Elec       q    Type
REMARK                         _______ _______ _______ _____ _____    ______ ____
ROOT
ATOM      2  O   UNL     1       9.329  10.085   8.275  0.00  0.00    -0.420 OA
ATOM      4  N   UNL     1       9.340  11.377   6.450  0.00  0.00    -0.112 NA
ATOM      5  N   UNL     1       9.502  12.194   7.552  0.00  0.00    -0.107 NA
ATOM     14  C   UNL     1       9.243  10.154   6.918  0.00  0.00    +0.222 A 
ATOM     15  C   UNL     1       9.490  11.398   8.595  0.00  0.00    +0.248 A 
ENDROOT
BRANCH  14   9
ATOM      1  O   UNL     1      11.644   5.596   8.289  0.00  0.00    -0.275 OA
ATOM      3  N   UNL     1      10.159   7.022   7.233  0.00  0.00    -0.300 N 
ATOM      9  C   UNL     1       9.053   8.844   6.174  0.00  0.00    +0.095 C 
ATOM     10  C   UNL     1      10.508   6.034   8.137  0.00  0.00    +0.219 C 
ATOM     11  C   UNL     1       8.828   7.593   7.033  0.00  0.00    +0.120 C 
ATOM     12  C   UNL     1      11.137   7.648   6.356  0.00  0.00    +0.108 C 
ATOM     13  C   UNL     1      10.308   8.463   5.372  0.00  0.00    +0.033 C 
BRANCH  10   6
ATOM      6  C   UNL     1       9.409   5.498   8.997  0.00  0.00    +0.075 C 
ATOM      7  C   UNL     1       9.255   4.012   9.139  0.00  0.00    +0.013 C 
ATOM      8  C   UNL     1       9.755   4.829  10.294  0.00  0.00    +0.013 C 
ENDBRANCH  10   6
ENDBRANCH  14   9
BRANCH  15  16
ATOM     16  C   UNL     1       9.618  11.691   9.993  0.00  0.00    +0.038 A 
ATOM     17  C   UNL     1       8.479  11.942  10.759  0.00  0.00    +0.013 A 
ATOM     18  C   UNL     1      10.879  11.727  10.586  0.00  0.00    +0.013 A 
ATOM     19  C   UNL     1       8.603  12.228  12.119  0.00  0.00    +0.001 A 
ATOM     20  C   UNL     1      11.003  12.013  11.946  0.00  0.00    +0.001 A 
ATOM     21  C   UNL     1       9.865  12.264  12.712  0.00  0.00    +0.000 A 
ENDBRANCH  15  16
TORSDOF 3
ENDMDL
MODEL 9
REMARK VINA RESULT:      -5.8     27.826     30.148
REMARK  Name = 51137732
REMARK  3 active torsions:
REMARK  status: ('A' for Active; 'I' for Inactive)
REMARK    1  A    between atoms: C_6  and  C_10
REMARK    2  A    between atoms: C_9  and  C_14
REMARK    3  A    between atoms: C_15  and  C_16
REMARK                            x       y       z     vdW  Elec       q    Type
REMARK                         _______ _______ _______ _____ _____    ______ ____
ROOT
ATOM      2  O   UNL     1      -7.608  -9.824  18.144  0.00  0.00    -0.420 OA
ATOM      4  N   UNL     1      -7.726 -11.429  19.697  0.00  0.00    -0.112 NA
ATOM      5  N   UNL     1      -9.013 -11.015  19.412  0.00  0.00    -0.107 NA
ATOM     14  C   UNL     1      -6.939 -10.708  18.933  0.00  0.00    +0.222 A 
ATOM     15  C   UNL     1      -8.897 -10.078  18.502  0.00  0.00    +0.248 A 
ENDROOT
BRANCH  14   9
ATOM      1  O   UNL     1      -4.309 -12.988  14.894  0.00  0.00    -0.275 OA
ATOM      3  N   UNL     1      -4.678 -11.678  16.767  0.00  0.00    -0.300 N 
ATOM      9  C   UNL     1      -5.424 -10.724  18.815  0.00  0.00    +0.095 C 
ATOM     10  C   UNL     1      -4.418 -11.886  15.423  0.00  0.00    +0.219 C 
ATOM     11  C   UNL     1      -4.840 -10.389  17.436  0.00  0.00    +0.120 C 
ATOM     12  C   UNL     1      -4.850 -12.781  17.700  0.00  0.00    +0.108 C 
ATOM     13  C   UNL     1      -4.853 -12.127  19.075  0.00  0.00    +0.033 C 
BRANCH  10   6
ATOM      6  C   UNL     1      -4.292 -10.664  14.571  0.00  0.00    +0.075 C 
ATOM      7  C   UNL     1      -3.313 -10.666  13.435  0.00  0.00    +0.013 C 
ATOM      8  C   UNL     1      -4.786 -10.704  13.156  0.00  0.00    +0.013 C 
ENDBRANCH  10   6
ENDBRANCH  14   9
BRANCH  15  16
ATOM     16  C   UNL     1      -9.897  -9.294  17.838  0.00  0.00    +0.038 A 
ATOM     17  C   UNL     1      -9.529  -8.157  17.118  0.00  0.00    +0.013 A 
ATOM     18  C   UNL     1     -11.239  -9.668  17.911  0.00  0.00    +0.013 A 
ATOM     19  C   UNL     1     -10.502  -7.395  16.472  0.00  0.00    +0.001 A 
ATOM     20  C   UNL     1     -12.212  -8.906  17.265  0.00  0.00    +0.001 A 
ATOM     21  C   UNL     1     -11.844  -7.769  16.545  0.00  0.00    +0.000 A 
ENDBRANCH  15  16
TORSDOF 3
ENDMDL
MODEL 10
REMARK VINA RESULT:      -5.8      2.219      3.066
REMARK  Name = 51137732
REMARK  3 active torsions:
REMARK  status: ('A' for Active; 'I' for Inactive)
REMARK    1  A    between atoms: C_6  and  C_10
REMARK    2  A    between atoms: C_9  and  C_14
REMARK    3  A    between atoms: C_15  and  C_16
REMARK                            x       y       z     vdW  Elec       q    Type
REMARK                         _______ _______ _______ _____ _____    ______ ____
ROOT
ATOM      2  O   UNL     1      15.662   7.478  19.140  0.00  0.00    -0.420 OA
ATOM      4  N   UNL     1      13.936   6.749  20.362  0.00  0.00    -0.112 NA
ATOM      5  N   UNL     1      15.087   6.587  21.109  0.00  0.00    -0.107 NA
ATOM     14  C   UNL     1      14.319   7.272  19.220  0.00  0.00    +0.222 A 
ATOM     15  C   UNL     1      16.069   7.025  20.358  0.00  0.00    +0.248 A 
ENDROOT
BRANCH  14   9
ATOM      1  O   UNL     1      13.915  12.272  17.415  0.00  0.00    -0.275 OA
ATOM      3  N   UNL     1      13.741   9.964  17.441  0.00  0.00    -0.300 N 
ATOM      9  C   UNL     1      13.490   7.668  18.010  0.00  0.00    +0.095 C 
ATOM     10  C   UNL     1      14.272  11.169  17.013  0.00  0.00    +0.219 C 
ATOM     11  C   UNL     1      14.149   8.628  17.011  0.00  0.00    +0.120 C 
ATOM     12  C   UNL     1      12.682   9.897  18.436  0.00  0.00    +0.108 C 
ATOM     13  C   UNL     1      12.228   8.443  18.419  0.00  0.00    +0.033 C 
BRANCH  10   6
ATOM      6  C   UNL     1      15.375  11.092  16.007  0.00  0.00    +0.075 C 
ATOM      7  C   UNL     1      15.052  11.290  14.556  0.00  0.00    +0.013 C 
ATOM      8  C   UNL     1      15.814  12.343  15.306  0.00  0.00    +0.013 C 
ENDBRANCH  10   6
ENDBRANCH  14   9
BRANCH  15  16
ATOM     16  C   UNL     1      17.477   7.100  20.615  0.00  0.00    +0.038 A 
ATOM     17  C   UNL     1      18.002   8.191  21.308  0.00  0.00    +0.013 A 
ATOM     18  C   UNL     1      18.323   6.083  20.173  0.00  0.00    +0.013 A 
ATOM     19  C   UNL     1      19.372   8.265  21.559  0.00  0.00    +0.001 A 
ATOM     20  C   UNL     1      19.693   6.156  20.424  0.00  0.00    +0.001 A 
ATOM     21  C   UNL     1      20.218   7.248  21.117  0.00  0.00    +0.000 A 
ENDBRANCH  15  16
TORSDOF 3
ENDMDL
