MODEL 1
REMARK VINA RESULT:      -6.4      0.000      0.000
REMARK  Name = 7135168
REMARK  15 active torsions:
REMARK  status: ('A' for Active; 'I' for Inactive)
REMARK    1  A    between atoms: O_2  and  C_16
REMARK    2  A    between atoms: O_3  and  C_21
REMARK    3  A    between atoms: O_5  and  C_29
REMARK    4  A    between atoms: N_9  and  CA_27
REMARK    5  A    between atoms: C_11  and  C_19
REMARK    6  A    between atoms: C_13  and  C_21
REMARK    7  A    between atoms: C_13  and  C_22
REMARK    8  A    between atoms: C_14  and  C_24
REMARK    9  A    between atoms: C_24  and  C_25
REMARK   10  A    between atoms: CA_27  and  CB_28
REMARK   11  A    between atoms: CA_27  and  C_29
REMARK   12  A    between atoms: CB_28  and  CG_31
REMARK   13  A    between atoms: C_30  and  C_32
REMARK   14  A    between atoms: CG_31  and  CD1_33
REMARK   15  A    between atoms: CG_31  and  CD2_34
REMARK                            x       y       z     vdW  Elec       q    Type
REMARK                         _______ _______ _______ _____ _____    ______ ____
ROOT
ATOM      1  S   UNL     1      14.900   8.215   6.347  0.00  0.00    -0.057 S 
ATOM      6  O   UNL     1      11.927   6.371   3.276  0.00  0.00    -0.266 OA
ATOM      8  N   UNL     1      14.641   7.353   3.921  0.00  0.00    -0.229 NA
ATOM     10  N   UNL     1      12.684   7.256   5.325  0.00  0.00    -0.258 N 
ATOM     11  C   UNL     1      18.230   8.585   3.237  0.00  0.00    -0.019 C 
ATOM     12  C   UNL     1      18.690   8.325   4.739  0.00  0.00    +0.011 C 
ATOM     13  C   UNL     1      20.147   8.782   5.130  0.00  0.00    +0.021 C 
ATOM     14  C   UNL     1      16.946   7.677   2.950  0.00  0.00    +0.054 C 
ATOM     15  C   UNL     1      19.362   8.151   2.269  0.00  0.00    +0.010 C 
ATOM     16  C   UNL     1      21.145   8.307   4.036  0.00  0.00    +0.123 C 
ATOM     17  C   UNL     1      17.598   8.774   5.754  0.00  0.00    +0.049 C 
ATOM     18  C   UNL     1      20.729   8.715   2.627  0.00  0.00    +0.032 C 
ATOM     19  C   UNL     1      17.882  10.069   2.962  0.00  0.00    +0.012 C 
ATOM     20  C   UNL     1      15.946   7.783   4.073  0.00  0.00    +0.058 A 
ATOM     22  C   UNL     1      20.557   8.088   6.461  0.00  0.00    +0.016 C 
ATOM     23  C   UNL     1      16.264   8.261   5.327  0.00  0.00    +0.015 A 
ATOM     26  C   UNL     1      13.996   7.539   5.052  0.00  0.00    +0.165 A 
ATOM     30  C   UNL     1      11.743   6.701   4.442  0.00  0.00    +0.285 C 
ATOM     41  H   UNL     1      12.382   7.475   6.271  0.00  0.00    +0.157 HD
ENDROOT
BRANCH  30  32
ATOM      7  O   UNL     1      10.370   6.024   6.269  0.00  0.00    -0.458 OA
ATOM     32  C   UNL     1      10.391   6.470   5.017  0.00  0.00    +0.189 A 
ATOM     35  C   UNL     1       9.192   6.645   4.459  0.00  0.00    +0.054 A 
ATOM     36  C   UNL     1       8.282   6.266   5.474  0.00  0.00    +0.042 A 
ATOM     37  C   UNL     1       9.047   5.897   6.556  0.00  0.00    +0.196 A 
ENDBRANCH  30  32
BRANCH  16   2
ATOM      2  O   UNL     1      22.454   8.816   4.294  0.00  0.00    -0.391 OA
ATOM     38  H   UNL     1      22.941   8.831   3.454  0.00  0.00    +0.210 HD
ENDBRANCH  16   2
BRANCH  13  21
ATOM     21  C   UNL     1      20.296  10.298   5.390  0.00  0.00    +0.165 C 
BRANCH  21   3
ATOM      3  O   UNL     1      21.267  10.470   6.398  0.00  0.00    -0.394 OA
ATOM     39  H   UNL     1      20.922  10.085   7.220  0.00  0.00    +0.209 HD
ENDBRANCH  21   3
ENDBRANCH  13  21
BRANCH  14  24
ATOM     24  C   UNL     1      16.287   7.918   1.586  0.00  0.00    +0.106 C 
BRANCH  24  25
ATOM      4  O   UNL     1      16.991   6.407  -0.167  0.00  0.00    -0.276 OA
ATOM      9  N   UNL     1      15.184   5.838   1.180  0.00  0.00    -0.310 N 
ATOM     25  C   ACE A   0      16.222   6.656   0.757  0.00  0.00    +0.214 C 
ATOM     40  H   UNL     1      14.607   6.134   1.960  0.00  0.00    +0.149 HD
BRANCH   9  27
ATOM     27  CA  UNL     1      14.883   4.564   0.568  0.00  0.00    +0.098 C 
BRANCH  27  28
ATOM     28  CB  UNL     1      13.793   4.715  -0.508  0.00  0.00    +0.027 C 
BRANCH  28  31
ATOM     31  CG  UNL     1      12.639   3.694  -0.417  0.00  0.00    -0.015 C 
ATOM     33  CD1 UNL     1      11.290   4.357  -0.139  0.00  0.00    +0.007 C 
ATOM     34  CD2 UNL     1      12.558   2.889  -1.717  0.00  0.00    +0.007 C 
ENDBRANCH  28  31
ENDBRANCH  27  28
BRANCH  27  29
ATOM     29  C   UNL     1      14.488   3.546   1.642  0.00  0.00    +0.178 C 
BRANCH  29   5
ATOM      5  O   UNL     1      15.622   3.145   2.400  0.00  0.00    -0.393 OA
ATOM     42  H   UNL     1      15.365   2.382   2.943  0.00  0.00    +0.209 HD
ENDBRANCH  29   5
ENDBRANCH  27  29
ENDBRANCH   9  27
ENDBRANCH  24  25
ENDBRANCH  14  24
TORSDOF 11
ENDMDL
MODEL 2
REMARK VINA RESULT:      -6.1     16.504     20.130
REMARK  Name = 7135168
REMARK  15 active torsions:
REMARK  status: ('A' for Active; 'I' for Inactive)
REMARK    1  A    between atoms: O_2  and  C_16
REMARK    2  A    between atoms: O_3  and  C_21
REMARK    3  A    between atoms: O_5  and  C_29
REMARK    4  A    between atoms: N_9  and  CA_27
REMARK    5  A    between atoms: C_11  and  C_19
REMARK    6  A    between atoms: C_13  and  C_21
REMARK    7  A    between atoms: C_13  and  C_22
REMARK    8  A    between atoms: C_14  and  C_24
REMARK    9  A    between atoms: C_24  and  C_25
REMARK   10  A    between atoms: CA_27  and  CB_28
REMARK   11  A    between atoms: CA_27  and  C_29
REMARK   12  A    between atoms: CB_28  and  CG_31
REMARK   13  A    between atoms: C_30  and  C_32
REMARK   14  A    between atoms: CG_31  and  CD1_33
REMARK   15  A    between atoms: CG_31  and  CD2_34
REMARK                            x       y       z     vdW  Elec       q    Type
REMARK                         _______ _______ _______ _____ _____    ______ ____
ROOT
ATOM      1  S   UNL     1      17.724   5.628  19.625  0.00  0.00    -0.057 S 
ATOM      6  O   UNL     1      21.727   7.119  21.476  0.00  0.00    -0.266 OA
ATOM      8  N   UNL     1      18.850   7.550  20.941  0.00  0.00    -0.229 NA
ATOM     10  N   UNL     1      20.250   5.687  20.324  0.00  0.00    -0.258 N 
ATOM     11  C   UNL     1      15.547   9.518  20.642  0.00  0.00    -0.019 C 
ATOM     12  C   UNL     1      14.666   8.191  20.644  0.00  0.00    +0.011 C 
ATOM     13  C   UNL     1      13.116   8.363  20.413  0.00  0.00    +0.021 C 
ATOM     14  C   UNL     1      16.957   9.174  21.313  0.00  0.00    +0.054 C 
ATOM     15  C   UNL     1      14.848  10.603  21.500  0.00  0.00    +0.010 C 
ATOM     16  C   UNL     1      12.588   9.517  21.313  0.00  0.00    +0.123 C 
ATOM     17  C   UNL     1      15.312   7.078  19.769  0.00  0.00    +0.049 C 
ATOM     18  C   UNL     1      13.380  10.810  21.157  0.00  0.00    +0.032 C 
ATOM     19  C   UNL     1      15.781  10.082  19.218  0.00  0.00    +0.012 C 
ATOM     20  C   UNL     1      17.523   7.892  20.759  0.00  0.00    +0.058 A 
ATOM     22  C   UNL     1      12.390   7.061  20.858  0.00  0.00    +0.016 C 
ATOM     23  C   UNL     1      16.763   6.958  20.085  0.00  0.00    +0.015 A 
ATOM     26  C   UNL     1      19.071   6.381  20.380  0.00  0.00    +0.165 A 
ATOM     30  C   UNL     1      21.485   6.085  20.863  0.00  0.00    +0.285 C 
ATOM     41  H   UNL     1      20.203   4.793  19.843  0.00  0.00    +0.157 HD
ENDROOT
BRANCH  30  32
ATOM      7  O   UNL     1      23.711   5.617  20.150  0.00  0.00    -0.458 OA
ATOM     32  C   UNL     1      22.599   5.117  20.682  0.00  0.00    +0.189 A 
ATOM     35  C   UNL     1      22.648   3.816  20.975  0.00  0.00    +0.054 A 
ATOM     36  C   UNL     1      23.951   3.425  20.586  0.00  0.00    +0.042 A 
ATOM     37  C   UNL     1      24.558   4.556  20.091  0.00  0.00    +0.196 A 
ENDBRANCH  30  32
BRANCH  16   2
ATOM      2  O   UNL     1      11.213   9.783  21.033  0.00  0.00    -0.391 OA
ATOM     38  H   UNL     1      10.785   8.943  20.802  0.00  0.00    +0.210 HD
ENDBRANCH  16   2
BRANCH  13  21
ATOM     21  C   UNL     1      12.707   8.583  18.939  0.00  0.00    +0.165 C 
BRANCH  21   3
ATOM      3  O   UNL     1      11.492   7.902  18.721  0.00  0.00    -0.394 OA
ATOM     39  H   UNL     1      11.643   7.225  18.041  0.00  0.00    +0.209 HD
ENDBRANCH  21   3
ENDBRANCH  13  21
BRANCH  14  24
ATOM     24  C   UNL     1      17.984  10.313  21.258  0.00  0.00    +0.106 C 
BRANCH  24  25
ATOM      4  O   UNL     1      18.269  11.567  23.307  0.00  0.00    -0.276 OA
ATOM      9  N   UNL     1      19.523   9.642  22.957  0.00  0.00    -0.310 N 
ATOM     25  C   ACE A   0      18.583  10.602  22.615  0.00  0.00    +0.214 C 
ATOM     40  H   UNL     1      19.706   8.878  22.315  0.00  0.00    +0.149 HD
BRANCH   9  27
ATOM     27  CA  UNL     1      20.259   9.665  24.201  0.00  0.00    +0.098 C 
BRANCH  27  28
ATOM     28  CB  UNL     1      21.538  10.512  24.067  0.00  0.00    +0.027 C 
BRANCH  28  31
ATOM     31  CG  UNL     1      22.241  10.422  22.696  0.00  0.00    -0.015 C 
ATOM     33  CD1 UNL     1      22.314  11.774  21.985  0.00  0.00    +0.007 C 
ATOM     34  CD2 UNL     1      23.654   9.860  22.877  0.00  0.00    +0.007 C 
ENDBRANCH  28  31
ENDBRANCH  27  28
BRANCH  27  29
ATOM     29  C   UNL     1      20.567   8.235  24.655  0.00  0.00    +0.178 C 
BRANCH  29   5
ATOM      5  O   UNL     1      19.910   7.288  23.823  0.00  0.00    -0.393 OA
ATOM     42  H   UNL     1      19.431   6.667  24.396  0.00  0.00    +0.209 HD
ENDBRANCH  29   5
ENDBRANCH  27  29
ENDBRANCH   9  27
ENDBRANCH  24  25
ENDBRANCH  14  24
TORSDOF 11
ENDMDL
MODEL 3
REMARK VINA RESULT:      -6.1     14.054     16.743
REMARK  Name = 7135168
REMARK  15 active torsions:
REMARK  status: ('A' for Active; 'I' for Inactive)
REMARK    1  A    between atoms: O_2  and  C_16
REMARK    2  A    between atoms: O_3  and  C_21
REMARK    3  A    between atoms: O_5  and  C_29
REMARK    4  A    between atoms: N_9  and  CA_27
REMARK    5  A    between atoms: C_11  and  C_19
REMARK    6  A    between atoms: C_13  and  C_21
REMARK    7  A    between atoms: C_13  and  C_22
REMARK    8  A    between atoms: C_14  and  C_24
REMARK    9  A    between atoms: C_24  and  C_25
REMARK   10  A    between atoms: CA_27  and  CB_28
REMARK   11  A    between atoms: CA_27  and  C_29
REMARK   12  A    between atoms: CB_28  and  CG_31
REMARK   13  A    between atoms: C_30  and  C_32
REMARK   14  A    between atoms: CG_31  and  CD1_33
REMARK   15  A    between atoms: CG_31  and  CD2_34
REMARK                            x       y       z     vdW  Elec       q    Type
REMARK                         _______ _______ _______ _____ _____    ______ ____
ROOT
ATOM      1  S   UNL     1      14.341  14.081  19.750  0.00  0.00    -0.057 S 
ATOM      6  O   UNL     1      11.480  10.961  21.688  0.00  0.00    -0.266 OA
ATOM      8  N   UNL     1      13.274  11.740  19.470  0.00  0.00    -0.229 NA
ATOM     10  N   UNL     1      12.688  12.972  21.457  0.00  0.00    -0.258 N 
ATOM     11  C   UNL     1      14.859  11.581  15.958  0.00  0.00    -0.019 C 
ATOM     12  C   UNL     1      16.104  12.473  16.394  0.00  0.00    +0.011 C 
ATOM     13  C   UNL     1      17.124  12.879  15.262  0.00  0.00    +0.021 C 
ATOM     14  C   UNL     1      14.229  10.936  17.278  0.00  0.00    +0.054 C 
ATOM     15  C   UNL     1      15.346  10.432  15.037  0.00  0.00    +0.010 C 
ATOM     16  C   UNL     1      17.468  11.626  14.408  0.00  0.00    +0.123 C 
ATOM     17  C   UNL     1      15.664  13.662  17.297  0.00  0.00    +0.049 C 
ATOM     18  C   UNL     1      16.234  10.895  13.891  0.00  0.00    +0.032 C 
ATOM     19  C   UNL     1      13.771  12.391  15.211  0.00  0.00    +0.012 C 
ATOM     20  C   UNL     1      14.072  11.970  18.364  0.00  0.00    +0.058 A 
ATOM     22  C   UNL     1      18.446  13.366  15.921  0.00  0.00    +0.016 C 
ATOM     23  C   UNL     1      14.738  13.178  18.361  0.00  0.00    +0.015 A 
ATOM     26  C   UNL     1      13.334  12.788  20.264  0.00  0.00    +0.165 A 
ATOM     30  C   UNL     1      11.817  12.070  22.089  0.00  0.00    +0.285 C 
ATOM     41  H   UNL     1      12.876  13.859  21.917  0.00  0.00    +0.157 HD
ENDROOT
BRANCH  30  32
ATOM      7  O   UNL     1      10.854  13.779  23.443  0.00  0.00    -0.458 OA
ATOM     32  C   UNL     1      11.278  12.519  23.400  0.00  0.00    +0.189 A 
ATOM     35  C   UNL     1      11.157  11.843  24.544  0.00  0.00    +0.054 A 
ATOM     36  C   UNL     1      10.585  12.778  25.438  0.00  0.00    +0.042 A 
ATOM     37  C   UNL     1      10.418  13.940  24.721  0.00  0.00    +0.196 A 
ENDBRANCH  30  32
BRANCH  16   2
ATOM      2  O   UNL     1      18.288  11.985  13.296  0.00  0.00    -0.391 OA
ATOM     38  H   UNL     1      19.188  11.664  13.470  0.00  0.00    +0.210 HD
ENDBRANCH  16   2
BRANCH  13  21
ATOM     21  C   UNL     1      16.654  14.045  14.363  0.00  0.00    +0.165 C 
BRANCH  21   3
ATOM      3  O   UNL     1      17.788  14.807  14.016  0.00  0.00    -0.394 OA
ATOM     39  H   UNL     1      17.643  15.720  14.316  0.00  0.00    +0.209 HD
ENDBRANCH  21   3
ENDBRANCH  13  21
BRANCH  14  24
ATOM     24  C   UNL     1      12.926  10.159  17.048  0.00  0.00    +0.106 C 
BRANCH  24  25
ATOM      4  O   UNL     1      13.069   7.759  16.785  0.00  0.00    -0.276 OA
ATOM      9  N   UNL     1      13.052   8.679  18.919  0.00  0.00    -0.310 N 
ATOM     25  C   ACE A   0      13.024   8.732  17.533  0.00  0.00    +0.214 C 
ATOM     40  H   UNL     1      13.015   9.544  19.448  0.00  0.00    +0.149 HD
BRANCH   9  27
ATOM     27  CA  UNL     1      13.141   7.442  19.661  0.00  0.00    +0.098 C 
BRANCH  27  28
ATOM     28  CB  UNL     1      12.573   7.611  21.082  0.00  0.00    +0.027 C 
BRANCH  28  31
ATOM     31  CG  UNL     1      11.137   7.080  21.279  0.00  0.00    -0.015 C 
ATOM     33  CD1 UNL     1      11.102   5.579  21.572  0.00  0.00    +0.007 C 
ATOM     34  CD2 UNL     1      10.457   7.841  22.421  0.00  0.00    +0.007 C 
ENDBRANCH  28  31
ENDBRANCH  27  28
BRANCH  27  29
ATOM     29  C   UNL     1      14.589   6.945  19.681  0.00  0.00    +0.178 C 
BRANCH  29   5
ATOM      5  O   UNL     1      14.825   6.124  20.818  0.00  0.00    -0.393 OA
ATOM     42  H   UNL     1      15.515   6.549  21.355  0.00  0.00    +0.209 HD
ENDBRANCH  29   5
ENDBRANCH  27  29
ENDBRANCH   9  27
ENDBRANCH  24  25
ENDBRANCH  14  24
TORSDOF 11
ENDMDL
MODEL 4
REMARK VINA RESULT:      -5.8      4.963      8.150
REMARK  Name = 7135168
REMARK  15 active torsions:
REMARK  status: ('A' for Active; 'I' for Inactive)
REMARK    1  A    between atoms: O_2  and  C_16
REMARK    2  A    between atoms: O_3  and  C_21
REMARK    3  A    between atoms: O_5  and  C_29
REMARK    4  A    between atoms: N_9  and  CA_27
REMARK    5  A    between atoms: C_11  and  C_19
REMARK    6  A    between atoms: C_13  and  C_21
REMARK    7  A    between atoms: C_13  and  C_22
REMARK    8  A    between atoms: C_14  and  C_24
REMARK    9  A    between atoms: C_24  and  C_25
REMARK   10  A    between atoms: CA_27  and  CB_28
REMARK   11  A    between atoms: CA_27  and  C_29
REMARK   12  A    between atoms: CB_28  and  CG_31
REMARK   13  A    between atoms: C_30  and  C_32
REMARK   14  A    between atoms: CG_31  and  CD1_33
REMARK   15  A    between atoms: CG_31  and  CD2_34
REMARK                            x       y       z     vdW  Elec       q    Type
REMARK                         _______ _______ _______ _____ _____    ______ ____
ROOT
ATOM      1  S   UNL     1       9.240   8.845   0.536  0.00  0.00    -0.057 S 
ATOM      6  O   UNL     1       7.234   8.812   4.737  0.00  0.00    -0.266 OA
ATOM      8  N   UNL     1       9.180   7.655   2.834  0.00  0.00    -0.229 NA
ATOM     10  N   UNL     1       7.677   9.516   2.532  0.00  0.00    -0.258 N 
ATOM     11  C   UNL     1      11.623   5.040   1.399  0.00  0.00    -0.019 C 
ATOM     12  C   UNL     1      12.305   6.098   0.424  0.00  0.00    +0.011 C 
ATOM     13  C   UNL     1      13.389   5.547  -0.582  0.00  0.00    +0.021 C 
ATOM     14  C   UNL     1      10.919   5.846   2.586  0.00  0.00    +0.054 C 
ATOM     15  C   UNL     1      12.713   4.122   2.009  0.00  0.00    +0.010 C 
ATOM     16  C   UNL     1      14.370   4.614   0.182  0.00  0.00    +0.123 C 
ATOM     17  C   UNL     1      11.247   7.026  -0.241  0.00  0.00    +0.049 C 
ATOM     18  C   UNL     1      13.662   3.524   0.981  0.00  0.00    +0.032 C 
ATOM     19  C   UNL     1      10.570   4.155   0.685  0.00  0.00    +0.012 C 
ATOM     20  C   UNL     1      10.118   7.007   2.053  0.00  0.00    +0.058 A 
ATOM     22  C   UNL     1      14.222   6.740  -1.132  0.00  0.00    +0.016 C 
ATOM     23  C   UNL     1      10.294   7.530   0.789  0.00  0.00    +0.015 A 
ATOM     26  C   UNL     1       8.648   8.636   2.136  0.00  0.00    +0.165 A 
ATOM     30  C   UNL     1       7.038   9.555   3.782  0.00  0.00    +0.285 C 
ATOM     41  H   UNL     1       7.408  10.206   1.835  0.00  0.00    +0.157 HD
ENDROOT
BRANCH  30  32
ATOM      7  O   UNL     1       6.367  11.593   4.820  0.00  0.00    -0.458 OA
ATOM     32  C   UNL     1       6.037  10.642   3.951  0.00  0.00    +0.189 A 
ATOM     35  C   UNL     1       4.853  10.804   3.359  0.00  0.00    +0.054 A 
ATOM     36  C   UNL     1       4.354  12.008   3.910  0.00  0.00    +0.042 A 
ATOM     37  C   UNL     1       5.312  12.450   4.792  0.00  0.00    +0.196 A 
ENDBRANCH  30  32
BRANCH  16   2
ATOM      2  O   UNL     1      15.285   3.997  -0.724  0.00  0.00    -0.391 OA
ATOM     38  H   UNL     1      14.997   3.081  -0.866  0.00  0.00    +0.210 HD
ENDBRANCH  16   2
BRANCH  13  21
ATOM     21  C   UNL     1      12.809   4.837  -1.825  0.00  0.00    +0.165 C 
BRANCH  21   3
ATOM      3  O   UNL     1      13.214   5.561  -2.965  0.00  0.00    -0.394 OA
ATOM     39  H   UNL     1      13.885   6.208  -2.689  0.00  0.00    +0.209 HD
ENDBRANCH  21   3
ENDBRANCH  13  21
BRANCH  14  24
ATOM     24  C   UNL     1      10.087   4.980   3.540  0.00  0.00    +0.106 C 
BRANCH  24  25
ATOM      4  O   UNL     1      10.092   4.503   5.912  0.00  0.00    -0.276 OA
ATOM      9  N   UNL     1      11.177   6.401   5.121  0.00  0.00    -0.310 N 
ATOM     25  C   ACE A   0      10.434   5.237   4.988  0.00  0.00    +0.214 C 
ATOM     40  H   UNL     1      11.413   6.934   4.291  0.00  0.00    +0.149 HD
BRANCH   9  27
ATOM     27  CA  UNL     1      11.649   6.896   6.394  0.00  0.00    +0.098 C 
BRANCH  27  28
ATOM     28  CB  UNL     1      11.073   8.293   6.688  0.00  0.00    +0.027 C 
BRANCH  28  31
ATOM     31  CG  UNL     1       9.639   8.301   7.261  0.00  0.00    -0.015 C 
ATOM     33  CD1 UNL     1       9.336   7.060   8.101  0.00  0.00    +0.007 C 
ATOM     34  CD2 UNL     1       9.430   9.559   8.109  0.00  0.00    +0.007 C 
ENDBRANCH  28  31
ENDBRANCH  27  28
BRANCH  27  29
ATOM     29  C   UNL     1      13.180   6.892   6.425  0.00  0.00    +0.178 C 
BRANCH  29   5
ATOM      5  O   UNL     1      13.661   6.062   7.475  0.00  0.00    -0.393 OA
ATOM     42  H   UNL     1      13.131   5.248   7.480  0.00  0.00    +0.209 HD
ENDBRANCH  29   5
ENDBRANCH  27  29
ENDBRANCH   9  27
ENDBRANCH  24  25
ENDBRANCH  14  24
TORSDOF 11
ENDMDL
MODEL 5
REMARK VINA RESULT:      -5.8     13.755     16.375
REMARK  Name = 7135168
REMARK  15 active torsions:
REMARK  status: ('A' for Active; 'I' for Inactive)
REMARK    1  A    between atoms: O_2  and  C_16
REMARK    2  A    between atoms: O_3  and  C_21
REMARK    3  A    between atoms: O_5  and  C_29
REMARK    4  A    between atoms: N_9  and  CA_27
REMARK    5  A    between atoms: C_11  and  C_19
REMARK    6  A    between atoms: C_13  and  C_21
REMARK    7  A    between atoms: C_13  and  C_22
REMARK    8  A    between atoms: C_14  and  C_24
REMARK    9  A    between atoms: C_24  and  C_25
REMARK   10  A    between atoms: CA_27  and  CB_28
REMARK   11  A    between atoms: CA_27  and  C_29
REMARK   12  A    between atoms: CB_28  and  CG_31
REMARK   13  A    between atoms: C_30  and  C_32
REMARK   14  A    between atoms: CG_31  and  CD1_33
REMARK   15  A    between atoms: CG_31  and  CD2_34
REMARK                            x       y       z     vdW  Elec       q    Type
REMARK                         _______ _______ _______ _____ _____    ______ ____
ROOT
ATOM      1  S   UNL     1      14.123  14.229  19.491  0.00  0.00    -0.057 S 
ATOM      6  O   UNL     1      11.812  10.692  21.446  0.00  0.00    -0.266 OA
ATOM      8  N   UNL     1      13.422  11.755  19.204  0.00  0.00    -0.229 NA
ATOM     10  N   UNL     1      12.692  12.867  21.215  0.00  0.00    -0.258 N 
ATOM     11  C   UNL     1      14.946  11.868  15.664  0.00  0.00    -0.019 C 
ATOM     12  C   UNL     1      16.047  12.938  16.087  0.00  0.00    +0.011 C 
ATOM     13  C   UNL     1      16.970  13.505  14.941  0.00  0.00    +0.021 C 
ATOM     14  C   UNL     1      14.447  11.124  16.988  0.00  0.00    +0.054 C 
ATOM     15  C   UNL     1      15.584  10.815  14.722  0.00  0.00    +0.010 C 
ATOM     16  C   UNL     1      17.486  12.325  14.068  0.00  0.00    +0.123 C 
ATOM     17  C   UNL     1      15.447  14.038  17.011  0.00  0.00    +0.049 C 
ATOM     18  C   UNL     1      16.369  11.417  13.566  0.00  0.00    +0.032 C 
ATOM     19  C   UNL     1      13.731  12.507  14.945  0.00  0.00    +0.012 C 
ATOM     20  C   UNL     1      14.154  12.113  18.087  0.00  0.00    +0.058 A 
ATOM     22  C   UNL     1      18.215  14.183  15.582  0.00  0.00    +0.016 C 
ATOM     23  C   UNL     1      14.627  13.409  18.086  0.00  0.00    +0.015 A 
ATOM     26  C   UNL     1      13.336  12.793  20.009  0.00  0.00    +0.165 A 
ATOM     30  C   UNL     1      11.982  11.836  21.853  0.00  0.00    +0.285 C 
ATOM     41  H   UNL     1      12.751  13.768  21.682  0.00  0.00    +0.157 HD
ENDROOT
BRANCH  30  32
ATOM      7  O   UNL     1      11.561  11.270  24.130  0.00  0.00    -0.458 OA
ATOM     32  C   UNL     1      11.406  12.187  23.178  0.00  0.00    +0.189 A 
ATOM     35  C   UNL     1      10.755  13.288  23.555  0.00  0.00    +0.054 A 
ATOM     36  C   UNL     1      10.450  13.059  24.918  0.00  0.00    +0.042 A 
ATOM     37  C   UNL     1      10.962  11.818  25.220  0.00  0.00    +0.196 A 
ENDBRANCH  30  32
BRANCH  16   2
ATOM      2  O   UNL     1      18.220  12.815  12.945  0.00  0.00    -0.391 OA
ATOM     38  H   UNL     1      18.267  12.105  12.285  0.00  0.00    +0.210 HD
ENDBRANCH  16   2
BRANCH  13  21
ATOM     21  C   UNL     1      16.310  14.592  14.064  0.00  0.00    +0.165 C 
BRANCH  21   3
ATOM      3  O   UNL     1      17.310  15.515  13.696  0.00  0.00    -0.394 OA
ATOM     39  H   UNL     1      18.174  15.088  13.814  0.00  0.00    +0.209 HD
ENDBRANCH  21   3
ENDBRANCH  13  21
BRANCH  14  24
ATOM     24  C   UNL     1      13.274  10.158  16.773  0.00  0.00    +0.106 C 
BRANCH  24  25
ATOM      4  O   UNL     1      13.593   7.763  16.656  0.00  0.00    -0.276 OA
ATOM      9  N   UNL     1      13.772   8.844  18.706  0.00  0.00    -0.310 N 
ATOM     25  C   ACE A   0      13.560   8.785  17.336  0.00  0.00    +0.214 C 
ATOM     40  H   UNL     1      13.728   9.743  19.174  0.00  0.00    +0.149 HD
BRANCH   9  27
ATOM     27  CA  UNL     1      14.066   7.681  19.510  0.00  0.00    +0.098 C 
BRANCH  27  28
ATOM     28  CB  UNL     1      15.289   6.926  18.959  0.00  0.00    +0.027 C 
BRANCH  28  31
ATOM     31  CG  UNL     1      16.542   6.965  19.861  0.00  0.00    -0.015 C 
ATOM     33  CD1 UNL     1      16.225   6.627  21.319  0.00  0.00    +0.007 C 
ATOM     34  CD2 UNL     1      17.594   5.991  19.325  0.00  0.00    +0.007 C 
ENDBRANCH  28  31
ENDBRANCH  27  28
BRANCH  27  29
ATOM     29  C   UNL     1      12.831   6.779  19.599  0.00  0.00    +0.178 C 
BRANCH  29   5
ATOM      5  O   UNL     1      12.740   6.174  20.883  0.00  0.00    -0.393 OA
ATOM     42  H   UNL     1      12.019   6.608  21.368  0.00  0.00    +0.209 HD
ENDBRANCH  29   5
ENDBRANCH  27  29
ENDBRANCH   9  27
ENDBRANCH  24  25
ENDBRANCH  14  24
TORSDOF 11
ENDMDL
MODEL 6
REMARK VINA RESULT:      -5.8      2.838      8.931
REMARK  Name = 7135168
REMARK  15 active torsions:
REMARK  status: ('A' for Active; 'I' for Inactive)
REMARK    1  A    between atoms: O_2  and  C_16
REMARK    2  A    between atoms: O_3  and  C_21
REMARK    3  A    between atoms: O_5  and  C_29
REMARK    4  A    between atoms: N_9  and  CA_27
REMARK    5  A    between atoms: C_11  and  C_19
REMARK    6  A    between atoms: C_13  and  C_21
REMARK    7  A    between atoms: C_13  and  C_22
REMARK    8  A    between atoms: C_14  and  C_24
REMARK    9  A    between atoms: C_24  and  C_25
REMARK   10  A    between atoms: CA_27  and  CB_28
REMARK   11  A    between atoms: CA_27  and  C_29
REMARK   12  A    between atoms: CB_28  and  CG_31
REMARK   13  A    between atoms: C_30  and  C_32
REMARK   14  A    between atoms: CG_31  and  CD1_33
REMARK   15  A    between atoms: CG_31  and  CD2_34
REMARK                            x       y       z     vdW  Elec       q    Type
REMARK                         _______ _______ _______ _____ _____    ______ ____
ROOT
ATOM      1  S   UNL     1      16.000   6.860   0.406  0.00  0.00    -0.057 S 
ATOM      6  O   UNL     1      15.395   7.541   4.971  0.00  0.00    -0.266 OA
ATOM      8  N   UNL     1      14.295   6.732   2.348  0.00  0.00    -0.229 NA
ATOM     10  N   UNL     1      16.519   7.481   2.900  0.00  0.00    -0.258 N 
ATOM     11  C   UNL     1      11.585   5.882  -0.259  0.00  0.00    -0.019 C 
ATOM     12  C   UNL     1      12.625   5.149  -1.217  0.00  0.00    +0.011 C 
ATOM     13  C   UNL     1      12.083   4.650  -2.612  0.00  0.00    +0.021 C 
ATOM     14  C   UNL     1      12.201   5.900   1.215  0.00  0.00    +0.054 C 
ATOM     15  C   UNL     1      10.259   5.078  -0.226  0.00  0.00    +0.010 C 
ATOM     16  C   UNL     1      10.733   3.908  -2.401  0.00  0.00    +0.123 C 
ATOM     17  C   UNL     1      13.965   5.936  -1.309  0.00  0.00    +0.049 C 
ATOM     18  C   UNL     1       9.719   4.721  -1.603  0.00  0.00    +0.032 C 
ATOM     19  C   UNL     1      11.275   7.333  -0.705  0.00  0.00    +0.012 C 
ATOM     20  C   UNL     1      13.643   6.337   1.195  0.00  0.00    +0.058 A 
ATOM     22  C   UNL     1      13.087   3.621  -3.206  0.00  0.00    +0.016 C 
ATOM     23  C   UNL     1      14.420   6.328   0.055  0.00  0.00    +0.015 A 
ATOM     26  C   UNL     1      15.540   7.037   2.052  0.00  0.00    +0.165 A 
ATOM     30  C   UNL     1      16.396   7.703   4.282  0.00  0.00    +0.285 C 
ATOM     41  H   UNL     1      17.421   7.656   2.465  0.00  0.00    +0.157 HD
ENDROOT
BRANCH  30  32
ATOM      7  O   UNL     1      18.775   7.791   4.386  0.00  0.00    -0.458 OA
ATOM     32  C   UNL     1      17.636   8.157   4.966  0.00  0.00    +0.189 A 
ATOM     35  C   UNL     1      17.774   8.879   6.079  0.00  0.00    +0.054 A 
ATOM     36  C   UNL     1      19.175   8.997   6.241  0.00  0.00    +0.042 A 
ATOM     37  C   UNL     1      19.740   8.319   5.186  0.00  0.00    +0.196 A 
ENDBRANCH  30  32
BRANCH  16   2
ATOM      2  O   UNL     1      10.152   3.556  -3.657  0.00  0.00    -0.391 OA
ATOM     38  H   UNL     1       9.324   4.054  -3.756  0.00  0.00    +0.210 HD
ENDBRANCH  16   2
BRANCH  13  21
ATOM     21  C   UNL     1      11.943   5.758  -3.679  0.00  0.00    +0.165 C 
BRANCH  21   3
ATOM      3  O   UNL     1      12.223   5.185  -4.936  0.00  0.00    -0.394 OA
ATOM     39  H   UNL     1      12.023   5.844  -5.621  0.00  0.00    +0.209 HD
ENDBRANCH  21   3
ENDBRANCH  13  21
BRANCH  14  24
ATOM     24  C   UNL     1      11.385   6.703   2.238  0.00  0.00    +0.106 C 
BRANCH  24  25
ATOM      4  O   UNL     1      10.669   4.817   3.573  0.00  0.00    -0.276 OA
ATOM      9  N   UNL     1      11.619   6.665   4.615  0.00  0.00    -0.310 N 
ATOM     25  C   ACE A   0      11.174   5.935   3.522  0.00  0.00    +0.214 C 
ATOM     40  H   UNL     1      12.027   7.581   4.464  0.00  0.00    +0.149 HD
BRANCH   9  27
ATOM     27  CA  UNL     1      11.541   6.179   5.973  0.00  0.00    +0.098 C 
BRANCH  27  28
ATOM     28  CB  UNL     1      10.096   6.249   6.501  0.00  0.00    +0.027 C 
BRANCH  28  31
ATOM     31  CG  UNL     1       9.956   6.732   7.961  0.00  0.00    -0.015 C 
ATOM     33  CD1 UNL     1       9.043   7.951   8.090  0.00  0.00    +0.007 C 
ATOM     34  CD2 UNL     1       9.419   5.593   8.831  0.00  0.00    +0.007 C 
ENDBRANCH  28  31
ENDBRANCH  27  28
BRANCH  27  29
ATOM     29  C   UNL     1      12.512   6.956   6.866  0.00  0.00    +0.178 C 
BRANCH  29   5
ATOM      5  O   UNL     1      13.696   6.204   7.100  0.00  0.00    -0.393 OA
ATOM     42  H   UNL     1      14.358   6.476   6.444  0.00  0.00    +0.209 HD
ENDBRANCH  29   5
ENDBRANCH  27  29
ENDBRANCH   9  27
ENDBRANCH  24  25
ENDBRANCH  14  24
TORSDOF 11
ENDMDL
MODEL 7
REMARK VINA RESULT:      -5.8     13.811     17.645
REMARK  Name = 7135168
REMARK  15 active torsions:
REMARK  status: ('A' for Active; 'I' for Inactive)
REMARK    1  A    between atoms: O_2  and  C_16
REMARK    2  A    between atoms: O_3  and  C_21
REMARK    3  A    between atoms: O_5  and  C_29
REMARK    4  A    between atoms: N_9  and  CA_27
REMARK    5  A    between atoms: C_11  and  C_19
REMARK    6  A    between atoms: C_13  and  C_21
REMARK    7  A    between atoms: C_13  and  C_22
REMARK    8  A    between atoms: C_14  and  C_24
REMARK    9  A    between atoms: C_24  and  C_25
REMARK   10  A    between atoms: CA_27  and  CB_28
REMARK   11  A    between atoms: CA_27  and  C_29
REMARK   12  A    between atoms: CB_28  and  CG_31
REMARK   13  A    between atoms: C_30  and  C_32
REMARK   14  A    between atoms: CG_31  and  CD1_33
REMARK   15  A    between atoms: CG_31  and  CD2_34
REMARK                            x       y       z     vdW  Elec       q    Type
REMARK                         _______ _______ _______ _____ _____    ______ ____
ROOT
ATOM      1  S   UNL     1      17.634  -4.198  -2.347  0.00  0.00    -0.057 S 
ATOM      6  O   UNL     1      20.133  -7.428  -0.111  0.00  0.00    -0.266 OA
ATOM      8  N   UNL     1      18.077  -6.738  -2.122  0.00  0.00    -0.229 NA
ATOM     10  N   UNL     1      19.361  -5.279  -0.697  0.00  0.00    -0.258 N 
ATOM     11  C   UNL     1      15.149  -7.333  -4.559  0.00  0.00    -0.019 C 
ATOM     12  C   UNL     1      15.407  -5.962  -5.327  0.00  0.00    +0.011 C 
ATOM     13  C   UNL     1      14.370  -5.564  -6.447  0.00  0.00    +0.021 C 
ATOM     14  C   UNL     1      16.503  -7.744  -3.817  0.00  0.00    +0.054 C 
ATOM     15  C   UNL     1      14.797  -8.441  -5.585  0.00  0.00    +0.010 C 
ATOM     16  C   UNL     1      14.098  -6.797  -7.356  0.00  0.00    +0.123 C 
ATOM     17  C   UNL     1      15.733  -4.807  -4.336  0.00  0.00    +0.049 C 
ATOM     18  C   UNL     1      13.708  -8.046  -6.571  0.00  0.00    +0.032 C 
ATOM     19  C   UNL     1      14.003  -7.234  -3.521  0.00  0.00    +0.012 C 
ATOM     20  C   UNL     1      17.097  -6.569  -3.083  0.00  0.00    +0.058 A 
ATOM     22  C   UNL     1      14.994  -4.459  -7.346  0.00  0.00    +0.016 C 
ATOM     23  C   UNL     1      16.750  -5.260  -3.344  0.00  0.00    +0.015 A 
ATOM     26  C   UNL     1      18.431  -5.557  -1.661  0.00  0.00    +0.165 A 
ATOM     30  C   UNL     1      20.144  -6.208   0.009  0.00  0.00    +0.285 C 
ATOM     41  H   UNL     1      19.487  -4.291  -0.489  0.00  0.00    +0.157 HD
ENDROOT
BRANCH  30  32
ATOM      7  O   UNL     1      22.337  -6.115   0.939  0.00  0.00    -0.458 OA
ATOM     32  C   UNL     1      21.102  -5.622   0.983  0.00  0.00    +0.189 A 
ATOM     35  C   UNL     1      20.906  -4.672   1.899  0.00  0.00    +0.054 A 
ATOM     36  C   UNL     1      22.168  -4.531   2.525  0.00  0.00    +0.042 A 
ATOM     37  C   UNL     1      23.004  -5.430   1.905  0.00  0.00    +0.196 A 
ENDBRANCH  30  32
BRANCH  16   2
ATOM      2  O   UNL     1      13.067  -6.508  -8.300  0.00  0.00    -0.391 OA
ATOM     38  H   UNL     1      12.214  -6.718  -7.888  0.00  0.00    +0.210 HD
ENDBRANCH  16   2
BRANCH  13  21
ATOM     21  C   UNL     1      13.047  -4.970  -5.915  0.00  0.00    +0.165 C 
BRANCH  21   3
ATOM      3  O   UNL     1      12.521  -4.124  -6.913  0.00  0.00    -0.394 OA
ATOM     39  H   UNL     1      13.248  -3.863  -7.502  0.00  0.00    +0.209 HD
ENDBRANCH  21   3
ENDBRANCH  13  21
BRANCH  14  24
ATOM     24  C   UNL     1      16.383  -8.973  -2.906  0.00  0.00    +0.106 C 
BRANCH  24  25
ATOM      4  O   UNL     1      18.401  -9.857  -3.906  0.00  0.00    -0.276 OA
ATOM      9  N   UNL     1      17.741 -10.603  -1.806  0.00  0.00    -0.310 N 
ATOM     25  C   ACE A   0      17.620  -9.840  -2.958  0.00  0.00    +0.214 C 
ATOM     40  H   UNL     1      17.042 -10.510  -1.077  0.00  0.00    +0.149 HD
BRANCH   9  27
ATOM     27  CA  UNL     1      18.829 -11.526  -1.581  0.00  0.00    +0.098 C 
BRANCH  27  28
ATOM     28  CB  UNL     1      18.336 -12.789  -0.851  0.00  0.00    +0.027 C 
BRANCH  28  31
ATOM     31  CG  UNL     1      16.966 -12.648  -0.153  0.00  0.00    -0.015 C 
ATOM     33  CD1 UNL     1      16.167 -13.951  -0.161  0.00  0.00    +0.007 C 
ATOM     34  CD2 UNL     1      17.169 -12.178   1.290  0.00  0.00    +0.007 C 
ENDBRANCH  28  31
ENDBRANCH  27  28
BRANCH  27  29
ATOM     29  C   UNL     1      19.959 -10.830  -0.816  0.00  0.00    +0.178 C 
BRANCH  29   5
ATOM      5  O   UNL     1      20.657  -9.925  -1.661  0.00  0.00    -0.393 OA
ATOM     42  H   UNL     1      20.223  -9.931  -2.531  0.00  0.00    +0.209 HD
ENDBRANCH  29   5
ENDBRANCH  27  29
ENDBRANCH   9  27
ENDBRANCH  24  25
ENDBRANCH  14  24
TORSDOF 11
ENDMDL
MODEL 8
REMARK VINA RESULT:      -5.8     26.949     32.611
REMARK  Name = 7135168
REMARK  15 active torsions:
REMARK  status: ('A' for Active; 'I' for Inactive)
REMARK    1  A    between atoms: O_2  and  C_16
REMARK    2  A    between atoms: O_3  and  C_21
REMARK    3  A    between atoms: O_5  and  C_29
REMARK    4  A    between atoms: N_9  and  CA_27
REMARK    5  A    between atoms: C_11  and  C_19
REMARK    6  A    between atoms: C_13  and  C_21
REMARK    7  A    between atoms: C_13  and  C_22
REMARK    8  A    between atoms: C_14  and  C_24
REMARK    9  A    between atoms: C_24  and  C_25
REMARK   10  A    between atoms: CA_27  and  CB_28
REMARK   11  A    between atoms: CA_27  and  C_29
REMARK   12  A    between atoms: CB_28  and  CG_31
REMARK   13  A    between atoms: C_30  and  C_32
REMARK   14  A    between atoms: CG_31  and  CD1_33
REMARK   15  A    between atoms: CG_31  and  CD2_34
REMARK                            x       y       z     vdW  Elec       q    Type
REMARK                         _______ _______ _______ _____ _____    ______ ____
ROOT
ATOM      1  S   UNL     1     -10.052  -9.777  12.820  0.00  0.00    -0.057 S 
ATOM      6  O   UNL     1      -5.401  -9.711  13.020  0.00  0.00    -0.266 OA
ATOM      8  N   UNL     1      -8.010  -9.820  14.409  0.00  0.00    -0.229 NA
ATOM     10  N   UNL     1      -7.548  -9.696  12.046  0.00  0.00    -0.258 N 
ATOM     11  C   UNL     1     -10.472  -9.604  17.369  0.00  0.00    -0.019 C 
ATOM     12  C   UNL     1     -11.610 -10.393  16.582  0.00  0.00    +0.011 C 
ATOM     13  C   UNL     1     -13.010 -10.527  17.295  0.00  0.00    +0.021 C 
ATOM     14  C   UNL     1      -9.068  -9.961  16.694  0.00  0.00    +0.054 C 
ATOM     15  C   UNL     1     -10.441 -10.079  18.845  0.00  0.00    +0.010 C 
ATOM     16  C   UNL     1     -12.794 -10.965  18.771  0.00  0.00    +0.123 C 
ATOM     17  C   UNL     1     -11.702  -9.928  15.099  0.00  0.00    +0.049 C 
ATOM     18  C   UNL     1     -11.804 -10.079  19.521  0.00  0.00    +0.032 C 
ATOM     19  C   UNL     1     -10.678  -8.069  17.345  0.00  0.00    +0.012 C 
ATOM     20  C   UNL     1      -9.148  -9.867  15.192  0.00  0.00    +0.058 A 
ATOM     22  C   UNL     1     -13.829 -11.650  16.596  0.00  0.00    +0.016 C 
ATOM     23  C   UNL     1     -10.340  -9.872  14.497  0.00  0.00    +0.015 A 
ATOM     26  C   UNL     1      -8.365  -9.764  13.143  0.00  0.00    +0.165 A 
ATOM     30  C   UNL     1      -6.143  -9.675  12.045  0.00  0.00    +0.285 C 
ATOM     41  H   UNL     1      -8.029  -9.665  11.151  0.00  0.00    +0.157 HD
ENDROOT
BRANCH  30  32
ATOM      7  O   UNL     1      -4.506  -8.766  10.569  0.00  0.00    -0.458 OA
ATOM     32  C   UNL     1      -5.510  -9.630  10.701  0.00  0.00    +0.189 A 
ATOM     35  C   UNL     1      -5.800 -10.329   9.603  0.00  0.00    +0.054 A 
ATOM     36  C   UNL     1      -4.871  -9.864   8.642  0.00  0.00    +0.042 A 
ATOM     37  C   UNL     1      -4.106  -8.915   9.279  0.00  0.00    +0.196 A 
ENDBRANCH  30  32
BRANCH  16   2
ATOM      2  O   UNL     1     -14.033 -10.971  19.480  0.00  0.00    -0.391 OA
ATOM     38  H   UNL     1     -14.142 -11.846  19.887  0.00  0.00    +0.210 HD
ENDBRANCH  16   2
BRANCH  13  21
ATOM     21  C   UNL     1     -13.892  -9.261  17.219  0.00  0.00    +0.165 C 
BRANCH  21   3
ATOM      3  O   UNL     1     -15.238  -9.676  17.142  0.00  0.00    -0.394 OA
ATOM     39  H   UNL     1     -15.789  -8.994  17.561  0.00  0.00    +0.209 HD
ENDBRANCH  21   3
ENDBRANCH  13  21
BRANCH  14  24
ATOM     24  C   UNL     1      -7.876  -9.167  17.244  0.00  0.00    +0.106 C 
BRANCH  24  25
ATOM      4  O   UNL     1      -6.496 -10.541  18.679  0.00  0.00    -0.276 OA
ATOM      9  N   UNL     1      -5.899 -10.250  16.452  0.00  0.00    -0.310 N 
ATOM     25  C   ACE A   0      -6.700 -10.060  17.568  0.00  0.00    +0.214 C 
ATOM     40  H   UNL     1      -6.160  -9.810  15.576  0.00  0.00    +0.149 HD
BRANCH   9  27
ATOM     27  CA  UNL     1      -4.702 -11.059  16.468  0.00  0.00    +0.098 C 
BRANCH  27  28
ATOM     28  CB  UNL     1      -3.457 -10.205  16.162  0.00  0.00    +0.027 C 
BRANCH  28  31
ATOM     31  CG  UNL     1      -2.363 -10.917  15.338  0.00  0.00    -0.015 C 
ATOM     33  CD1 UNL     1      -2.404 -10.536  13.857  0.00  0.00    +0.007 C 
ATOM     34  CD2 UNL     1      -0.984 -10.586  15.916  0.00  0.00    +0.007 C 
ENDBRANCH  28  31
ENDBRANCH  27  28
BRANCH  27  29
ATOM     29  C   UNL     1      -4.845 -12.228  15.489  0.00  0.00    +0.178 C 
BRANCH  29   5
ATOM      5  O   UNL     1      -6.036 -12.102  14.723  0.00  0.00    -0.393 OA
ATOM     42  H   UNL     1      -5.814 -12.274  13.793  0.00  0.00    +0.209 HD
ENDBRANCH  29   5
ENDBRANCH  27  29
ENDBRANCH   9  27
ENDBRANCH  24  25
ENDBRANCH  14  24
TORSDOF 11
ENDMDL
MODEL 9
REMARK VINA RESULT:      -5.7     33.696     39.367
REMARK  Name = 7135168
REMARK  15 active torsions:
REMARK  status: ('A' for Active; 'I' for Inactive)
REMARK    1  A    between atoms: O_2  and  C_16
REMARK    2  A    between atoms: O_3  and  C_21
REMARK    3  A    between atoms: O_5  and  C_29
REMARK    4  A    between atoms: N_9  and  CA_27
REMARK    5  A    between atoms: C_11  and  C_19
REMARK    6  A    between atoms: C_13  and  C_21
REMARK    7  A    between atoms: C_13  and  C_22
REMARK    8  A    between atoms: C_14  and  C_24
REMARK    9  A    between atoms: C_24  and  C_25
REMARK   10  A    between atoms: CA_27  and  CB_28
REMARK   11  A    between atoms: CA_27  and  C_29
REMARK   12  A    between atoms: CB_28  and  CG_31
REMARK   13  A    between atoms: C_30  and  C_32
REMARK   14  A    between atoms: CG_31  and  CD1_33
REMARK   15  A    between atoms: CG_31  and  CD2_34
REMARK                            x       y       z     vdW  Elec       q    Type
REMARK                         _______ _______ _______ _____ _____    ______ ____
ROOT
ATOM      1  S   UNL     1      -4.671  13.177  33.578  0.00  0.00    -0.057 S 
ATOM      6  O   UNL     1      -0.294  12.289  34.890  0.00  0.00    -0.266 OA
ATOM      8  N   UNL     1      -3.189  11.742  35.141  0.00  0.00    -0.229 NA
ATOM     10  N   UNL     1      -2.056  13.314  33.707  0.00  0.00    -0.258 N 
ATOM     11  C   UNL     1      -6.421  10.370  36.734  0.00  0.00    -0.019 C 
ATOM     12  C   UNL     1      -7.243  10.511  35.377  0.00  0.00    +0.011 C 
ATOM     13  C   UNL     1      -8.784  10.183  35.438  0.00  0.00    +0.021 C 
ATOM     14  C   UNL     1      -4.867  10.312  36.366  0.00  0.00    +0.054 C 
ATOM     15  C   UNL     1      -6.808   9.043  37.436  0.00  0.00    +0.010 C 
ATOM     16  C   UNL     1      -8.996   8.851  36.211  0.00  0.00    +0.123 C 
ATOM     17  C   UNL     1      -6.913  11.846  34.648  0.00  0.00    +0.049 C 
ATOM     18  C   UNL     1      -8.308   8.831  37.572  0.00  0.00    +0.032 C 
ATOM     19  C   UNL     1      -6.674  11.543  37.714  0.00  0.00    +0.012 C 
ATOM     20  C   UNL     1      -4.505  11.387  35.373  0.00  0.00    +0.058 A 
ATOM     22  C   UNL     1      -9.314   9.966  33.991  0.00  0.00    +0.016 C 
ATOM     23  C   UNL     1      -5.437  12.049  34.601  0.00  0.00    +0.015 A 
ATOM     26  C   UNL     1      -3.157  12.681  34.220  0.00  0.00    +0.165 A 
ATOM     30  C   UNL     1      -0.716  13.088  34.061  0.00  0.00    +0.285 C 
ATOM     41  H   UNL     1      -2.252  14.012  32.994  0.00  0.00    +0.157 HD
ENDROOT
BRANCH  30  32
ATOM      7  O   UNL     1       1.165  14.552  34.071  0.00  0.00    -0.458 OA
ATOM     32  C   UNL     1       0.284  13.900  33.318  0.00  0.00    +0.189 A 
ATOM     35  C   UNL     1       0.428  14.071  32.003  0.00  0.00    +0.054 A 
ATOM     36  C   UNL     1       1.538  14.941  31.888  0.00  0.00    +0.042 A 
ATOM     37  C   UNL     1       1.952  15.204  33.173  0.00  0.00    +0.196 A 
ENDBRANCH  30  32
BRANCH  16   2
ATOM      2  O   UNL     1     -10.388   8.592  36.396  0.00  0.00    -0.391 OA
ATOM     38  H   UNL     1     -10.478   7.907  37.078  0.00  0.00    +0.210 HD
ENDBRANCH  16   2
BRANCH  13  21
ATOM     21  C   UNL     1      -9.657  11.310  36.035  0.00  0.00    +0.165 C 
BRANCH  21   3
ATOM      3  O   UNL     1     -10.905  11.283  35.380  0.00  0.00    -0.394 OA
ATOM     39  H   UNL     1     -10.808  11.734  34.525  0.00  0.00    +0.209 HD
ENDBRANCH  21   3
ENDBRANCH  13  21
BRANCH  14  24
ATOM     24  C   UNL     1      -3.924  10.323  37.576  0.00  0.00    +0.106 C 
BRANCH  24  25
ATOM      4  O   UNL     1      -2.776   8.406  36.649  0.00  0.00    -0.276 OA
ATOM      9  N   UNL     1      -2.647   8.827  38.931  0.00  0.00    -0.310 N 
ATOM     25  C   ACE A   0      -3.060   9.085  37.633  0.00  0.00    +0.214 C 
ATOM     40  H   UNL     1      -2.934   9.454  39.675  0.00  0.00    +0.149 HD
BRANCH   9  27
ATOM     27  CA  UNL     1      -1.811   7.703  39.286  0.00  0.00    +0.098 C 
BRANCH  27  28
ATOM     28  CB  UNL     1      -2.081   7.251  40.732  0.00  0.00    +0.027 C 
BRANCH  28  31
ATOM     31  CG  UNL     1      -2.229   5.726  40.924  0.00  0.00    -0.015 C 
ATOM     33  CD1 UNL     1      -0.971   5.084  41.509  0.00  0.00    +0.007 C 
ATOM     34  CD2 UNL     1      -3.425   5.434  41.834  0.00  0.00    +0.007 C 
ENDBRANCH  28  31
ENDBRANCH  27  28
BRANCH  27  29
ATOM     29  C   UNL     1      -0.337   8.054  39.064  0.00  0.00    +0.178 C 
BRANCH  29   5
ATOM      5  O   UNL     1       0.042   7.814  37.715  0.00  0.00    -0.393 OA
ATOM     42  H   UNL     1       0.157   8.674  37.278  0.00  0.00    +0.209 HD
ENDBRANCH  29   5
ENDBRANCH  27  29
ENDBRANCH   9  27
ENDBRANCH  24  25
ENDBRANCH  14  24
TORSDOF 11
ENDMDL
MODEL 10
REMARK VINA RESULT:      -5.7     30.945     34.678
REMARK  Name = 7135168
REMARK  15 active torsions:
REMARK  status: ('A' for Active; 'I' for Inactive)
REMARK    1  A    between atoms: O_2  and  C_16
REMARK    2  A    between atoms: O_3  and  C_21
REMARK    3  A    between atoms: O_5  and  C_29
REMARK    4  A    between atoms: N_9  and  CA_27
REMARK    5  A    between atoms: C_11  and  C_19
REMARK    6  A    between atoms: C_13  and  C_21
REMARK    7  A    between atoms: C_13  and  C_22
REMARK    8  A    between atoms: C_14  and  C_24
REMARK    9  A    between atoms: C_24  and  C_25
REMARK   10  A    between atoms: CA_27  and  CB_28
REMARK   11  A    between atoms: CA_27  and  C_29
REMARK   12  A    between atoms: CB_28  and  CG_31
REMARK   13  A    between atoms: C_30  and  C_32
REMARK   14  A    between atoms: CG_31  and  CD1_33
REMARK   15  A    between atoms: CG_31  and  CD2_34
REMARK                            x       y       z     vdW  Elec       q    Type
REMARK                         _______ _______ _______ _____ _____    ______ ____
ROOT
ATOM      1  S   UNL     1     -10.137 -12.825  20.414  0.00  0.00    -0.057 S 
ATOM      6  O   UNL     1     -13.409  -9.565  19.832  0.00  0.00    -0.266 OA
ATOM      8  N   UNL     1     -10.756 -10.667  19.128  0.00  0.00    -0.229 NA
ATOM     10  N   UNL     1     -12.378 -11.495  20.708  0.00  0.00    -0.258 N 
ATOM     11  C   UNL     1      -7.202 -10.693  17.632  0.00  0.00    -0.019 C 
ATOM     12  C   UNL     1      -7.112 -12.282  17.673  0.00  0.00    +0.011 C 
ATOM     13  C   UNL     1      -5.736 -12.931  17.259  0.00  0.00    +0.021 C 
ATOM     14  C   UNL     1      -8.748 -10.286  17.650  0.00  0.00    +0.054 C 
ATOM     15  C   UNL     1      -6.576 -10.174  16.311  0.00  0.00    +0.010 C 
ATOM     16  C   UNL     1      -5.230 -12.267  15.946  0.00  0.00    +0.123 C 
ATOM     17  C   UNL     1      -7.702 -12.851  18.996  0.00  0.00    +0.049 C 
ATOM     18  C   UNL     1      -5.196 -10.744  16.018  0.00  0.00    +0.032 C 
ATOM     19  C   UNL     1      -6.480 -10.018  18.824  0.00  0.00    +0.012 C 
ATOM     20  C   UNL     1      -9.499 -11.056  18.706  0.00  0.00    +0.058 A 
ATOM     22  C   UNL     1      -5.957 -14.440  16.957  0.00  0.00    +0.016 C 
ATOM     23  C   UNL     1      -9.018 -12.214  19.283  0.00  0.00    +0.015 A 
ATOM     26  C   UNL     1     -11.187 -11.520  20.032  0.00  0.00    +0.165 A 
ATOM     30  C   UNL     1     -13.400 -10.541  20.574  0.00  0.00    +0.285 C 
ATOM     41  H   UNL     1     -12.517 -12.258  21.366  0.00  0.00    +0.157 HD
ENDROOT
BRANCH  30  32
ATOM      7  O   UNL     1     -15.587  -9.894  21.265  0.00  0.00    -0.458 OA
ATOM     32  C   UNL     1     -14.604 -10.778  21.413  0.00  0.00    +0.189 A 
ATOM     35  C   UNL     1     -14.845 -11.748  22.296  0.00  0.00    +0.054 A 
ATOM     36  C   UNL     1     -16.143 -11.460  22.780  0.00  0.00    +0.042 A 
ATOM     37  C   UNL     1     -16.552 -10.323  22.122  0.00  0.00    +0.196 A 
ENDBRANCH  30  32
BRANCH  16   2
ATOM      2  O   UNL     1      -3.925 -12.741  15.615  0.00  0.00    -0.391 OA
ATOM     38  H   UNL     1      -3.961 -13.710  15.561  0.00  0.00    +0.210 HD
ENDBRANCH  16   2
BRANCH  13  21
ATOM     21  C   UNL     1      -4.648 -12.881  18.355  0.00  0.00    +0.165 C 
BRANCH  21   3
ATOM      3  O   UNL     1      -4.049 -14.155  18.428  0.00  0.00    -0.394 OA
ATOM     39  H   UNL     1      -4.585 -14.708  19.021  0.00  0.00    +0.209 HD
ENDBRANCH  21   3
ENDBRANCH  13  21
BRANCH  14  24
ATOM     24  C   UNL     1      -9.010  -8.778  17.762  0.00  0.00    +0.106 C 
BRANCH  24  25
ATOM      4  O   UNL     1      -9.602  -7.455  15.825  0.00  0.00    -0.276 OA
ATOM      9  N   UNL     1     -11.181  -8.877  16.768  0.00  0.00    -0.310 N 
ATOM     25  C   ACE A   0      -9.932  -8.281  16.672  0.00  0.00    +0.214 C 
ATOM     40  H   UNL     1     -11.350  -9.553  17.505  0.00  0.00    +0.149 HD
BRANCH   9  27
ATOM     27  CA  UNL     1     -12.265  -8.589  15.858  0.00  0.00    +0.098 C 
BRANCH  27  28
ATOM     28  CB  UNL     1     -12.920  -7.236  16.193  0.00  0.00    +0.027 C 
BRANCH  28  31
ATOM     31  CG  UNL     1     -13.194  -6.325  14.977  0.00  0.00    -0.015 C 
ATOM     33  CD1 UNL     1     -12.371  -6.719  13.751  0.00  0.00    +0.007 C 
ATOM     34  CD2 UNL     1     -14.685  -6.364  14.629  0.00  0.00    +0.007 C 
ENDBRANCH  28  31
ENDBRANCH  27  28
BRANCH  27  29
ATOM     29  C   UNL     1     -13.282  -9.734  15.874  0.00  0.00    +0.178 C 
BRANCH  29   5
ATOM      5  O   UNL     1     -13.121 -10.536  17.037  0.00  0.00    -0.393 OA
ATOM     42  H   UNL     1     -12.392 -11.158  16.873  0.00  0.00    +0.209 HD
ENDBRANCH  29   5
ENDBRANCH  27  29
ENDBRANCH   9  27
ENDBRANCH  24  25
ENDBRANCH  14  24
TORSDOF 11
ENDMDL
