MODEL 1
REMARK VINA RESULT:      -6.5      0.000      0.000
REMARK  Name = 45783415
REMARK  11 active torsions:
REMARK  status: ('A' for Active; 'I' for Inactive)
REMARK    1  A    between atoms: O_3  and  C_23
REMARK    2  A    between atoms: O_3  and  C_27
REMARK    3  A    between atoms: O_4  and  C_22
REMARK    4  A    between atoms: O_5  and  C_28
REMARK    5  A    between atoms: O_5  and  C_29
REMARK    6  A    between atoms: N_6  and  C_14
REMARK    7  A    between atoms: C_10  and  C_15
REMARK    8  A    between atoms: C_14  and  C_16
REMARK    9  A    between atoms: C_18  and  C_21
REMARK   10  A    between atoms: C_19  and  C_22
REMARK   11  A    between atoms: C_27  and  C_28
REMARK                            x       y       z     vdW  Elec       q    Type
REMARK                         _______ _______ _______ _____ _____    ______ ____
ROOT
ATOM      1  O   UNL     1      16.573   9.329  21.506  0.00  0.00    -0.336 OA
ATOM      7  N   UNL     1      14.517   8.759  22.190  0.00  0.00    -0.190 NA
ATOM      8  N   UNL     1      16.053  10.455  22.157  0.00  0.00    -0.056 NA
ATOM     15  C   UNL     1      15.606   8.377  21.570  0.00  0.00    +0.245 A 
ATOM     18  C   UNL     1      14.839  10.040  22.531  0.00  0.00    +0.207 A 
ENDROOT
BRANCH  18  21
ATOM      9  N   UNL     1      11.754  11.937  23.414  0.00  0.00    -0.221 NA
ATOM     21  C   UNL     1      13.922  10.880  23.247  0.00  0.00    +0.084 A 
ATOM     23  C   UNL     1      12.649  11.152  22.773  0.00  0.00    +0.226 A 
ATOM     24  C   UNL     1      14.303  11.452  24.457  0.00  0.00    +0.018 A 
ATOM     25  C   UNL     1      13.409  12.265  25.147  0.00  0.00    +0.021 A 
ATOM     26  C   UNL     1      12.159  12.475  24.587  0.00  0.00    +0.114 A 
BRANCH  23   3
ATOM      3  O   UNL     1      12.229  10.612  21.584  0.00  0.00    -0.474 OA
BRANCH   3  27
ATOM     27  C   UNL     1      11.147   9.691  21.649  0.00  0.00    +0.258 C 
BRANCH  27  28
ATOM     28  C   UNL     1      11.225   8.752  20.461  0.00  0.00    +0.200 C 
BRANCH  28   5
ATOM      5  O   UNL     1      10.661   7.497  20.822  0.00  0.00    -0.380 OA
ATOM     29  C   UNL     1      11.652   6.600  21.302  0.00  0.00    +0.194 C 
ENDBRANCH  28   5
ENDBRANCH  27  28
ENDBRANCH   3  27
ENDBRANCH  23   3
ENDBRANCH  18  21
BRANCH  15  10
ATOM      6  N   UNL     1      15.886   7.101  19.453  0.00  0.00    -0.284 NA
ATOM     10  C   UNL     1      15.928   7.044  20.928  0.00  0.00    +0.146 C 
ATOM     11  C   UNL     1      17.347   6.550  21.261  0.00  0.00    +0.030 C 
ATOM     12  C   UNL     1      18.007   6.299  19.913  0.00  0.00    +0.017 C 
ATOM     13  C   UNL     1      16.835   6.096  18.974  0.00  0.00    +0.085 C 
BRANCH   6  14
ATOM     14  C   UNL     1      14.551   6.898  18.906  0.00  0.00    +0.159 C 
BRANCH  14  16
ATOM      2  O   UNL     1      13.095   7.940  17.256  0.00  0.00    -0.461 OA
ATOM     16  C   UNL     1      14.030   8.135  18.224  0.00  0.00    +0.119 A 
ATOM     17  C   UNL     1      14.304   9.476  18.369  0.00  0.00    +0.046 A 
ATOM     19  C   UNL     1      12.768   9.170  16.780  0.00  0.00    +0.131 A 
ATOM     20  C   UNL     1      13.483  10.148  17.432  0.00  0.00    +0.047 A 
BRANCH  19  22
ATOM     22  C   UNL     1      11.759   9.205  15.712  0.00  0.00    +0.230 C 
BRANCH  22   4
ATOM      4  O   UNL     1      12.000  10.313  14.841  0.00  0.00    -0.387 OA
ATOM     30  H   UNL     1      12.216  11.076  15.405  0.00  0.00    +0.210 HD
ENDBRANCH  22   4
ENDBRANCH  19  22
ENDBRANCH  14  16
ENDBRANCH   6  14
ENDBRANCH  15  10
TORSDOF 10
ENDMDL
MODEL 2
REMARK VINA RESULT:      -5.8      1.587      5.964
REMARK  Name = 45783415
REMARK  11 active torsions:
REMARK  status: ('A' for Active; 'I' for Inactive)
REMARK    1  A    between atoms: O_3  and  C_23
REMARK    2  A    between atoms: O_3  and  C_27
REMARK    3  A    between atoms: O_4  and  C_22
REMARK    4  A    between atoms: O_5  and  C_28
REMARK    5  A    between atoms: O_5  and  C_29
REMARK    6  A    between atoms: N_6  and  C_14
REMARK    7  A    between atoms: C_10  and  C_15
REMARK    8  A    between atoms: C_14  and  C_16
REMARK    9  A    between atoms: C_18  and  C_21
REMARK   10  A    between atoms: C_19  and  C_22
REMARK   11  A    between atoms: C_27  and  C_28
REMARK                            x       y       z     vdW  Elec       q    Type
REMARK                         _______ _______ _______ _____ _____    ______ ____
ROOT
ATOM      1  O   UNL     1      14.763   9.575  22.961  0.00  0.00    -0.336 OA
ATOM      7  N   UNL     1      16.201   9.912  21.276  0.00  0.00    -0.190 NA
ATOM      8  N   UNL     1      15.003   8.316  22.396  0.00  0.00    -0.056 NA
ATOM     15  C   UNL     1      15.506  10.457  22.243  0.00  0.00    +0.245 A 
ATOM     18  C   UNL     1      15.860   8.598  21.410  0.00  0.00    +0.207 A 
ENDROOT
BRANCH  18  21
ATOM      9  N   UNL     1      16.224   6.276  18.517  0.00  0.00    -0.221 NA
ATOM     21  C   UNL     1      16.394   7.590  20.539  0.00  0.00    +0.084 A 
ATOM     23  C   UNL     1      15.757   7.219  19.366  0.00  0.00    +0.226 A 
ATOM     24  C   UNL     1      17.586   6.952  20.863  0.00  0.00    +0.018 A 
ATOM     25  C   UNL     1      18.099   5.976  20.015  0.00  0.00    +0.021 A 
ATOM     26  C   UNL     1      17.386   5.677  18.865  0.00  0.00    +0.114 A 
BRANCH  23   3
ATOM      3  O   UNL     1      14.579   7.820  19.004  0.00  0.00    -0.474 OA
BRANCH   3  27
ATOM     27  C   UNL     1      13.915   7.289  17.864  0.00  0.00    +0.258 C 
BRANCH  27  28
ATOM     28  C   UNL     1      12.438   7.142  18.175  0.00  0.00    +0.200 C 
BRANCH  28   5
ATOM      5  O   UNL     1      11.681   7.567  17.049  0.00  0.00    -0.380 OA
ATOM     29  C   UNL     1      11.793   8.968  16.844  0.00  0.00    +0.194 C 
ENDBRANCH  28   5
ENDBRANCH  27  28
ENDBRANCH   3  27
ENDBRANCH  23   3
ENDBRANCH  18  21
BRANCH  15  10
ATOM      6  N   UNL     1      14.123  12.244  23.286  0.00  0.00    -0.284 NA
ATOM     10  C   UNL     1      15.419  11.910  22.662  0.00  0.00    +0.146 C 
ATOM     11  C   UNL     1      16.472  12.288  23.719  0.00  0.00    +0.030 C 
ATOM     12  C   UNL     1      15.679  12.881  24.875  0.00  0.00    +0.017 C 
ATOM     13  C   UNL     1      14.386  13.332  24.228  0.00  0.00    +0.085 C 
BRANCH   6  14
ATOM     14  C   UNL     1      13.091  12.593  22.319  0.00  0.00    +0.159 C 
BRANCH  14  16
ATOM      2  O   UNL     1      11.781  10.554  22.547  0.00  0.00    -0.461 OA
ATOM     16  C   UNL     1      12.464  11.371  21.702  0.00  0.00    +0.119 A 
ATOM     17  C   UNL     1      12.428  10.877  20.418  0.00  0.00    +0.046 A 
ATOM     19  C   UNL     1      11.305   9.528  21.794  0.00  0.00    +0.131 A 
ATOM     20  C   UNL     1      11.675   9.681  20.478  0.00  0.00    +0.047 A 
BRANCH  19  22
ATOM     22  C   UNL     1      10.523   8.508  22.508  0.00  0.00    +0.230 C 
BRANCH  22   4
ATOM      4  O   UNL     1      10.068   7.506  21.595  0.00  0.00    -0.387 OA
ATOM     30  H   UNL     1       9.180   7.771  21.302  0.00  0.00    +0.210 HD
ENDBRANCH  22   4
ENDBRANCH  19  22
ENDBRANCH  14  16
ENDBRANCH   6  14
ENDBRANCH  15  10
TORSDOF 10
ENDMDL
MODEL 3
REMARK VINA RESULT:      -5.7     29.172     31.952
REMARK  Name = 45783415
REMARK  11 active torsions:
REMARK  status: ('A' for Active; 'I' for Inactive)
REMARK    1  A    between atoms: O_3  and  C_23
REMARK    2  A    between atoms: O_3  and  C_27
REMARK    3  A    between atoms: O_4  and  C_22
REMARK    4  A    between atoms: O_5  and  C_28
REMARK    5  A    between atoms: O_5  and  C_29
REMARK    6  A    between atoms: N_6  and  C_14
REMARK    7  A    between atoms: C_10  and  C_15
REMARK    8  A    between atoms: C_14  and  C_16
REMARK    9  A    between atoms: C_18  and  C_21
REMARK   10  A    between atoms: C_19  and  C_22
REMARK   11  A    between atoms: C_27  and  C_28
REMARK                            x       y       z     vdW  Elec       q    Type
REMARK                         _______ _______ _______ _____ _____    ______ ____
ROOT
ATOM      1  O   UNL     1     -16.453   1.546  26.331  0.00  0.00    -0.336 OA
ATOM      7  N   UNL     1     -16.238   3.774  26.243  0.00  0.00    -0.190 NA
ATOM      8  N   UNL     1     -16.133   1.855  25.003  0.00  0.00    -0.056 NA
ATOM     15  C   UNL     1     -16.496   2.732  26.993  0.00  0.00    +0.245 A 
ATOM     18  C   UNL     1     -16.022   3.186  25.031  0.00  0.00    +0.207 A 
ENDROOT
BRANCH  18  21
ATOM      9  N   UNL     1     -16.375   4.969  21.777  0.00  0.00    -0.221 NA
ATOM     21  C   UNL     1     -15.698   3.959  23.867  0.00  0.00    +0.084 A 
ATOM     23  C   UNL     1     -16.637   4.245  22.889  0.00  0.00    +0.226 A 
ATOM     24  C   UNL     1     -14.407   4.445  23.693  0.00  0.00    +0.018 A 
ATOM     25  C   UNL     1     -14.099   5.195  22.562  0.00  0.00    +0.021 A 
ATOM     26  C   UNL     1     -15.109   5.426  21.642  0.00  0.00    +0.114 A 
BRANCH  23   3
ATOM      3  O   UNL     1     -17.923   3.787  23.016  0.00  0.00    -0.474 OA
BRANCH   3  27
ATOM     27  C   UNL     1     -18.468   3.097  21.898  0.00  0.00    +0.258 C 
BRANCH  27  28
ATOM     28  C   UNL     1     -18.223   1.610  22.069  0.00  0.00    +0.200 C 
BRANCH  28   5
ATOM      5  O   UNL     1     -19.429   0.985  22.488  0.00  0.00    -0.380 OA
ATOM     29  C   UNL     1     -19.454   0.791  23.895  0.00  0.00    +0.194 C 
ENDBRANCH  28   5
ENDBRANCH  27  28
ENDBRANCH   3  27
ENDBRANCH  23   3
ENDBRANCH  18  21
BRANCH  15  10
ATOM      6  N   UNL     1     -16.140   3.718  29.250  0.00  0.00    -0.284 NA
ATOM     10  C   UNL     1     -16.827   2.669  28.469  0.00  0.00    +0.146 C 
ATOM     11  C   UNL     1     -18.324   2.889  28.752  0.00  0.00    +0.030 C 
ATOM     12  C   UNL     1     -18.376   4.039  29.747  0.00  0.00    +0.017 C 
ATOM     13  C   UNL     1     -17.005   4.017  30.391  0.00  0.00    +0.085 C 
BRANCH   6  14
ATOM     14  C   UNL     1     -14.796   3.338  29.666  0.00  0.00    +0.159 C 
BRANCH  14  16
ATOM      2  O   UNL     1     -14.047   1.043  29.347  0.00  0.00    -0.461 OA
ATOM     16  C   UNL     1     -14.738   1.908  30.136  0.00  0.00    +0.119 A 
ATOM     17  C   UNL     1     -15.252   1.256  31.233  0.00  0.00    +0.046 A 
ATOM     19  C   UNL     1     -14.120  -0.173  29.948  0.00  0.00    +0.131 A 
ATOM     20  C   UNL     1     -14.851  -0.095  31.111  0.00  0.00    +0.047 A 
BRANCH  19  22
ATOM     22  C   UNL     1     -13.434  -1.278  29.263  0.00  0.00    +0.230 C 
BRANCH  22   4
ATOM      4  O   UNL     1     -12.088  -1.390  29.733  0.00  0.00    -0.387 OA
ATOM     30  H   UNL     1     -12.133  -1.504  30.698  0.00  0.00    +0.210 HD
ENDBRANCH  22   4
ENDBRANCH  19  22
ENDBRANCH  14  16
ENDBRANCH   6  14
ENDBRANCH  15  10
TORSDOF 10
ENDMDL
MODEL 4
REMARK VINA RESULT:      -5.6     13.368     16.478
REMARK  Name = 45783415
REMARK  11 active torsions:
REMARK  status: ('A' for Active; 'I' for Inactive)
REMARK    1  A    between atoms: O_3  and  C_23
REMARK    2  A    between atoms: O_3  and  C_27
REMARK    3  A    between atoms: O_4  and  C_22
REMARK    4  A    between atoms: O_5  and  C_28
REMARK    5  A    between atoms: O_5  and  C_29
REMARK    6  A    between atoms: N_6  and  C_14
REMARK    7  A    between atoms: C_10  and  C_15
REMARK    8  A    between atoms: C_14  and  C_16
REMARK    9  A    between atoms: C_18  and  C_21
REMARK   10  A    between atoms: C_19  and  C_22
REMARK   11  A    between atoms: C_27  and  C_28
REMARK                            x       y       z     vdW  Elec       q    Type
REMARK                         _______ _______ _______ _____ _____    ______ ____
ROOT
ATOM      1  O   UNL     1       9.162   6.698   3.586  0.00  0.00    -0.336 OA
ATOM      7  N   UNL     1      10.529   5.352   4.743  0.00  0.00    -0.190 NA
ATOM      8  N   UNL     1       8.693   6.706   4.905  0.00  0.00    -0.056 NA
ATOM     15  C   UNL     1      10.245   5.876   3.577  0.00  0.00    +0.245 A 
ATOM     18  C   UNL     1       9.550   5.890   5.526  0.00  0.00    +0.207 A 
ENDROOT
BRANCH  18  21
ATOM      9  N   UNL     1       8.946   6.296   9.181  0.00  0.00    -0.221 NA
ATOM     21  C   UNL     1       9.456   5.591   6.925  0.00  0.00    +0.084 A 
ATOM     23  C   UNL     1       9.049   6.535   7.854  0.00  0.00    +0.226 A 
ATOM     24  C   UNL     1       9.780   4.320   7.388  0.00  0.00    +0.018 A 
ATOM     25  C   UNL     1       9.686   4.035   8.746  0.00  0.00    +0.021 A 
ATOM     26  C   UNL     1       9.269   5.049   9.593  0.00  0.00    +0.114 A 
BRANCH  23   3
ATOM      3  O   UNL     1       8.720   7.802   7.446  0.00  0.00    -0.474 OA
BRANCH   3  27
ATOM     27  C   UNL     1       9.598   8.848   7.842  0.00  0.00    +0.258 C 
BRANCH  27  28
ATOM     28  C   UNL     1       9.816   9.782   6.667  0.00  0.00    +0.200 C 
BRANCH  28   5
ATOM      5  O   UNL     1      10.809   9.230   5.812  0.00  0.00    -0.380 OA
ATOM     29  C   UNL     1      10.722   9.766   4.500  0.00  0.00    +0.194 C 
ENDBRANCH  28   5
ENDBRANCH  27  28
ENDBRANCH   3  27
ENDBRANCH  23   3
ENDBRANCH  18  21
BRANCH  15  10
ATOM      6  N   UNL     1      12.402   5.909   2.338  0.00  0.00    -0.284 NA
ATOM     10  C   UNL     1      10.944   5.696   2.246  0.00  0.00    +0.146 C 
ATOM     11  C   UNL     1      10.791   4.272   1.682  0.00  0.00    +0.030 C 
ATOM     12  C   UNL     1      12.213   3.789   1.432  0.00  0.00    +0.017 C 
ATOM     13  C   UNL     1      13.009   5.072   1.303  0.00  0.00    +0.085 C 
BRANCH   6  14
ATOM     14  C   UNL     1      12.789   7.308   2.207  0.00  0.00    +0.159 C 
BRANCH  14  16
ATOM      2  O   UNL     1      13.343   7.066   4.565  0.00  0.00    -0.461 OA
ATOM     16  C   UNL     1      13.491   7.813   3.439  0.00  0.00    +0.119 A 
ATOM     17  C   UNL     1      14.282   8.911   3.689  0.00  0.00    +0.046 A 
ATOM     19  C   UNL     1      14.048   7.693   5.543  0.00  0.00    +0.131 A 
ATOM     20  C   UNL     1      14.644   8.832   5.054  0.00  0.00    +0.047 A 
BRANCH  19  22
ATOM     22  C   UNL     1      14.031   7.054   6.867  0.00  0.00    +0.230 C 
BRANCH  22   4
ATOM      4  O   UNL     1      12.919   6.162   6.971  0.00  0.00    -0.387 OA
ATOM     30  H   UNL     1      12.636   5.954   6.064  0.00  0.00    +0.210 HD
ENDBRANCH  22   4
ENDBRANCH  19  22
ENDBRANCH  14  16
ENDBRANCH   6  14
ENDBRANCH  15  10
TORSDOF 10
ENDMDL
MODEL 5
REMARK VINA RESULT:      -5.6     25.849     28.402
REMARK  Name = 45783415
REMARK  11 active torsions:
REMARK  status: ('A' for Active; 'I' for Inactive)
REMARK    1  A    between atoms: O_3  and  C_23
REMARK    2  A    between atoms: O_3  and  C_27
REMARK    3  A    between atoms: O_4  and  C_22
REMARK    4  A    between atoms: O_5  and  C_28
REMARK    5  A    between atoms: O_5  and  C_29
REMARK    6  A    between atoms: N_6  and  C_14
REMARK    7  A    between atoms: C_10  and  C_15
REMARK    8  A    between atoms: C_14  and  C_16
REMARK    9  A    between atoms: C_18  and  C_21
REMARK   10  A    between atoms: C_19  and  C_22
REMARK   11  A    between atoms: C_27  and  C_28
REMARK                            x       y       z     vdW  Elec       q    Type
REMARK                         _______ _______ _______ _____ _____    ______ ____
ROOT
ATOM      1  O   UNL     1      -5.894 -11.689  13.384  0.00  0.00    -0.336 OA
ATOM      7  N   UNL     1      -5.514  -9.927  14.716  0.00  0.00    -0.190 NA
ATOM      8  N   UNL     1      -6.026 -12.157  14.697  0.00  0.00    -0.056 NA
ATOM     15  C   UNL     1      -5.592 -10.368  13.485  0.00  0.00    +0.245 A 
ATOM     18  C   UNL     1      -5.788 -11.061  15.424  0.00  0.00    +0.207 A 
ENDROOT
BRANCH  18  21
ATOM      9  N   UNL     1      -7.005 -10.663  18.924  0.00  0.00    -0.221 NA
ATOM     21  C   UNL     1      -5.815 -11.064  16.858  0.00  0.00    +0.084 A 
ATOM     23  C   UNL     1      -6.936 -10.675  17.574  0.00  0.00    +0.226 A 
ATOM     24  C   UNL     1      -4.693 -11.466  17.574  0.00  0.00    +0.018 A 
ATOM     25  C   UNL     1      -4.725 -11.467  18.965  0.00  0.00    +0.021 A 
ATOM     26  C   UNL     1      -5.895 -11.060  19.586  0.00  0.00    +0.114 A 
BRANCH  23   3
ATOM      3  O   UNL     1      -8.067 -10.271  16.912  0.00  0.00    -0.474 OA
BRANCH   3  27
ATOM     27  C   UNL     1      -8.474  -8.922  17.110  0.00  0.00    +0.258 C 
BRANCH  27  28
ATOM     28  C   UNL     1      -9.915  -8.905  17.583  0.00  0.00    +0.200 C 
BRANCH  28   5
ATOM      5  O   UNL     1     -10.501  -7.654  17.245  0.00  0.00    -0.380 OA
ATOM     29  C   UNL     1     -10.076  -7.209  15.965  0.00  0.00    +0.194 C 
ENDBRANCH  28   5
ENDBRANCH  27  28
ENDBRANCH   3  27
ENDBRANCH  23   3
ENDBRANCH  18  21
BRANCH  15  10
ATOM      6  N   UNL     1      -4.550 -10.361  11.226  0.00  0.00    -0.284 NA
ATOM     10  C   UNL     1      -5.395  -9.620  12.183  0.00  0.00    +0.146 C 
ATOM     11  C   UNL     1      -6.716  -9.375  11.432  0.00  0.00    +0.030 C 
ATOM     12  C   UNL     1      -6.497  -9.959  10.043  0.00  0.00    +0.017 C 
ATOM     13  C   UNL     1      -4.990  -9.960   9.889  0.00  0.00    +0.085 C 
BRANCH   6  14
ATOM     14  C   UNL     1      -3.123 -10.136  11.423  0.00  0.00    +0.159 C 
BRANCH  14  16
ATOM      2  O   UNL     1      -2.279 -10.205  13.706  0.00  0.00    -0.461 OA
ATOM     16  C   UNL     1      -2.589 -10.921  12.592  0.00  0.00    +0.119 A 
ATOM     17  C   UNL     1      -2.332 -12.258  12.790  0.00  0.00    +0.046 A 
ATOM     19  C   UNL     1      -1.821 -11.096  14.624  0.00  0.00    +0.131 A 
ATOM     20  C   UNL     1      -1.835 -12.371  14.110  0.00  0.00    +0.047 A 
BRANCH  19  22
ATOM     22  C   UNL     1      -1.423 -10.539  15.925  0.00  0.00    +0.230 C 
BRANCH  22   4
ATOM      4  O   UNL     1      -0.009 -10.335  15.962  0.00  0.00    -0.387 OA
ATOM     30  H   UNL     1       0.161  -9.454  15.587  0.00  0.00    +0.210 HD
ENDBRANCH  22   4
ENDBRANCH  19  22
ENDBRANCH  14  16
ENDBRANCH   6  14
ENDBRANCH  15  10
TORSDOF 10
ENDMDL
MODEL 6
REMARK VINA RESULT:      -5.6      3.843      7.269
REMARK  Name = 45783415
REMARK  11 active torsions:
REMARK  status: ('A' for Active; 'I' for Inactive)
REMARK    1  A    between atoms: O_3  and  C_23
REMARK    2  A    between atoms: O_3  and  C_27
REMARK    3  A    between atoms: O_4  and  C_22
REMARK    4  A    between atoms: O_5  and  C_28
REMARK    5  A    between atoms: O_5  and  C_29
REMARK    6  A    between atoms: N_6  and  C_14
REMARK    7  A    between atoms: C_10  and  C_15
REMARK    8  A    between atoms: C_14  and  C_16
REMARK    9  A    between atoms: C_18  and  C_21
REMARK   10  A    between atoms: C_19  and  C_22
REMARK   11  A    between atoms: C_27  and  C_28
REMARK                            x       y       z     vdW  Elec       q    Type
REMARK                         _______ _______ _______ _____ _____    ______ ____
ROOT
ATOM      1  O   UNL     1      17.218   6.175  19.655  0.00  0.00    -0.336 OA
ATOM      7  N   UNL     1      16.169   7.256  21.313  0.00  0.00    -0.190 NA
ATOM      8  N   UNL     1      15.866   6.225  19.293  0.00  0.00    -0.056 NA
ATOM     15  C   UNL     1      17.309   6.803  20.856  0.00  0.00    +0.245 A 
ATOM     18  C   UNL     1      15.313   6.878  20.320  0.00  0.00    +0.207 A 
ENDROOT
BRANCH  18  21
ATOM      9  N   UNL     1      11.844   7.750  19.271  0.00  0.00    -0.221 NA
ATOM     21  C   UNL     1      13.910   7.167  20.385  0.00  0.00    +0.084 A 
ATOM     23  C   UNL     1      13.168   7.471  19.255  0.00  0.00    +0.226 A 
ATOM     24  C   UNL     1      13.253   7.149  21.610  0.00  0.00    +0.018 A 
ATOM     25  C   UNL     1      11.891   7.430  21.667  0.00  0.00    +0.021 A 
ATOM     26  C   UNL     1      11.240   7.722  20.480  0.00  0.00    +0.114 A 
BRANCH  23   3
ATOM      3  O   UNL     1      13.772   7.501  18.024  0.00  0.00    -0.474 OA
BRANCH   3  27
ATOM     27  C   UNL     1      13.795   8.757  17.356  0.00  0.00    +0.258 C 
BRANCH  27  28
ATOM     28  C   UNL     1      14.011   8.523  15.873  0.00  0.00    +0.200 C 
BRANCH  28   5
ATOM      5  O   UNL     1      12.921   9.082  15.151  0.00  0.00    -0.380 OA
ATOM     29  C   UNL     1      11.781   9.256  15.981  0.00  0.00    +0.194 C 
ENDBRANCH  28   5
ENDBRANCH  27  28
ENDBRANCH   3  27
ENDBRANCH  23   3
ENDBRANCH  18  21
BRANCH  15  10
ATOM      6  N   UNL     1      19.759   6.530  20.516  0.00  0.00    -0.284 NA
ATOM     10  C   UNL     1      18.690   6.883  21.472  0.00  0.00    +0.146 C 
ATOM     11  C   UNL     1      19.047   8.301  21.952  0.00  0.00    +0.030 C 
ATOM     12  C   UNL     1      20.360   8.636  21.259  0.00  0.00    +0.017 C 
ATOM     13  C   UNL     1      20.947   7.279  20.928  0.00  0.00    +0.085 C 
BRANCH   6  14
ATOM     14  C   UNL     1      20.014   5.097  20.442  0.00  0.00    +0.159 C 
BRANCH  14  16
ATOM      2  O   UNL     1      22.290   4.240  20.318  0.00  0.00    -0.461 OA
ATOM     16  C   UNL     1      21.305   4.721  21.122  0.00  0.00    +0.119 A 
ATOM     17  C   UNL     1      21.724   4.757  22.432  0.00  0.00    +0.046 A 
ATOM     19  C   UNL     1      23.349   3.968  21.124  0.00  0.00    +0.131 A 
ATOM     20  C   UNL     1      23.052   4.269  22.433  0.00  0.00    +0.047 A 
BRANCH  19  22
ATOM     22  C   UNL     1      24.547   3.430  20.462  0.00  0.00    +0.230 C 
BRANCH  22   4
ATOM      4  O   UNL     1      24.452   3.611  19.047  0.00  0.00    -0.387 OA
ATOM     30  H   UNL     1      25.030   4.359  18.817  0.00  0.00    +0.210 HD
ENDBRANCH  22   4
ENDBRANCH  19  22
ENDBRANCH  14  16
ENDBRANCH   6  14
ENDBRANCH  15  10
TORSDOF 10
ENDMDL
MODEL 7
REMARK VINA RESULT:      -5.6     26.470     29.040
REMARK  Name = 45783415
REMARK  11 active torsions:
REMARK  status: ('A' for Active; 'I' for Inactive)
REMARK    1  A    between atoms: O_3  and  C_23
REMARK    2  A    between atoms: O_3  and  C_27
REMARK    3  A    between atoms: O_4  and  C_22
REMARK    4  A    between atoms: O_5  and  C_28
REMARK    5  A    between atoms: O_5  and  C_29
REMARK    6  A    between atoms: N_6  and  C_14
REMARK    7  A    between atoms: C_10  and  C_15
REMARK    8  A    between atoms: C_14  and  C_16
REMARK    9  A    between atoms: C_18  and  C_21
REMARK   10  A    between atoms: C_19  and  C_22
REMARK   11  A    between atoms: C_27  and  C_28
REMARK                            x       y       z     vdW  Elec       q    Type
REMARK                         _______ _______ _______ _____ _____    ______ ____
ROOT
ATOM      1  O   UNL     1      -6.680 -11.855  14.727  0.00  0.00    -0.336 OA
ATOM      7  N   UNL     1      -5.313 -10.083  14.627  0.00  0.00    -0.190 NA
ATOM      8  N   UNL     1      -6.435 -11.628  13.366  0.00  0.00    -0.056 NA
ATOM     15  C   UNL     1      -5.982 -10.902  15.398  0.00  0.00    +0.245 A 
ATOM     18  C   UNL     1      -5.621 -10.568  13.389  0.00  0.00    +0.207 A 
ENDROOT
BRANCH  18  21
ATOM      9  N   UNL     1      -3.382  -9.851  10.497  0.00  0.00    -0.221 NA
ATOM     21  C   UNL     1      -5.099  -9.969  12.195  0.00  0.00    +0.084 A 
ATOM     23  C   UNL     1      -3.910 -10.387  11.621  0.00  0.00    +0.226 A 
ATOM     24  C   UNL     1      -5.793  -8.934  11.576  0.00  0.00    +0.018 A 
ATOM     25  C   UNL     1      -5.282  -8.358  10.417  0.00  0.00    +0.021 A 
ATOM     26  C   UNL     1      -4.084  -8.848   9.924  0.00  0.00    +0.114 A 
BRANCH  23   3
ATOM      3  O   UNL     1      -3.190 -11.403  12.195  0.00  0.00    -0.474 OA
BRANCH   3  27
ATOM     27  C   UNL     1      -1.836 -11.119  12.527  0.00  0.00    +0.258 C 
BRANCH  27  28
ATOM     28  C   UNL     1      -1.796 -10.395  13.858  0.00  0.00    +0.200 C 
BRANCH  28   5
ATOM      5  O   UNL     1      -1.802 -11.353  14.909  0.00  0.00    -0.380 OA
ATOM     29  C   UNL     1      -2.142 -10.758  16.153  0.00  0.00    +0.194 C 
ENDBRANCH  28   5
ENDBRANCH  27  28
ENDBRANCH   3  27
ENDBRANCH  23   3
ENDBRANCH  18  21
BRANCH  15  10
ATOM      6  N   UNL     1      -7.460 -10.696  17.390  0.00  0.00    -0.284 NA
ATOM     10  C   UNL     1      -6.083 -10.931  16.909  0.00  0.00    +0.146 C 
ATOM     11  C   UNL     1      -5.688 -12.294  17.505  0.00  0.00    +0.030 C 
ATOM     12  C   UNL     1      -6.879 -12.717  18.353  0.00  0.00    +0.017 C 
ATOM     13  C   UNL     1      -7.582 -11.410  18.661  0.00  0.00    +0.085 C 
BRANCH   6  14
ATOM     14  C   UNL     1      -7.789  -9.282  17.523  0.00  0.00    +0.159 C 
BRANCH  14  16
ATOM      2  O   UNL     1      -9.551  -7.730  16.879  0.00  0.00    -0.461 OA
ATOM     16  C   UNL     1      -8.875  -8.867  16.565  0.00  0.00    +0.119 A 
ATOM     17  C   UNL     1      -9.355  -9.408  15.395  0.00  0.00    +0.046 A 
ATOM     19  C   UNL     1     -10.471  -7.543  15.897  0.00  0.00    +0.131 A 
ATOM     20  C   UNL     1     -10.391  -8.548  14.960  0.00  0.00    +0.047 A 
BRANCH  19  22
ATOM     22  C   UNL     1     -11.328  -6.356  16.028  0.00  0.00    +0.230 C 
BRANCH  22   4
ATOM      4  O   UNL     1     -11.074  -5.443  14.958  0.00  0.00    -0.387 OA
ATOM     30  H   UNL     1     -10.189  -5.069  15.109  0.00  0.00    +0.210 HD
ENDBRANCH  22   4
ENDBRANCH  19  22
ENDBRANCH  14  16
ENDBRANCH   6  14
ENDBRANCH  15  10
TORSDOF 10
ENDMDL
MODEL 8
REMARK VINA RESULT:      -5.6     26.093     28.387
REMARK  Name = 45783415
REMARK  11 active torsions:
REMARK  status: ('A' for Active; 'I' for Inactive)
REMARK    1  A    between atoms: O_3  and  C_23
REMARK    2  A    between atoms: O_3  and  C_27
REMARK    3  A    between atoms: O_4  and  C_22
REMARK    4  A    between atoms: O_5  and  C_28
REMARK    5  A    between atoms: O_5  and  C_29
REMARK    6  A    between atoms: N_6  and  C_14
REMARK    7  A    between atoms: C_10  and  C_15
REMARK    8  A    between atoms: C_14  and  C_16
REMARK    9  A    between atoms: C_18  and  C_21
REMARK   10  A    between atoms: C_19  and  C_22
REMARK   11  A    between atoms: C_27  and  C_28
REMARK                            x       y       z     vdW  Elec       q    Type
REMARK                         _______ _______ _______ _____ _____    ______ ____
ROOT
ATOM      1  O   UNL     1      -5.588 -12.326  14.690  0.00  0.00    -0.336 OA
ATOM      7  N   UNL     1      -5.442 -10.580  16.086  0.00  0.00    -0.190 NA
ATOM      8  N   UNL     1      -6.893 -12.066  15.126  0.00  0.00    -0.056 NA
ATOM     15  C   UNL     1      -4.797 -11.407  15.302  0.00  0.00    +0.245 A 
ATOM     18  C   UNL     1      -6.725 -11.024  15.945  0.00  0.00    +0.207 A 
ENDROOT
BRANCH  18  21
ATOM      9  N   UNL     1      -9.392 -10.399  18.473  0.00  0.00    -0.221 NA
ATOM     21  C   UNL     1      -7.816 -10.403  16.639  0.00  0.00    +0.084 A 
ATOM     23  C   UNL     1      -8.364 -10.950  17.788  0.00  0.00    +0.226 A 
ATOM     24  C   UNL     1      -8.356  -9.213  16.163  0.00  0.00    +0.018 A 
ATOM     25  C   UNL     1      -9.413  -8.615  16.840  0.00  0.00    +0.021 A 
ATOM     26  C   UNL     1      -9.891  -9.243  17.980  0.00  0.00    +0.114 A 
BRANCH  23   3
ATOM      3  O   UNL     1      -7.865 -12.122  18.296  0.00  0.00    -0.474 OA
BRANCH   3  27
ATOM     27  C   UNL     1      -7.466 -12.106  19.661  0.00  0.00    +0.258 C 
BRANCH  27  28
ATOM     28  C   UNL     1      -6.064 -11.537  19.759  0.00  0.00    +0.200 C 
BRANCH  28   5
ATOM      5  O   UNL     1      -5.185 -12.328  18.968  0.00  0.00    -0.380 OA
ATOM     29  C   UNL     1      -3.828 -12.125  19.338  0.00  0.00    +0.194 C 
ENDBRANCH  28   5
ENDBRANCH  27  28
ENDBRANCH   3  27
ENDBRANCH  23   3
ENDBRANCH  18  21
BRANCH  15  10
ATOM      6  N   UNL     1      -2.938 -10.629  13.841  0.00  0.00    -0.284 NA
ATOM     10  C   UNL     1      -3.317 -11.477  14.990  0.00  0.00    +0.146 C 
ATOM     11  C   UNL     1      -2.440 -10.976  16.151  0.00  0.00    +0.030 C 
ATOM     12  C   UNL     1      -1.560  -9.891  15.547  0.00  0.00    +0.017 C 
ATOM     13  C   UNL     1      -1.552 -10.221  14.067  0.00  0.00    +0.085 C 
BRANCH   6  14
ATOM     14  C   UNL     1      -3.111 -11.293  12.555  0.00  0.00    +0.159 C 
BRANCH  14  16
ATOM      2  O   UNL     1      -4.832 -10.057  11.356  0.00  0.00    -0.461 OA
ATOM     16  C   UNL     1      -3.503 -10.323  11.472  0.00  0.00    +0.119 A 
ATOM     17  C   UNL     1      -2.785  -9.618  10.534  0.00  0.00    +0.046 A 
ATOM     19  C   UNL     1      -4.962  -9.171  10.334  0.00  0.00    +0.131 A 
ATOM     20  C   UNL     1      -3.732  -8.869   9.796  0.00  0.00    +0.047 A 
BRANCH  19  22
ATOM     22  C   UNL     1      -6.331  -8.734  10.024  0.00  0.00    +0.230 C 
BRANCH  22   4
ATOM      4  O   UNL     1      -6.318  -7.802   8.940  0.00  0.00    -0.387 OA
ATOM     30  H   UNL     1      -5.386  -7.608   8.743  0.00  0.00    +0.210 HD
ENDBRANCH  22   4
ENDBRANCH  19  22
ENDBRANCH  14  16
ENDBRANCH   6  14
ENDBRANCH  15  10
TORSDOF 10
ENDMDL
MODEL 9
REMARK VINA RESULT:      -5.5     14.502     18.993
REMARK  Name = 45783415
REMARK  11 active torsions:
REMARK  status: ('A' for Active; 'I' for Inactive)
REMARK    1  A    between atoms: O_3  and  C_23
REMARK    2  A    between atoms: O_3  and  C_27
REMARK    3  A    between atoms: O_4  and  C_22
REMARK    4  A    between atoms: O_5  and  C_28
REMARK    5  A    between atoms: O_5  and  C_29
REMARK    6  A    between atoms: N_6  and  C_14
REMARK    7  A    between atoms: C_10  and  C_15
REMARK    8  A    between atoms: C_14  and  C_16
REMARK    9  A    between atoms: C_18  and  C_21
REMARK   10  A    between atoms: C_19  and  C_22
REMARK   11  A    between atoms: C_27  and  C_28
REMARK                            x       y       z     vdW  Elec       q    Type
REMARK                         _______ _______ _______ _____ _____    ______ ____
ROOT
ATOM      1  O   UNL     1      11.550   6.721   3.746  0.00  0.00    -0.336 OA
ATOM      7  N   UNL     1      10.828   4.654   3.273  0.00  0.00    -0.190 NA
ATOM      8  N   UNL     1      11.940   6.465   2.426  0.00  0.00    -0.056 NA
ATOM     15  C   UNL     1      10.903   5.604   4.171  0.00  0.00    +0.245 A 
ATOM     18  C   UNL     1      11.478   5.228   2.220  0.00  0.00    +0.207 A 
ENDROOT
BRANCH  18  21
ATOM      9  N   UNL     1      12.892   2.981  -0.396  0.00  0.00    -0.221 NA
ATOM     21  C   UNL     1      11.649   4.537   0.974  0.00  0.00    +0.084 A 
ATOM     23  C   UNL     1      12.694   3.653   0.761  0.00  0.00    +0.226 A 
ATOM     24  C   UNL     1      10.750   4.747  -0.066  0.00  0.00    +0.018 A 
ATOM     25  C   UNL     1      10.921   4.074  -1.272  0.00  0.00    +0.021 A 
ATOM     26  C   UNL     1      11.999   3.210  -1.384  0.00  0.00    +0.114 A 
BRANCH  23   3
ATOM      3  O   UNL     1      13.606   3.414   1.757  0.00  0.00    -0.474 OA
BRANCH   3  27
ATOM     27  C   UNL     1      14.974   3.626   1.433  0.00  0.00    +0.258 C 
BRANCH  27  28
ATOM     28  C   UNL     1      15.199   5.104   1.180  0.00  0.00    +0.200 C 
BRANCH  28   5
ATOM      5  O   UNL     1      15.665   5.282  -0.151  0.00  0.00    -0.380 OA
ATOM     29  C   UNL     1      16.366   4.137  -0.615  0.00  0.00    +0.194 C 
ENDBRANCH  28   5
ENDBRANCH  27  28
ENDBRANCH   3  27
ENDBRANCH  23   3
ENDBRANCH  18  21
BRANCH  15  10
ATOM      6  N   UNL     1      10.891   6.774   6.367  0.00  0.00    -0.284 NA
ATOM     10  C   UNL     1      10.376   5.628   5.590  0.00  0.00    +0.146 C 
ATOM     11  C   UNL     1       8.845   5.769   5.654  0.00  0.00    +0.030 C 
ATOM     12  C   UNL     1       8.594   6.984   6.536  0.00  0.00    +0.017 C 
ATOM     13  C   UNL     1       9.863   7.099   7.356  0.00  0.00    +0.085 C 
BRANCH   6  14
ATOM     14  C   UNL     1      12.184   6.514   6.987  0.00  0.00    +0.159 C 
BRANCH  14  16
ATOM      2  O   UNL     1      14.247   7.185   5.880  0.00  0.00    -0.461 OA
ATOM     16  C   UNL     1      13.194   7.578   6.646  0.00  0.00    +0.119 A 
ATOM     17  C   UNL     1      13.290   8.916   6.951  0.00  0.00    +0.046 A 
ATOM     19  C   UNL     1      15.023   8.285   5.694  0.00  0.00    +0.131 A 
ATOM     20  C   UNL     1      14.478   9.375   6.332  0.00  0.00    +0.047 A 
BRANCH  19  22
ATOM     22  C   UNL     1      16.234   8.095   4.884  0.00  0.00    +0.230 C 
BRANCH  22   4
ATOM      4  O   UNL     1      16.102   6.931   4.064  0.00  0.00    -0.387 OA
ATOM     30  H   UNL     1      16.186   6.160   4.651  0.00  0.00    +0.210 HD
ENDBRANCH  22   4
ENDBRANCH  19  22
ENDBRANCH  14  16
ENDBRANCH   6  14
ENDBRANCH  15  10
TORSDOF 10
ENDMDL
MODEL 10
REMARK VINA RESULT:      -5.5     26.010     28.559
REMARK  Name = 45783415
REMARK  11 active torsions:
REMARK  status: ('A' for Active; 'I' for Inactive)
REMARK    1  A    between atoms: O_3  and  C_23
REMARK    2  A    between atoms: O_3  and  C_27
REMARK    3  A    between atoms: O_4  and  C_22
REMARK    4  A    between atoms: O_5  and  C_28
REMARK    5  A    between atoms: O_5  and  C_29
REMARK    6  A    between atoms: N_6  and  C_14
REMARK    7  A    between atoms: C_10  and  C_15
REMARK    8  A    between atoms: C_14  and  C_16
REMARK    9  A    between atoms: C_18  and  C_21
REMARK   10  A    between atoms: C_19  and  C_22
REMARK   11  A    between atoms: C_27  and  C_28
REMARK                            x       y       z     vdW  Elec       q    Type
REMARK                         _______ _______ _______ _____ _____    ______ ____
ROOT
ATOM      1  O   UNL     1      -4.871  -9.853  16.345  0.00  0.00    -0.336 OA
ATOM      7  N   UNL     1      -5.185 -12.020  16.819  0.00  0.00    -0.190 NA
ATOM      8  N   UNL     1      -6.079  -9.927  17.051  0.00  0.00    -0.056 NA
ATOM     15  C   UNL     1      -4.412 -11.128  16.252  0.00  0.00    +0.245 A 
ATOM     18  C   UNL     1      -6.194 -11.235  17.295  0.00  0.00    +0.207 A 
ENDROOT
BRANCH  18  21
ATOM      9  N   UNL     1      -9.656 -12.350  18.112  0.00  0.00    -0.221 NA
ATOM     21  C   UNL     1      -7.306 -11.792  18.012  0.00  0.00    +0.084 A 
ATOM     23  C   UNL     1      -8.581 -11.835  17.473  0.00  0.00    +0.226 A 
ATOM     24  C   UNL     1      -7.121 -12.310  19.289  0.00  0.00    +0.018 A 
ATOM     25  C   UNL     1      -8.202 -12.849  19.978  0.00  0.00    +0.021 A 
ATOM     26  C   UNL     1      -9.438 -12.844  19.351  0.00  0.00    +0.114 A 
BRANCH  23   3
ATOM      3  O   UNL     1      -8.814 -11.335  16.217  0.00  0.00    -0.474 OA
BRANCH   3  27
ATOM     27  C   UNL     1     -10.012 -10.591  16.037  0.00  0.00    +0.258 C 
BRANCH  27  28
ATOM     28  C   UNL     1      -9.681  -9.276  15.359  0.00  0.00    +0.200 C 
BRANCH  28   5
ATOM      5  O   UNL     1      -9.032  -8.422  16.293  0.00  0.00    -0.380 OA
ATOM     29  C   UNL     1      -9.902  -8.057  17.356  0.00  0.00    +0.194 C 
ENDBRANCH  28   5
ENDBRANCH  27  28
ENDBRANCH   3  27
ENDBRANCH  23   3
ENDBRANCH  18  21
BRANCH  15  10
ATOM      6  N   UNL     1      -3.029 -10.541  14.268  0.00  0.00    -0.284 NA
ATOM     10  C   UNL     1      -3.100 -11.321  15.521  0.00  0.00    +0.146 C 
ATOM     11  C   UNL     1      -1.886 -10.852  16.343  0.00  0.00    +0.030 C 
ATOM     12  C   UNL     1      -1.161  -9.856  15.449  0.00  0.00    +0.017 C 
ATOM     13  C   UNL     1      -1.615 -10.232  14.053  0.00  0.00    +0.085 C 
BRANCH   6  14
ATOM     14  C   UNL     1      -3.619 -11.229  13.128  0.00  0.00    +0.159 C 
BRANCH  14  16
ATOM      2  O   UNL     1      -4.795  -9.752  11.590  0.00  0.00    -0.461 OA
ATOM     16  C   UNL     1      -3.621 -10.368  11.892  0.00  0.00    +0.119 A 
ATOM     17  C   UNL     1      -2.657 -10.053  10.963  0.00  0.00    +0.046 A 
ATOM     19  C   UNL     1      -4.577  -9.037  10.456  0.00  0.00    +0.131 A 
ATOM     20  C   UNL     1      -3.277  -9.188  10.030  0.00  0.00    +0.047 A 
BRANCH  19  22
ATOM     22  C   UNL     1      -5.724  -8.278   9.937  0.00  0.00    +0.230 C 
BRANCH  22   4
ATOM      4  O   UNL     1      -5.824  -8.442   8.520  0.00  0.00    -0.387 OA
ATOM     30  H   UNL     1      -4.932  -8.654   8.195  0.00  0.00    +0.210 HD
ENDBRANCH  22   4
ENDBRANCH  19  22
ENDBRANCH  14  16
ENDBRANCH   6  14
ENDBRANCH  15  10
TORSDOF 10
ENDMDL
