MODEL 1
REMARK VINA RESULT:      -7.4      0.000      0.000
REMARK  Name = 45783939
REMARK  10 active torsions:
REMARK  status: ('A' for Active; 'I' for Inactive)
REMARK    1  A    between atoms: N_4  and  C_15
REMARK    2  A    between atoms: C_8  and  C_12
REMARK    3  A    between atoms: C_9  and  C_15
REMARK    4  A    between atoms: C_11  and  C_16
REMARK    5  A    between atoms: C_12  and  C_17
REMARK    6  A    between atoms: C_12  and  C_18
REMARK    7  A    between atoms: C_13  and  C_19
REMARK    8  A    between atoms: C_16  and  C_20
REMARK    9  A    between atoms: C_21  and  C_23
REMARK   10  A    between atoms: C_22  and  C_24
REMARK                            x       y       z     vdW  Elec       q    Type
REMARK                         _______ _______ _______ _____ _____    ______ ____
ROOT
ATOM      8  C   UNL     1      -3.347 -12.036  12.588  0.00  0.00    +0.000 C 
ATOM      9  C   UNL     1      -2.159 -11.047  12.481  0.00  0.00    +0.032 C 
ATOM     10  C   UNL     1      -3.910 -12.349  11.194  0.00  0.00    +0.012 C 
ATOM     11  C   UNL     1      -4.394 -11.082  10.463  0.00  0.00    +0.024 C 
ATOM     13  C   UNL     1      -3.377  -9.961  10.546  0.00  0.00    -0.073 C 
ATOM     14  C   UNL     1      -2.378  -9.970  11.446  0.00  0.00    -0.022 C 
ATOM     19  C   UNL     1      -3.508  -8.852   9.540  0.00  0.00    +0.039 C 
ENDROOT
BRANCH   8  12
ATOM     12  C   UNL     1      -2.943 -13.338  13.288  0.00  0.00    -0.013 C 
ATOM     17  C   UNL     1      -4.039 -13.787  14.249  0.00  0.00    +0.007 C 
ATOM     18  C   UNL     1      -2.645 -14.425  12.260  0.00  0.00    +0.007 C 
ENDBRANCH   8  12
BRANCH   9  15
ATOM     15  C   UNL     1      -1.856 -10.399  13.837  0.00  0.00    +0.112 C 
BRANCH  15   4
ATOM      3  O   UNL     1      -2.134 -10.942  16.642  0.00  0.00    -0.270 OA
ATOM      4  N   UNL     1      -3.047 -10.272  14.617  0.00  0.00    -0.311 N 
ATOM     21  C   UNL     1      -3.095 -10.559  15.981  0.00  0.00    +0.244 C 
ATOM     34  H   UNL     1      -3.884  -9.964  14.135  0.00  0.00    +0.149 HD
BRANCH  21  23
ATOM      7  N   UNL     1      -6.903 -10.114  17.886  0.00  0.00    -0.263 NA
ATOM     23  C   UNL     1      -4.415 -10.403  16.643  0.00  0.00    +0.040 A 
ATOM     25  C   UNL     1      -4.618 -10.904  17.923  0.00  0.00    +0.033 A 
ATOM     26  C   UNL     1      -5.455  -9.757  15.982  0.00  0.00    +0.033 A 
ATOM     29  C   UNL     1      -5.868 -10.736  18.495  0.00  0.00    +0.111 A 
ATOM     30  C   UNL     1      -6.668  -9.640  16.642  0.00  0.00    +0.111 A 
ENDBRANCH  21  23
ENDBRANCH  15   4
ENDBRANCH   9  15
BRANCH  11  16
ATOM     16  C   UNL     1      -5.758 -10.626  10.992  0.00  0.00    +0.105 C 
BRANCH  16  20
ATOM      2  O   UNL     1      -7.463  -9.051  10.237  0.00  0.00    -0.420 OA
ATOM      5  N   UNL     1      -6.666 -10.382   8.625  0.00  0.00    -0.112 NA
ATOM      6  N   UNL     1      -7.614  -9.549   8.060  0.00  0.00    -0.107 NA
ATOM     20  C   UNL     1      -6.611 -10.056   9.895  0.00  0.00    +0.218 A 
ATOM     22  C   UNL     1      -8.053  -8.790   9.038  0.00  0.00    +0.251 A 
BRANCH  22  24
ATOM      1  F   UNL     1      -7.548  -6.270   7.919  0.00  0.00    -0.205 F 
ATOM     24  C   UNL     1      -9.038  -7.748   9.037  0.00  0.00    +0.074 A 
ATOM     27  C   UNL     1      -8.748  -6.508   8.471  0.00  0.00    +0.136 A 
ATOM     28  C   UNL     1     -10.290  -7.979   9.607  0.00  0.00    +0.016 A 
ATOM     31  C   UNL     1      -9.708  -5.497   8.474  0.00  0.00    +0.039 A 
ATOM     32  C   UNL     1     -11.251  -6.968   9.611  0.00  0.00    +0.001 A 
ATOM     33  C   UNL     1     -10.961  -5.727   9.043  0.00  0.00    +0.003 A 
ENDBRANCH  22  24
ENDBRANCH  16  20
ENDBRANCH  11  16
TORSDOF 7
ENDMDL
MODEL 2
REMARK VINA RESULT:      -7.3      3.788      6.933
REMARK  Name = 45783939
REMARK  10 active torsions:
REMARK  status: ('A' for Active; 'I' for Inactive)
REMARK    1  A    between atoms: N_4  and  C_15
REMARK    2  A    between atoms: C_8  and  C_12
REMARK    3  A    between atoms: C_9  and  C_15
REMARK    4  A    between atoms: C_11  and  C_16
REMARK    5  A    between atoms: C_12  and  C_17
REMARK    6  A    between atoms: C_12  and  C_18
REMARK    7  A    between atoms: C_13  and  C_19
REMARK    8  A    between atoms: C_16  and  C_20
REMARK    9  A    between atoms: C_21  and  C_23
REMARK   10  A    between atoms: C_22  and  C_24
REMARK                            x       y       z     vdW  Elec       q    Type
REMARK                         _______ _______ _______ _____ _____    ______ ____
ROOT
ATOM      8  C   UNL     1      -6.367 -10.885  16.203  0.00  0.00    +0.000 C 
ATOM      9  C   UNL     1      -6.865 -10.890  17.669  0.00  0.00    +0.032 C 
ATOM     10  C   UNL     1      -5.399 -12.053  15.961  0.00  0.00    +0.012 C 
ATOM     11  C   UNL     1      -4.174 -11.997  16.894  0.00  0.00    +0.024 C 
ATOM     13  C   UNL     1      -4.572 -11.734  18.332  0.00  0.00    -0.073 C 
ATOM     14  C   UNL     1      -5.783 -11.252  18.660  0.00  0.00    -0.022 C 
ATOM     19  C   UNL     1      -3.561 -12.082  19.389  0.00  0.00    +0.039 C 
ENDROOT
BRANCH   8  12
ATOM     12  C   UNL     1      -7.529 -10.960  15.207  0.00  0.00    -0.013 C 
ATOM     17  C   UNL     1      -7.312  -9.976  14.061  0.00  0.00    +0.007 C 
ATOM     18  C   UNL     1      -7.685 -12.382  14.677  0.00  0.00    +0.007 C 
ENDBRANCH   8  12
BRANCH   9  15
ATOM     15  C   UNL     1      -7.475  -9.537  18.051  0.00  0.00    +0.112 C 
BRANCH  15   4
ATOM      3  O   UNL     1      -9.424  -8.040  16.568  0.00  0.00    -0.270 OA
ATOM      4  N   UNL     1      -8.896  -9.634  18.168  0.00  0.00    -0.311 N 
ATOM     21  C   UNL     1      -9.775  -8.866  17.406  0.00  0.00    +0.244 C 
ATOM     34  H   UNL     1      -9.258 -10.294  18.847  0.00  0.00    +0.149 HD
BRANCH  21  23
ATOM      7  N   UNL     1     -13.950  -9.446  18.153  0.00  0.00    -0.263 NA
ATOM     23  C   UNL     1     -11.223  -9.065  17.667  0.00  0.00    +0.040 A 
ATOM     25  C   UNL     1     -11.644  -9.679  18.841  0.00  0.00    +0.033 A 
ATOM     26  C   UNL     1     -12.165  -8.641  16.734  0.00  0.00    +0.033 A 
ATOM     29  C   UNL     1     -13.005  -9.845  19.035  0.00  0.00    +0.111 A 
ATOM     30  C   UNL     1     -13.504  -8.854  17.023  0.00  0.00    +0.111 A 
ENDBRANCH  21  23
ENDBRANCH  15   4
ENDBRANCH   9  15
BRANCH  11  16
ATOM     16  C   UNL     1      -3.157 -10.958  16.407  0.00  0.00    +0.105 C 
BRANCH  16  20
ATOM      2  O   UNL     1      -3.580 -10.492  14.049  0.00  0.00    -0.420 OA
ATOM      5  N   UNL     1      -1.878 -11.897  14.414  0.00  0.00    -0.112 NA
ATOM      6  N   UNL     1      -2.002 -11.724  13.048  0.00  0.00    -0.107 NA
ATOM     20  C   UNL     1      -2.817 -11.160  14.958  0.00  0.00    +0.218 A 
ATOM     22  C   UNL     1      -3.008 -10.897  12.881  0.00  0.00    +0.251 A 
BRANCH  22  24
ATOM      1  F   UNL     1      -1.531  -9.321  11.095  0.00  0.00    -0.205 F 
ATOM     24  C   UNL     1      -3.586 -10.365  11.682  0.00  0.00    +0.074 A 
ATOM     27  C   UNL     1      -2.817  -9.584  10.819  0.00  0.00    +0.136 A 
ATOM     28  C   UNL     1      -4.922 -10.629  11.380  0.00  0.00    +0.016 A 
ATOM     31  C   UNL     1      -3.384  -9.067   9.655  0.00  0.00    +0.039 A 
ATOM     32  C   UNL     1      -5.489 -10.111  10.216  0.00  0.00    +0.001 A 
ATOM     33  C   UNL     1      -4.720  -9.330   9.352  0.00  0.00    +0.003 A 
ENDBRANCH  22  24
ENDBRANCH  16  20
ENDBRANCH  11  16
TORSDOF 7
ENDMDL
MODEL 3
REMARK VINA RESULT:      -7.1      1.705      2.167
REMARK  Name = 45783939
REMARK  10 active torsions:
REMARK  status: ('A' for Active; 'I' for Inactive)
REMARK    1  A    between atoms: N_4  and  C_15
REMARK    2  A    between atoms: C_8  and  C_12
REMARK    3  A    between atoms: C_9  and  C_15
REMARK    4  A    between atoms: C_11  and  C_16
REMARK    5  A    between atoms: C_12  and  C_17
REMARK    6  A    between atoms: C_12  and  C_18
REMARK    7  A    between atoms: C_13  and  C_19
REMARK    8  A    between atoms: C_16  and  C_20
REMARK    9  A    between atoms: C_21  and  C_23
REMARK   10  A    between atoms: C_22  and  C_24
REMARK                            x       y       z     vdW  Elec       q    Type
REMARK                         _______ _______ _______ _____ _____    ______ ____
ROOT
ATOM      8  C   UNL     1      -3.040 -12.284  12.469  0.00  0.00    +0.000 C 
ATOM      9  C   UNL     1      -1.983 -11.153  12.433  0.00  0.00    +0.032 C 
ATOM     10  C   UNL     1      -3.555 -12.581  11.052  0.00  0.00    +0.012 C 
ATOM     11  C   UNL     1      -4.188 -11.341  10.391  0.00  0.00    +0.024 C 
ATOM     13  C   UNL     1      -3.318 -10.112  10.551  0.00  0.00    -0.073 C 
ATOM     14  C   UNL     1      -2.328 -10.051  11.459  0.00  0.00    -0.022 C 
ATOM     19  C   UNL     1      -3.581  -8.969   9.609  0.00  0.00    +0.039 C 
ENDROOT
BRANCH   8  12
ATOM     12  C   UNL     1      -2.481 -13.565  13.095  0.00  0.00    -0.013 C 
ATOM     17  C   UNL     1      -3.302 -13.961  14.319  0.00  0.00    +0.007 C 
ATOM     18  C   UNL     1      -2.459 -14.695  12.071  0.00  0.00    +0.007 C 
ENDBRANCH   8  12
BRANCH   9  15
ATOM     15  C   UNL     1      -1.767 -10.553  13.827  0.00  0.00    +0.112 C 
BRANCH  15   4
ATOM      3  O   UNL     1      -2.229 -10.902  16.639  0.00  0.00    -0.270 OA
ATOM      4  N   UNL     1      -3.012 -10.401  14.513  0.00  0.00    -0.311 N 
ATOM     21  C   UNL     1      -3.149 -10.591  15.887  0.00  0.00    +0.244 C 
ATOM     34  H   UNL     1      -3.819 -10.149  13.953  0.00  0.00    +0.149 HD
BRANCH  21  23
ATOM      7  N   UNL     1      -7.085 -10.097  17.496  0.00  0.00    -0.263 NA
ATOM     23  C   UNL     1      -4.515 -10.421  16.445  0.00  0.00    +0.040 A 
ATOM     25  C   UNL     1      -5.526  -9.874  15.663  0.00  0.00    +0.033 A 
ATOM     26  C   UNL     1      -4.788 -10.807  17.753  0.00  0.00    +0.033 A 
ATOM     29  C   UNL     1      -6.781  -9.734  16.230  0.00  0.00    +0.111 A 
ATOM     30  C   UNL     1      -6.078 -10.625  18.226  0.00  0.00    +0.111 A 
ENDBRANCH  21  23
ENDBRANCH  15   4
ENDBRANCH   9  15
BRANCH  11  16
ATOM     16  C   UNL     1      -5.601 -11.088  10.931  0.00  0.00    +0.105 C 
BRANCH  16  20
ATOM      2  O   UNL     1      -6.665 -10.031   9.007  0.00  0.00    -0.420 OA
ATOM      5  N   UNL     1      -7.503 -12.038   9.529  0.00  0.00    -0.112 NA
ATOM      6  N   UNL     1      -8.193 -11.561   8.430  0.00  0.00    -0.107 NA
ATOM     20  C   UNL     1      -6.622 -11.114   9.831  0.00  0.00    +0.218 A 
ATOM     22  C   UNL     1      -7.671 -10.387   8.161  0.00  0.00    +0.251 A 
BRANCH  22  24
ATOM      1  F   UNL     1      -5.903  -9.826   6.059  0.00  0.00    -0.205 F 
ATOM     24  C   UNL     1      -7.990  -9.440   7.132  0.00  0.00    +0.074 A 
ATOM     27  C   UNL     1      -7.083  -9.188   6.104  0.00  0.00    +0.136 A 
ATOM     28  C   UNL     1      -9.212  -8.769   7.164  0.00  0.00    +0.016 A 
ATOM     31  C   UNL     1      -7.397  -8.266   5.106  0.00  0.00    +0.039 A 
ATOM     32  C   UNL     1      -9.527  -7.845   6.167  0.00  0.00    +0.001 A 
ATOM     33  C   UNL     1      -8.619  -7.594   5.137  0.00  0.00    +0.003 A 
ENDBRANCH  22  24
ENDBRANCH  16  20
ENDBRANCH  11  16
TORSDOF 7
ENDMDL
MODEL 4
REMARK VINA RESULT:      -7.1     24.931     28.135
REMARK  Name = 45783939
REMARK  10 active torsions:
REMARK  status: ('A' for Active; 'I' for Inactive)
REMARK    1  A    between atoms: N_4  and  C_15
REMARK    2  A    between atoms: C_8  and  C_12
REMARK    3  A    between atoms: C_9  and  C_15
REMARK    4  A    between atoms: C_11  and  C_16
REMARK    5  A    between atoms: C_12  and  C_17
REMARK    6  A    between atoms: C_12  and  C_18
REMARK    7  A    between atoms: C_13  and  C_19
REMARK    8  A    between atoms: C_16  and  C_20
REMARK    9  A    between atoms: C_21  and  C_23
REMARK   10  A    between atoms: C_22  and  C_24
REMARK                            x       y       z     vdW  Elec       q    Type
REMARK                         _______ _______ _______ _____ _____    ______ ____
ROOT
ATOM      8  C   UNL     1      10.759   6.273   6.317  0.00  0.00    +0.000 C 
ATOM      9  C   UNL     1      10.476   6.271   4.794  0.00  0.00    +0.032 C 
ATOM     10  C   UNL     1      11.186   7.674   6.781  0.00  0.00    +0.012 C 
ATOM     11  C   UNL     1      12.447   8.171   6.049  0.00  0.00    +0.024 C 
ATOM     13  C   UNL     1      12.352   7.953   4.552  0.00  0.00    -0.073 C 
ATOM     14  C   UNL     1      11.457   7.110   4.009  0.00  0.00    -0.022 C 
ATOM     19  C   UNL     1      13.281   8.762   3.690  0.00  0.00    +0.039 C 
ENDROOT
BRANCH   8  12
ATOM     12  C   UNL     1       9.542   5.809   7.122  0.00  0.00    -0.013 C 
ATOM     17  C   UNL     1       9.939   4.708   8.101  0.00  0.00    +0.007 C 
ATOM     18  C   UNL     1       8.910   6.985   7.860  0.00  0.00    +0.007 C 
ENDBRANCH   8  12
BRANCH   9  15
ATOM     15  C   UNL     1      10.465   4.844   4.236  0.00  0.00    +0.112 C 
BRANCH  15   4
ATOM      3  O   UNL     1      10.149   3.861   1.557  0.00  0.00    -0.270 OA
ATOM      4  N   UNL     1      11.498   4.670   3.263  0.00  0.00    -0.311 N 
ATOM     21  C   UNL     1      11.256   4.184   1.979  0.00  0.00    +0.244 C 
ATOM     34  H   UNL     1      12.442   4.912   3.544  0.00  0.00    +0.149 HD
BRANCH  21  23
ATOM      7  N   UNL     1      14.670   3.762  -0.570  0.00  0.00    -0.263 NA
ATOM     23  C   UNL     1      12.441   4.036   1.095  0.00  0.00    +0.040 A 
ATOM     25  C   UNL     1      13.718   3.982   1.641  0.00  0.00    +0.033 A 
ATOM     26  C   UNL     1      12.277   3.953  -0.284  0.00  0.00    +0.033 A 
ATOM     29  C   UNL     1      14.790   3.846   0.774  0.00  0.00    +0.111 A 
ATOM     30  C   UNL     1      13.414   3.819  -1.065  0.00  0.00    +0.111 A 
ENDBRANCH  21  23
ENDBRANCH  15   4
ENDBRANCH   9  15
BRANCH  11  16
ATOM     16  C   UNL     1      13.710   7.517   6.620  0.00  0.00    +0.105 C 
BRANCH  16  20
ATOM      2  O   UNL     1      16.093   7.763   6.152  0.00  0.00    -0.420 OA
ATOM      5  N   UNL     1      15.019   9.698   6.480  0.00  0.00    -0.112 NA
ATOM      6  N   UNL     1      16.348   9.985   6.227  0.00  0.00    -0.107 NA
ATOM     20  C   UNL     1      14.917   8.391   6.426  0.00  0.00    +0.218 A 
ATOM     22  C   UNL     1      16.936   8.826   6.042  0.00  0.00    +0.251 A 
BRANCH  22  24
ATOM      1  F   UNL     1      17.757   8.017   3.487  0.00  0.00    -0.205 F 
ATOM     24  C   UNL     1      18.305   8.513   5.748  0.00  0.00    +0.074 A 
ATOM     27  C   UNL     1      18.672   8.113   4.464  0.00  0.00    +0.136 A 
ATOM     28  C   UNL     1      19.268   8.609   6.752  0.00  0.00    +0.016 A 
ATOM     31  C   UNL     1      20.004   7.809   4.182  0.00  0.00    +0.039 A 
ATOM     32  C   UNL     1      20.600   8.304   6.470  0.00  0.00    +0.001 A 
ATOM     33  C   UNL     1      20.969   7.905   5.185  0.00  0.00    +0.003 A 
ENDBRANCH  22  24
ENDBRANCH  16  20
ENDBRANCH  11  16
TORSDOF 7
ENDMDL
MODEL 5
REMARK VINA RESULT:      -6.9     28.477     32.057
REMARK  Name = 45783939
REMARK  10 active torsions:
REMARK  status: ('A' for Active; 'I' for Inactive)
REMARK    1  A    between atoms: N_4  and  C_15
REMARK    2  A    between atoms: C_8  and  C_12
REMARK    3  A    between atoms: C_9  and  C_15
REMARK    4  A    between atoms: C_11  and  C_16
REMARK    5  A    between atoms: C_12  and  C_17
REMARK    6  A    between atoms: C_12  and  C_18
REMARK    7  A    between atoms: C_13  and  C_19
REMARK    8  A    between atoms: C_16  and  C_20
REMARK    9  A    between atoms: C_21  and  C_23
REMARK   10  A    between atoms: C_22  and  C_24
REMARK                            x       y       z     vdW  Elec       q    Type
REMARK                         _______ _______ _______ _____ _____    ______ ____
ROOT
ATOM      8  C   UNL     1      17.772   9.248  21.607  0.00  0.00    +0.000 C 
ATOM      9  C   UNL     1      16.819   8.699  20.517  0.00  0.00    +0.032 C 
ATOM     10  C   UNL     1      19.224   8.855  21.298  0.00  0.00    +0.012 C 
ATOM     11  C   UNL     1      19.408   7.327  21.213  0.00  0.00    +0.024 C 
ATOM     13  C   UNL     1      18.335   6.677  20.364  0.00  0.00    -0.073 C 
ATOM     14  C   UNL     1      17.191   7.310  20.052  0.00  0.00    -0.022 C 
ATOM     19  C   UNL     1      18.628   5.298  19.842  0.00  0.00    +0.039 C 
ENDROOT
BRANCH   8  12
ATOM     12  C   UNL     1      17.665  10.771  21.742  0.00  0.00    -0.013 C 
ATOM     17  C   UNL     1      18.666  11.285  22.772  0.00  0.00    +0.007 C 
ATOM     18  C   UNL     1      17.887  11.442  20.390  0.00  0.00    +0.007 C 
ENDBRANCH   8  12
BRANCH   9  15
ATOM     15  C   UNL     1      15.365   8.703  21.000  0.00  0.00    +0.112 C 
BRANCH  15   4
ATOM      3  O   UNL     1      14.525  10.809  19.239  0.00  0.00    -0.270 OA
ATOM      4  N   UNL     1      14.462   8.585  19.898  0.00  0.00    -0.311 N 
ATOM     21  C   UNL     1      14.106   9.664  19.091  0.00  0.00    +0.244 C 
ATOM     34  H   UNL     1      14.071   7.667  19.718  0.00  0.00    +0.149 HD
BRANCH  21  23
ATOM      7  N   UNL     1      11.312   8.848  15.952  0.00  0.00    -0.263 NA
ATOM     23  C   UNL     1      13.135   9.383  18.002  0.00  0.00    +0.040 A 
ATOM     25  C   UNL     1      11.949   8.715  18.280  0.00  0.00    +0.033 A 
ATOM     26  C   UNL     1      13.412   9.784  16.699  0.00  0.00    +0.033 A 
ATOM     29  C   UNL     1      11.078   8.473  17.229  0.00  0.00    +0.111 A 
ATOM     30  C   UNL     1      12.476   9.495  15.719  0.00  0.00    +0.111 A 
ENDBRANCH  21  23
ENDBRANCH  15   4
ENDBRANCH   9  15
BRANCH  11  16
ATOM     16  C   UNL     1      19.458   6.699  22.610  0.00  0.00    +0.105 C 
BRANCH  16  20
ATOM      2  O   UNL     1      21.329   5.378  21.767  0.00  0.00    -0.420 OA
ATOM      5  N   UNL     1      21.449   5.846  23.952  0.00  0.00    -0.112 NA
ATOM      6  N   UNL     1      22.563   5.101  23.614  0.00  0.00    -0.107 NA
ATOM     20  C   UNL     1      20.758   5.984  22.844  0.00  0.00    +0.218 A 
ATOM     22  C   UNL     1      22.451   4.850  22.330  0.00  0.00    +0.251 A 
BRANCH  22  24
ATOM      1  F   UNL     1      23.980   6.127  20.358  0.00  0.00    -0.205 F 
ATOM     24  C   UNL     1      23.312   4.120  21.445  0.00  0.00    +0.074 A 
ATOM     27  C   UNL     1      24.056   4.793  20.477  0.00  0.00    +0.136 A 
ATOM     28  C   UNL     1      23.403   2.733  21.556  0.00  0.00    +0.016 A 
ATOM     31  C   UNL     1      24.891   4.078  19.618  0.00  0.00    +0.039 A 
ATOM     32  C   UNL     1      24.238   2.018  20.697  0.00  0.00    +0.001 A 
ATOM     33  C   UNL     1      24.983   2.690  19.728  0.00  0.00    +0.003 A 
ENDBRANCH  22  24
ENDBRANCH  16  20
ENDBRANCH  11  16
TORSDOF 7
ENDMDL
MODEL 6
REMARK VINA RESULT:      -6.9     23.680     26.472
REMARK  Name = 45783939
REMARK  10 active torsions:
REMARK  status: ('A' for Active; 'I' for Inactive)
REMARK    1  A    between atoms: N_4  and  C_15
REMARK    2  A    between atoms: C_8  and  C_12
REMARK    3  A    between atoms: C_9  and  C_15
REMARK    4  A    between atoms: C_11  and  C_16
REMARK    5  A    between atoms: C_12  and  C_17
REMARK    6  A    between atoms: C_12  and  C_18
REMARK    7  A    between atoms: C_13  and  C_19
REMARK    8  A    between atoms: C_16  and  C_20
REMARK    9  A    between atoms: C_21  and  C_23
REMARK   10  A    between atoms: C_22  and  C_24
REMARK                            x       y       z     vdW  Elec       q    Type
REMARK                         _______ _______ _______ _____ _____    ______ ____
ROOT
ATOM      8  C   UNL     1       8.940   8.289   5.347  0.00  0.00    +0.000 C 
ATOM      9  C   UNL     1       8.583   7.732   6.747  0.00  0.00    +0.032 C 
ATOM     10  C   UNL     1       8.731   7.211   4.272  0.00  0.00    +0.012 C 
ATOM     11  C   UNL     1       9.587   5.956   4.531  0.00  0.00    +0.024 C 
ATOM     13  C   UNL     1       9.496   5.501   5.973  0.00  0.00    -0.073 C 
ATOM     14  C   UNL     1       9.033   6.303   6.947  0.00  0.00    -0.022 C 
ATOM     19  C   UNL     1       9.908   4.084   6.263  0.00  0.00    +0.039 C 
ENDROOT
BRANCH   8  12
ATOM     12  C   UNL     1       8.113   9.531   5.001  0.00  0.00    -0.013 C 
ATOM     17  C   UNL     1       9.030  10.719   4.722  0.00  0.00    +0.007 C 
ATOM     18  C   UNL     1       7.208   9.254   3.806  0.00  0.00    +0.007 C 
ENDBRANCH   8  12
BRANCH   9  15
ATOM     15  C   UNL     1       9.168   8.611   7.858  0.00  0.00    +0.112 C 
BRANCH  15   4
ATOM      3  O   UNL     1      10.432  11.145   8.331  0.00  0.00    -0.270 OA
ATOM      4  N   UNL     1      10.526   8.954   7.572  0.00  0.00    -0.311 N 
ATOM     21  C   UNL     1      11.061  10.215   7.835  0.00  0.00    +0.244 C 
ATOM     34  H   UNL     1      11.106   8.235   7.154  0.00  0.00    +0.149 HD
BRANCH  21  23
ATOM      7  N   UNL     1      15.158  10.809   6.744  0.00  0.00    -0.263 NA
ATOM     23  C   UNL     1      12.482  10.421   7.454  0.00  0.00    +0.040 A 
ATOM     25  C   UNL     1      13.193   9.404   6.829  0.00  0.00    +0.033 A 
ATOM     26  C   UNL     1      13.108  11.634   7.726  0.00  0.00    +0.033 A 
ATOM     29  C   UNL     1      14.516   9.645   6.498  0.00  0.00    +0.111 A 
ATOM     30  C   UNL     1      14.436  11.775   7.354  0.00  0.00    +0.111 A 
ENDBRANCH  21  23
ENDBRANCH  15   4
ENDBRANCH   9  15
BRANCH  11  16
ATOM     16  C   UNL     1      11.046   6.189   4.120  0.00  0.00    +0.105 C 
BRANCH  16  20
ATOM      2  O   UNL     1      12.595   5.464   2.378  0.00  0.00    -0.420 OA
ATOM      5  N   UNL     1      11.031   3.952   2.901  0.00  0.00    -0.112 NA
ATOM      6  N   UNL     1      11.831   3.413   1.911  0.00  0.00    -0.107 NA
ATOM     20  C   UNL     1      11.513   5.149   3.142  0.00  0.00    +0.218 A 
ATOM     22  C   UNL     1      12.730   4.331   1.637  0.00  0.00    +0.251 A 
BRANCH  22  24
ATOM      1  F   UNL     1      15.246   3.273   2.275  0.00  0.00    -0.205 F 
ATOM     24  C   UNL     1      13.811   4.322   0.695  0.00  0.00    +0.074 A 
ATOM     27  C   UNL     1      15.048   3.787   1.052  0.00  0.00    +0.136 A 
ATOM     28  C   UNL     1      13.622   4.853  -0.581  0.00  0.00    +0.016 A 
ATOM     31  C   UNL     1      16.097   3.782   0.133  0.00  0.00    +0.039 A 
ATOM     32  C   UNL     1      14.671   4.849  -1.500  0.00  0.00    +0.001 A 
ATOM     33  C   UNL     1      15.909   4.313  -1.144  0.00  0.00    +0.003 A 
ENDBRANCH  22  24
ENDBRANCH  16  20
ENDBRANCH  11  16
TORSDOF 7
ENDMDL
MODEL 7
REMARK VINA RESULT:      -6.8      6.210     10.549
REMARK  Name = 45783939
REMARK  10 active torsions:
REMARK  status: ('A' for Active; 'I' for Inactive)
REMARK    1  A    between atoms: N_4  and  C_15
REMARK    2  A    between atoms: C_8  and  C_12
REMARK    3  A    between atoms: C_9  and  C_15
REMARK    4  A    between atoms: C_11  and  C_16
REMARK    5  A    between atoms: C_12  and  C_17
REMARK    6  A    between atoms: C_12  and  C_18
REMARK    7  A    between atoms: C_13  and  C_19
REMARK    8  A    between atoms: C_16  and  C_20
REMARK    9  A    between atoms: C_21  and  C_23
REMARK   10  A    between atoms: C_22  and  C_24
REMARK                            x       y       z     vdW  Elec       q    Type
REMARK                         _______ _______ _______ _____ _____    ______ ____
ROOT
ATOM      8  C   UNL     1     -10.502  -9.592  18.277  0.00  0.00    +0.000 C 
ATOM      9  C   UNL     1     -11.404 -10.643  18.972  0.00  0.00    +0.032 C 
ATOM     10  C   UNL     1      -9.456 -10.286  17.392  0.00  0.00    +0.012 C 
ATOM     11  C   UNL     1      -8.558 -11.247  18.194  0.00  0.00    +0.024 C 
ATOM     13  C   UNL     1      -9.368 -12.140  19.111  0.00  0.00    -0.073 C 
ATOM     14  C   UNL     1     -10.642 -11.862  19.437  0.00  0.00    -0.022 C 
ATOM     19  C   UNL     1      -8.692 -13.388  19.610  0.00  0.00    +0.039 C 
ENDROOT
BRANCH   8  12
ATOM     12  C   UNL     1     -11.320  -8.607  17.438  0.00  0.00    -0.013 C 
ATOM     17  C   UNL     1     -10.415  -7.527  16.853  0.00  0.00    +0.007 C 
ATOM     18  C   UNL     1     -12.069  -9.342  16.331  0.00  0.00    +0.007 C 
ENDBRANCH   8  12
BRANCH   9  15
ATOM     15  C   UNL     1     -12.157 -10.029  20.157  0.00  0.00    +0.112 C 
BRANCH  15   4
ATOM      3  O   UNL     1     -14.608 -11.123  21.174  0.00  0.00    -0.270 OA
ATOM      4  N   UNL     1     -12.293 -10.976  21.219  0.00  0.00    -0.311 N 
ATOM     21  C   UNL     1     -13.528 -11.457  21.653  0.00  0.00    +0.244 C 
ATOM     34  H   UNL     1     -11.440 -11.294  21.666  0.00  0.00    +0.149 HD
BRANCH  21  23
ATOM      7  N   UNL     1     -13.458 -14.226  24.916  0.00  0.00    -0.263 NA
ATOM     23  C   UNL     1     -13.502 -12.417  22.786  0.00  0.00    +0.040 A 
ATOM     25  C   UNL     1     -12.554 -13.432  22.819  0.00  0.00    +0.033 A 
ATOM     26  C   UNL     1     -14.430 -12.304  23.817  0.00  0.00    +0.033 A 
ATOM     29  C   UNL     1     -12.574 -14.303  23.896  0.00  0.00    +0.111 A 
ATOM     30  C   UNL     1     -14.365 -13.227  24.849  0.00  0.00    +0.111 A 
ENDBRANCH  21  23
ENDBRANCH  15   4
ENDBRANCH   9  15
BRANCH  11  16
ATOM     16  C   UNL     1      -7.490 -10.477  18.980  0.00  0.00    +0.105 C 
BRANCH  16  20
ATOM      2  O   UNL     1      -5.705 -10.542  17.317  0.00  0.00    -0.420 OA
ATOM      5  N   UNL     1      -5.194 -11.546  19.249  0.00  0.00    -0.112 NA
ATOM      6  N   UNL     1      -4.102 -11.658  18.409  0.00  0.00    -0.107 NA
ATOM     20  C   UNL     1      -6.104 -10.889  18.571  0.00  0.00    +0.218 A 
ATOM     22  C   UNL     1      -4.446 -11.059  17.292  0.00  0.00    +0.251 A 
BRANCH  22  24
ATOM      1  F   UNL     1      -1.652 -10.836  17.261  0.00  0.00    -0.205 F 
ATOM     24  C   UNL     1      -3.713 -10.867  16.075  0.00  0.00    +0.074 A 
ATOM     27  C   UNL     1      -2.322 -10.760  16.102  0.00  0.00    +0.136 A 
ATOM     28  C   UNL     1      -4.395 -10.786  14.861  0.00  0.00    +0.016 A 
ATOM     31  C   UNL     1      -1.614 -10.573  14.916  0.00  0.00    +0.039 A 
ATOM     32  C   UNL     1      -3.686 -10.598  13.674  0.00  0.00    +0.001 A 
ATOM     33  C   UNL     1      -2.295 -10.492  13.701  0.00  0.00    +0.003 A 
ENDBRANCH  22  24
ENDBRANCH  16  20
ENDBRANCH  11  16
TORSDOF 7
ENDMDL
MODEL 8
REMARK VINA RESULT:      -6.7     20.160     23.365
REMARK  Name = 45783939
REMARK  10 active torsions:
REMARK  status: ('A' for Active; 'I' for Inactive)
REMARK    1  A    between atoms: N_4  and  C_15
REMARK    2  A    between atoms: C_8  and  C_12
REMARK    3  A    between atoms: C_9  and  C_15
REMARK    4  A    between atoms: C_11  and  C_16
REMARK    5  A    between atoms: C_12  and  C_17
REMARK    6  A    between atoms: C_12  and  C_18
REMARK    7  A    between atoms: C_13  and  C_19
REMARK    8  A    between atoms: C_16  and  C_20
REMARK    9  A    between atoms: C_21  and  C_23
REMARK   10  A    between atoms: C_22  and  C_24
REMARK                            x       y       z     vdW  Elec       q    Type
REMARK                         _______ _______ _______ _____ _____    ______ ____
ROOT
ATOM      8  C   UNL     1     -13.356   7.852  20.902  0.00  0.00    +0.000 C 
ATOM      9  C   UNL     1     -13.942   9.158  21.496  0.00  0.00    +0.032 C 
ATOM     10  C   UNL     1     -14.469   6.816  20.685  0.00  0.00    +0.012 C 
ATOM     11  C   UNL     1     -15.207   6.470  21.992  0.00  0.00    +0.024 C 
ATOM     13  C   UNL     1     -15.583   7.713  22.773  0.00  0.00    -0.073 C 
ATOM     14  C   UNL     1     -15.017   8.908  22.528  0.00  0.00    -0.022 C 
ATOM     19  C   UNL     1     -16.659   7.560  23.811  0.00  0.00    +0.039 C 
ENDROOT
BRANCH   8  12
ATOM     12  C   UNL     1     -12.621   8.107  19.583  0.00  0.00    -0.013 C 
ATOM     17  C   UNL     1     -11.517   7.074  19.381  0.00  0.00    +0.007 C 
ATOM     18  C   UNL     1     -13.600   8.087  18.414  0.00  0.00    +0.007 C 
ENDBRANCH   8  12
BRANCH   9  15
ATOM     15  C   UNL     1     -12.840  10.030  22.108  0.00  0.00    +0.112 C 
BRANCH  15   4
ATOM      3  O   UNL     1     -11.668  11.910  23.933  0.00  0.00    -0.270 OA
ATOM      4  N   UNL     1     -12.879   9.971  23.535  0.00  0.00    -0.311 N 
ATOM     21  C   UNL     1     -12.279  10.930  24.351  0.00  0.00    +0.244 C 
ATOM     34  H   UNL     1     -13.364   9.184  23.952  0.00  0.00    +0.149 HD
BRANCH  21  23
ATOM      7  N   UNL     1     -12.583  10.304  28.575  0.00  0.00    -0.263 NA
ATOM     23  C   UNL     1     -12.385  10.711  25.816  0.00  0.00    +0.040 A 
ATOM     25  C   UNL     1     -13.621  10.796  26.447  0.00  0.00    +0.033 A 
ATOM     26  C   UNL     1     -11.247  10.423  26.563  0.00  0.00    +0.033 A 
ATOM     29  C   UNL     1     -13.666  10.587  27.816  0.00  0.00    +0.111 A 
ATOM     30  C   UNL     1     -11.399  10.230  27.927  0.00  0.00    +0.111 A 
ENDBRANCH  21  23
ENDBRANCH  15   4
ENDBRANCH   9  15
BRANCH  11  16
ATOM     16  C   UNL     1     -14.380   5.509  22.855  0.00  0.00    +0.105 C 
BRANCH  16  20
ATOM      2  O   UNL     1     -15.282   4.250  24.741  0.00  0.00    -0.420 OA
ATOM      5  N   UNL     1     -15.931   3.491  22.739  0.00  0.00    -0.112 NA
ATOM      6  N   UNL     1     -16.511   2.692  23.706  0.00  0.00    -0.107 NA
ATOM     20  C   UNL     1     -15.223   4.386  23.388  0.00  0.00    +0.218 A 
ATOM     22  C   UNL     1     -16.105   3.172  24.859  0.00  0.00    +0.251 A 
BRANCH  22  24
ATOM      1  F   UNL     1     -16.582   0.482  25.486  0.00  0.00    -0.205 F 
ATOM     24  C   UNL     1     -16.389   2.743  26.198  0.00  0.00    +0.074 A 
ATOM     27  C   UNL     1     -16.621   1.395  26.468  0.00  0.00    +0.136 A 
ATOM     28  C   UNL     1     -16.433   3.680  27.230  0.00  0.00    +0.016 A 
ATOM     31  C   UNL     1     -16.898   0.983  27.771  0.00  0.00    +0.039 A 
ATOM     32  C   UNL     1     -16.711   3.268  28.534  0.00  0.00    +0.001 A 
ATOM     33  C   UNL     1     -16.943   1.919  28.805  0.00  0.00    +0.003 A 
ENDBRANCH  22  24
ENDBRANCH  16  20
ENDBRANCH  11  16
TORSDOF 7
ENDMDL
MODEL 9
REMARK VINA RESULT:      -6.6     23.512     26.269
REMARK  Name = 45783939
REMARK  10 active torsions:
REMARK  status: ('A' for Active; 'I' for Inactive)
REMARK    1  A    between atoms: N_4  and  C_15
REMARK    2  A    between atoms: C_8  and  C_12
REMARK    3  A    between atoms: C_9  and  C_15
REMARK    4  A    between atoms: C_11  and  C_16
REMARK    5  A    between atoms: C_12  and  C_17
REMARK    6  A    between atoms: C_12  and  C_18
REMARK    7  A    between atoms: C_13  and  C_19
REMARK    8  A    between atoms: C_16  and  C_20
REMARK    9  A    between atoms: C_21  and  C_23
REMARK   10  A    between atoms: C_22  and  C_24
REMARK                            x       y       z     vdW  Elec       q    Type
REMARK                         _______ _______ _______ _____ _____    ______ ____
ROOT
ATOM      8  C   UNL     1       9.179   8.180   4.905  0.00  0.00    +0.000 C 
ATOM      9  C   UNL     1       8.855   9.027   6.161  0.00  0.00    +0.032 C 
ATOM     10  C   UNL     1       8.548   6.784   5.023  0.00  0.00    +0.012 C 
ATOM     11  C   UNL     1       9.045   6.023   6.267  0.00  0.00    +0.024 C 
ATOM     13  C   UNL     1       9.008   6.890   7.509  0.00  0.00    -0.073 C 
ATOM     14  C   UNL     1       8.910   8.229   7.442  0.00  0.00    -0.022 C 
ATOM     19  C   UNL     1       9.041   6.178   8.833  0.00  0.00    +0.039 C 
ENDROOT
BRANCH   8  12
ATOM     12  C   UNL     1       8.696   8.860   3.620  0.00  0.00    -0.013 C 
ATOM     17  C   UNL     1       8.968   7.969   2.412  0.00  0.00    +0.007 C 
ATOM     18  C   UNL     1       7.211   9.196   3.720  0.00  0.00    +0.007 C 
ENDBRANCH   8  12
BRANCH   9  15
ATOM     15  C   UNL     1       9.794  10.234   6.270  0.00  0.00    +0.112 C 
BRANCH  15   4
ATOM      3  O   UNL     1      11.869  10.308   8.253  0.00  0.00    -0.270 OA
ATOM      4  N   UNL     1      11.156   9.836   6.096  0.00  0.00    -0.311 N 
ATOM     21  C   UNL     1      12.103   9.906   7.116  0.00  0.00    +0.244 C 
ATOM     34  H   UNL     1      11.423   9.497   5.178  0.00  0.00    +0.149 HD
BRANCH  21  23
ATOM      7  N   UNL     1      16.081   8.680   6.115  0.00  0.00    -0.263 NA
ATOM     23  C   UNL     1      13.483   9.480   6.767  0.00  0.00    +0.040 A 
ATOM     25  C   UNL     1      13.778   8.132   6.603  0.00  0.00    +0.033 A 
ATOM     26  C   UNL     1      14.486  10.430   6.605  0.00  0.00    +0.033 A 
ATOM     29  C   UNL     1      15.080   7.787   6.281  0.00  0.00    +0.111 A 
ATOM     30  C   UNL     1      15.757   9.982   6.282  0.00  0.00    +0.111 A 
ENDBRANCH  21  23
ENDBRANCH  15   4
ENDBRANCH   9  15
BRANCH  11  16
ATOM     16  C   UNL     1      10.448   5.450   6.039  0.00  0.00    +0.105 C 
BRANCH  16  20
ATOM      2  O   UNL     1      11.697   5.768   3.966  0.00  0.00    -0.420 OA
ATOM      5  N   UNL     1      10.034   4.279   3.815  0.00  0.00    -0.112 NA
ATOM      6  N   UNL     1      10.649   4.358   2.580  0.00  0.00    -0.107 NA
ATOM     20  C   UNL     1      10.677   5.118   4.592  0.00  0.00    +0.218 A 
ATOM     22  C   UNL     1      11.613   5.239   2.715  0.00  0.00    +0.251 A 
BRANCH  22  24
ATOM      1  F   UNL     1      13.866   3.736   1.991  0.00  0.00    -0.205 F 
ATOM     24  C   UNL     1      12.574   5.720   1.765  0.00  0.00    +0.074 A 
ATOM     27  C   UNL     1      13.682   4.942   1.432  0.00  0.00    +0.136 A 
ATOM     28  C   UNL     1      12.397   6.972   1.175  0.00  0.00    +0.016 A 
ATOM     31  C   UNL     1      14.615   5.415   0.509  0.00  0.00    +0.039 A 
ATOM     32  C   UNL     1      13.330   7.445   0.252  0.00  0.00    +0.001 A 
ATOM     33  C   UNL     1      14.439   6.667  -0.082  0.00  0.00    +0.003 A 
ENDBRANCH  22  24
ENDBRANCH  16  20
ENDBRANCH  11  16
TORSDOF 7
ENDMDL
MODEL 10
REMARK VINA RESULT:      -6.6     23.683     26.202
REMARK  Name = 45783939
REMARK  10 active torsions:
REMARK  status: ('A' for Active; 'I' for Inactive)
REMARK    1  A    between atoms: N_4  and  C_15
REMARK    2  A    between atoms: C_8  and  C_12
REMARK    3  A    between atoms: C_9  and  C_15
REMARK    4  A    between atoms: C_11  and  C_16
REMARK    5  A    between atoms: C_12  and  C_17
REMARK    6  A    between atoms: C_12  and  C_18
REMARK    7  A    between atoms: C_13  and  C_19
REMARK    8  A    between atoms: C_16  and  C_20
REMARK    9  A    between atoms: C_21  and  C_23
REMARK   10  A    between atoms: C_22  and  C_24
REMARK                            x       y       z     vdW  Elec       q    Type
REMARK                         _______ _______ _______ _____ _____    ______ ____
ROOT
ATOM      8  C   UNL     1       9.652   6.621   6.639  0.00  0.00    +0.000 C 
ATOM      9  C   UNL     1       9.137   5.948   5.343  0.00  0.00    +0.032 C 
ATOM     10  C   UNL     1       8.640   7.662   7.141  0.00  0.00    +0.012 C 
ATOM     11  C   UNL     1       8.365   8.760   6.095  0.00  0.00    +0.024 C 
ATOM     13  C   UNL     1       8.110   8.176   4.720  0.00  0.00    -0.073 C 
ATOM     14  C   UNL     1       8.450   6.914   4.407  0.00  0.00    -0.022 C 
ATOM     19  C   UNL     1       7.414   9.064   3.726  0.00  0.00    +0.039 C 
ENDROOT
BRANCH   8  12
ATOM     12  C   UNL     1       9.931   5.596   7.742  0.00  0.00    -0.013 C 
ATOM     17  C   UNL     1      11.346   5.770   8.285  0.00  0.00    +0.007 C 
ATOM     18  C   UNL     1       8.902   5.723   8.860  0.00  0.00    +0.007 C 
ENDBRANCH   8  12
BRANCH   9  15
ATOM     15  C   UNL     1      10.273   5.237   4.600  0.00  0.00    +0.112 C 
BRANCH  15   4
ATOM      3  O   UNL     1      11.666   7.272   3.130  0.00  0.00    -0.270 OA
ATOM      4  N   UNL     1      11.537   5.815   4.932  0.00  0.00    -0.311 N 
ATOM     21  C   UNL     1      12.146   6.803   4.158  0.00  0.00    +0.244 C 
ATOM     34  H   UNL     1      11.997   5.472   5.768  0.00  0.00    +0.149 HD
BRANCH  21  23
ATOM      7  N   UNL     1      15.970   8.188   5.496  0.00  0.00    -0.263 NA
ATOM     23  C   UNL     1      13.473   7.282   4.624  0.00  0.00    +0.040 A 
ATOM     25  C   UNL     1      13.617   7.810   5.902  0.00  0.00    +0.033 A 
ATOM     26  C   UNL     1      14.577   7.207   3.780  0.00  0.00    +0.033 A 
ATOM     29  C   UNL     1      14.874   8.245   6.286  0.00  0.00    +0.111 A 
ATOM     30  C   UNL     1      15.792   7.670   4.261  0.00  0.00    +0.111 A 
ENDBRANCH  21  23
ENDBRANCH  15   4
ENDBRANCH   9  15
BRANCH  11  16
ATOM     16  C   UNL     1       9.506   9.782   6.055  0.00  0.00    +0.105 C 
BRANCH  16  20
ATOM      2  O   UNL     1       9.602  10.717   8.307  0.00  0.00    -0.420 OA
ATOM      5  N   UNL     1       8.750  12.106   6.774  0.00  0.00    -0.112 NA
ATOM      6  N   UNL     1       8.745  12.761   7.992  0.00  0.00    -0.107 NA
ATOM     20  C   UNL     1       9.259  10.919   7.005  0.00  0.00    +0.218 A 
ATOM     22  C   UNL     1       9.250  11.912   8.857  0.00  0.00    +0.251 A 
BRANCH  22  24
ATOM      1  F   UNL     1      11.801  11.594   9.975  0.00  0.00    -0.205 F 
ATOM     24  C   UNL     1       9.485  12.048  10.265  0.00  0.00    +0.074 A 
ATOM     27  C   UNL     1      10.769  11.881  10.782  0.00  0.00    +0.136 A 
ATOM     28  C   UNL     1       8.423  12.347  11.118  0.00  0.00    +0.016 A 
ATOM     31  C   UNL     1      10.992  12.013  12.153  0.00  0.00    +0.039 A 
ATOM     32  C   UNL     1       8.645  12.478  12.489  0.00  0.00    +0.001 A 
ATOM     33  C   UNL     1       9.930  12.312  13.007  0.00  0.00    +0.003 A 
ENDBRANCH  22  24
ENDBRANCH  16  20
ENDBRANCH  11  16
TORSDOF 7
ENDMDL
