REMARK  Name = 26745395
REMARK  5 active torsions:
REMARK  status: ('A' for Active; 'I' for Inactive)
REMARK    1  A    between atoms: N_4  and  C_19
REMARK    2  A    between atoms: C_7  and  C_14
REMARK    3  A    between atoms: C_12  and  C_13
REMARK    4  A    between atoms: C_14  and  C_20
REMARK    5  A    between atoms: C_19  and  C_21
REMARK                            x       y       z     vdW  Elec       q    Type
REMARK                         _______ _______ _______ _____ _____    ______ ____
ROOT
ATOM      4  N   UNL     1       2.420  -0.475  -0.236  0.00  0.00    -0.281 NA
ATOM      5  N   UNL     1       3.002  -4.175  -0.221  0.00  0.00    -0.347 N 
ATOM      6  N   UNL     1       1.124  -4.256   0.990  0.00  0.00    -0.240 NA
ATOM     12  C   UNL     1       0.942  -0.611  -0.093  0.00  0.00    +0.150 C 
ATOM     15  C   UNL     1       0.520  -1.797   0.826  0.00  0.00    +0.085 C 
ATOM     16  C   UNL     1       3.035  -1.691  -0.842  0.00  0.00    +0.140 C 
ATOM     17  C   UNL     1       1.352  -2.985   0.546  0.00  0.00    +0.065 A 
ATOM     18  C   UNL     1       2.503  -2.909  -0.195  0.00  0.00    +0.053 A 
ATOM     22  C   UNL     1       2.136  -4.952   0.508  0.00  0.00    +0.197 A 
ATOM     33  H   UNL     1       3.843  -4.489  -0.688  0.00  0.00    +0.167 HD
ENDROOT
BRANCH  12  13
ATOM      2  O   UNL     1       1.113   1.285   1.304  0.00  0.00    -0.274 OA
ATOM      3  N   UNL     1      -0.911   0.983   0.204  0.00  0.00    -0.300 N 
ATOM      7  C   UNL     1      -3.788   1.154   0.538  0.00  0.00    -0.004 C 
ATOM      8  C   UNL     1      -3.111  -0.105  -0.024  0.00  0.00    +0.023 C 
ATOM      9  C   UNL     1      -2.818   1.912   1.458  0.00  0.00    +0.023 C 
ATOM     10  C   UNL     1      -1.786   0.232  -0.704  0.00  0.00    +0.108 C 
ATOM     11  C   UNL     1      -1.500   2.209   0.747  0.00  0.00    +0.108 C 
ATOM     13  C   UNL     1       0.398   0.636   0.536  0.00  0.00    +0.233 C 
BRANCH   7  14
ATOM     14  C   UNL     1      -5.073   0.796   1.280  0.00  0.00    +0.038 C 
BRANCH  14  20
ATOM     20  C   UNL     1      -6.209   0.537   0.329  0.00  0.00    -0.047 A 
ATOM     23  C   UNL     1      -7.037   1.586  -0.070  0.00  0.00    +0.003 A 
ATOM     24  C   UNL     1      -6.434  -0.752  -0.155  0.00  0.00    +0.003 A 
ATOM     27  C   UNL     1      -8.091   1.347  -0.952  0.00  0.00    +0.000 A 
ATOM     28  C   UNL     1      -7.488  -0.991  -1.037  0.00  0.00    +0.000 A 
ATOM     29  C   UNL     1      -8.316   0.058  -1.436  0.00  0.00    +0.000 A 
ENDBRANCH  14  20
ENDBRANCH   7  14
ENDBRANCH  12  13
BRANCH   4  19
ATOM     19  C   UNL     1       2.799   0.691  -1.044  0.00  0.00    +0.120 C 
BRANCH  19  21
ATOM      1 CL   UNL     1       8.354   2.601   0.254  0.00  0.00    -0.084 Cl
ATOM     21  C   UNL     1       4.190   1.169  -0.719  0.00  0.00    -0.033 A 
ATOM     25  C   UNL     1       4.383   2.124   0.279  0.00  0.00    +0.006 A 
ATOM     26  C   UNL     1       5.284   0.657  -1.416  0.00  0.00    +0.006 A 
ATOM     30  C   UNL     1       5.671   2.567   0.580  0.00  0.00    +0.020 A 
ATOM     31  C   UNL     1       6.572   1.100  -1.115  0.00  0.00    +0.020 A 
ATOM     32  C   UNL     1       6.765   2.055  -0.117  0.00  0.00    +0.041 A 
ENDBRANCH  19  21
ENDBRANCH   4  19
TORSDOF 5
