REMARK  Name = 38029363
REMARK  12 active torsions:
REMARK  status: ('A' for Active; 'I' for Inactive)
REMARK    1  A    between atoms: N_3  and  C_14
REMARK    2  A    between atoms: N_4  and  C_21
REMARK    3  A    between atoms: C_7  and  C_11
REMARK    4  A    between atoms: C_8  and  C_14
REMARK    5  A    between atoms: C_10  and  C_15
REMARK    6  A    between atoms: C_11  and  C_16
REMARK    7  A    between atoms: C_11  and  C_17
REMARK    8  A    between atoms: C_12  and  C_18
REMARK    9  A    between atoms: C_15  and  C_19
REMARK   10  A    between atoms: C_20  and  C_22
REMARK   11  A    between atoms: C_21  and  C_23
REMARK   12  A    between atoms: C_32  and  C_33
REMARK                            x       y       z     vdW  Elec       q    Type
REMARK                         _______ _______ _______ _____ _____    ______ ____
ROOT
ATOM      7  C   UNL     1       0.752   1.704  -1.258  0.00  0.00    +0.000 C 
ATOM      8  C   UNL     1       2.196   2.035  -1.713  0.00  0.00    +0.032 C 
ATOM      9  C   UNL     1       0.246   2.762  -0.266  0.00  0.00    +0.012 C 
ATOM     10  C   UNL     1       1.141   2.863   0.984  0.00  0.00    +0.023 C 
ATOM     12  C   UNL     1       2.611   2.924   0.621  0.00  0.00    -0.073 C 
ATOM     13  C   UNL     1       3.062   2.563  -0.593  0.00  0.00    -0.022 C 
ATOM     18  C   UNL     1       3.546   3.453   1.673  0.00  0.00    +0.039 C 
ENDROOT
BRANCH   7  11
ATOM     11  C   UNL     1      -0.210   1.605  -2.446  0.00  0.00    -0.013 C 
ATOM     16  C   UNL     1      -1.407   0.728  -2.090  0.00  0.00    +0.007 C 
ATOM     17  C   UNL     1      -0.666   2.994  -2.878  0.00  0.00    +0.007 C 
ENDBRANCH   7  11
BRANCH   8  14
ATOM     14  C   UNL     1       2.870   0.814  -2.348  0.00  0.00    +0.112 C 
BRANCH  14   3
ATOM      2  O   UNL     1       1.790  -1.845  -2.448  0.00  0.00    -0.269 OA
ATOM      3  N   UNL     1       3.059  -0.221  -1.381  0.00  0.00    -0.310 N 
ATOM     20  C   UNL     1       2.496  -1.491  -1.508  0.00  0.00    +0.262 C 
ATOM     34  H   UNL     1       3.663  -0.036  -0.585  0.00  0.00    +0.149 HD
BRANCH  20  22
ATOM      5  N   UNL     1       3.532  -1.975   0.607  0.00  0.00    -0.250 NA
ATOM     22  C   UNL     1       2.767  -2.447  -0.403  0.00  0.00    +0.125 A 
ATOM     24  C   UNL     1       2.246  -3.730  -0.447  0.00  0.00    +0.033 A 
ATOM     27  C   UNL     1       2.529  -4.583   0.613  0.00  0.00    +0.004 A 
ATOM     28  C   UNL     1       3.785  -2.833   1.620  0.00  0.00    +0.111 A 
ATOM     31  C   UNL     1       3.312  -4.134   1.671  0.00  0.00    +0.020 A 
ENDBRANCH  20  22
ENDBRANCH  14   3
ENDBRANCH   8  14
BRANCH  10  15
ATOM     15  C   UNL     1       0.863   1.712   1.957  0.00  0.00    +0.103 C 
BRANCH  15  19
ATOM      1  O   UNL     1      -1.356   2.584   2.372  0.00  0.00    -0.276 OA
ATOM      4  N   UNL     1      -0.964   0.303   2.585  0.00  0.00    -0.311 N 
ATOM     19  C   UNL     1      -0.602   1.616   2.321  0.00  0.00    +0.214 C 
ATOM     35  H   UNL     1      -0.268  -0.433   2.513  0.00  0.00    +0.149 HD
BRANCH   4  21
ATOM     21  C   UNL     1      -2.304  -0.086   2.960  0.00  0.00    +0.139 C 
BRANCH  21  23
ATOM     23  C   UNL     1      -3.149  -0.418   1.764  0.00  0.00    -0.030 A 
ATOM     25  C   UNL     1      -4.319   0.299   1.516  0.00  0.00    +0.006 A 
ATOM     26  C   UNL     1      -2.762  -1.443   0.900  0.00  0.00    +0.006 A 
ATOM     29  C   UNL     1      -5.104  -0.009   0.405  0.00  0.00    +0.019 A 
ATOM     30  C   UNL     1      -3.547  -1.751  -0.211  0.00  0.00    +0.019 A 
ATOM     32  C   UNL     1      -4.718  -1.034  -0.459  0.00  0.00    +0.052 A 
BRANCH  32  33
ATOM      6  N   UNL     1      -6.174  -1.607  -2.522  0.00  0.00    -0.191 NA
ATOM     33  C   UNL     1      -5.521  -1.350  -1.597  0.00  0.00    +0.099 C 
ENDBRANCH  32  33
ENDBRANCH  21  23
ENDBRANCH   4  21
ENDBRANCH  15  19
ENDBRANCH  10  15
TORSDOF 9
