MODEL 1
REMARK VINA RESULT:      -6.3      0.000      0.000
REMARK  Name = 56775695
REMARK  6 active torsions:
REMARK  status: ('A' for Active; 'I' for Inactive)
REMARK    1  A    between atoms: N_4  and  C_7
REMARK    2  A    between atoms: N_4  and  C_11
REMARK    3  A    between atoms: C_7  and  C_10
REMARK    4  A    between atoms: C_10  and  C_12
REMARK    5  A    between atoms: C_11  and  C_13
REMARK    6  A    between atoms: C_15  and  C_18
REMARK                            x       y       z     vdW  Elec       q    Type
REMARK                         _______ _______ _______ _____ _____    ______ ____
ROOT
ATOM      2  O   UNL     1      -2.350 -13.850  13.218  0.00  0.00    -0.376 OA
ATOM      7  C   UNL     1      -2.679 -12.038  14.295  0.00  0.00    +0.072 C 
ATOM      8  C   UNL     1      -3.462 -12.935  13.343  0.00  0.00    +0.184 C 
ATOM      9  C   UNL     1      -1.522 -12.995  14.039  0.00  0.00    +0.184 C 
ENDROOT
BRANCH   7   4
ATOM      4  N   UNL     1      -3.175 -12.249  15.658  0.00  0.00    -0.302 NA
ATOM     26  H   UNL     1      -4.087 -12.695  15.733  0.00  0.00    +0.123 HD
BRANCH   4  11
ATOM     11  C   UNL     1      -3.169 -10.975  16.375  0.00  0.00    +0.118 C 
BRANCH  11  13
ATOM      1 CL   UNL     1      -3.698 -11.980  19.241  0.00  0.00    -0.083 Cl
ATOM     13  C   UNL     1      -4.494 -10.665  16.991  0.00  0.00    -0.015 A 
ATOM     16  C   UNL     1      -4.817 -11.081  18.283  0.00  0.00    +0.045 A 
ATOM     17  C   UNL     1      -5.420  -9.939  16.241  0.00  0.00    +0.006 A 
ATOM     19  C   UNL     1      -6.065 -10.772  18.824  0.00  0.00    +0.020 A 
ATOM     20  C   UNL     1      -6.668  -9.630  16.782  0.00  0.00    +0.000 A 
ATOM     21  C   UNL     1      -6.991 -10.047  18.074  0.00  0.00    +0.001 A 
ENDBRANCH  11  13
ENDBRANCH   4  11
ENDBRANCH   7   4
BRANCH   7  10
ATOM     10  C   UNL     1      -2.513 -10.588  13.954  0.00  0.00    +0.085 C 
BRANCH  10  12
ATOM      3  O   UNL     1      -2.873  -9.978  10.411  0.00  0.00    -0.353 OA
ATOM      5  N   UNL     1      -2.111 -10.247  11.542  0.00  0.00    -0.083 NA
ATOM     12  C   UNL     1      -2.991 -10.308  12.545  0.00  0.00    +0.086 A 
ATOM     14  C   UNL     1      -4.311 -10.089  12.112  0.00  0.00    +0.077 A 
ATOM     15  C   UNL     1      -4.181  -9.887  10.763  0.00  0.00    +0.186 A 
BRANCH  15  18
ATOM      6  N   UNL     1      -6.198  -8.921  10.057  0.00  0.00    -0.252 NA
ATOM     18  C   UNL     1      -5.096  -9.614   9.693  0.00  0.00    +0.109 A 
ATOM     22  C   UNL     1      -4.841 -10.042   8.400  0.00  0.00    +0.031 A 
ATOM     23  C   UNL     1      -5.777  -9.738   7.418  0.00  0.00    +0.004 A 
ATOM     24  C   UNL     1      -7.085  -8.644   9.076  0.00  0.00    +0.111 A 
ATOM     25  C   UNL     1      -6.924  -9.026   7.754  0.00  0.00    +0.020 A 
ENDBRANCH  15  18
ENDBRANCH  10  12
ENDBRANCH   7  10
TORSDOF 6
ENDMDL
MODEL 2
REMARK VINA RESULT:      -6.3     22.779     24.463
REMARK  Name = 56775695
REMARK  6 active torsions:
REMARK  status: ('A' for Active; 'I' for Inactive)
REMARK    1  A    between atoms: N_4  and  C_7
REMARK    2  A    between atoms: N_4  and  C_11
REMARK    3  A    between atoms: C_7  and  C_10
REMARK    4  A    between atoms: C_10  and  C_12
REMARK    5  A    between atoms: C_11  and  C_13
REMARK    6  A    between atoms: C_15  and  C_18
REMARK                            x       y       z     vdW  Elec       q    Type
REMARK                         _______ _______ _______ _____ _____    ______ ____
ROOT
ATOM      2  O   UNL     1      12.383   8.582   4.190  0.00  0.00    -0.376 OA
ATOM      7  C   UNL     1      10.878   7.105   3.868  0.00  0.00    +0.072 C 
ATOM      8  C   UNL     1      12.314   7.359   3.423  0.00  0.00    +0.184 C 
ATOM      9  C   UNL     1      10.996   8.450   4.573  0.00  0.00    +0.184 C 
ENDROOT
BRANCH   7   4
ATOM      4  N   UNL     1      10.878   6.041   4.875  0.00  0.00    -0.302 NA
ATOM     26  H   UNL     1      11.305   5.161   4.591  0.00  0.00    +0.123 HD
BRANCH   4  11
ATOM     11  C   UNL     1       9.509   5.817   5.339  0.00  0.00    +0.118 C 
BRANCH  11  13
ATOM      1 CL   UNL     1       8.576   8.098   7.191  0.00  0.00    -0.083 Cl
ATOM     13  C   UNL     1       9.445   5.544   6.806  0.00  0.00    -0.015 A 
ATOM     16  C   UNL     1       9.034   6.519   7.715  0.00  0.00    +0.045 A 
ATOM     17  C   UNL     1       9.809   4.276   7.261  0.00  0.00    +0.006 A 
ATOM     19  C   UNL     1       8.987   6.226   9.078  0.00  0.00    +0.020 A 
ATOM     20  C   UNL     1       9.762   3.983   8.624  0.00  0.00    +0.000 A 
ATOM     21  C   UNL     1       9.351   4.958   9.533  0.00  0.00    +0.001 A 
ENDBRANCH  11  13
ENDBRANCH   4  11
ENDBRANCH   7   4
BRANCH   7  10
ATOM     10  C   UNL     1       9.818   6.919   2.825  0.00  0.00    +0.085 C 
BRANCH  10  12
ATOM      3  O   UNL     1      10.760   3.855   1.158  0.00  0.00    -0.353 OA
ATOM      5  N   UNL     1      10.434   4.588   2.293  0.00  0.00    -0.083 NA
ATOM     12  C   UNL     1      10.206   5.827   1.850  0.00  0.00    +0.086 A 
ATOM     14  C   UNL     1      10.370   5.936   0.458  0.00  0.00    +0.077 A 
ATOM     15  C   UNL     1      10.718   4.668   0.072  0.00  0.00    +0.186 A 
BRANCH  15  18
ATOM      6  N   UNL     1      10.025   4.063  -2.084  0.00  0.00    -0.252 NA
ATOM     18  C   UNL     1      11.031   4.048  -1.182  0.00  0.00    +0.109 A 
ATOM     22  C   UNL     1      12.276   3.488  -1.418  0.00  0.00    +0.031 A 
ATOM     23  C   UNL     1      12.503   2.905  -2.660  0.00  0.00    +0.004 A 
ATOM     24  C   UNL     1      10.282   3.487  -3.281  0.00  0.00    +0.111 A 
ATOM     25  C   UNL     1      11.491   2.901  -3.615  0.00  0.00    +0.020 A 
ENDBRANCH  15  18
ENDBRANCH  10  12
ENDBRANCH   7  10
TORSDOF 6
ENDMDL
MODEL 3
REMARK VINA RESULT:      -6.1     24.968     26.951
REMARK  Name = 56775695
REMARK  6 active torsions:
REMARK  status: ('A' for Active; 'I' for Inactive)
REMARK    1  A    between atoms: N_4  and  C_7
REMARK    2  A    between atoms: N_4  and  C_11
REMARK    3  A    between atoms: C_7  and  C_10
REMARK    4  A    between atoms: C_10  and  C_12
REMARK    5  A    between atoms: C_11  and  C_13
REMARK    6  A    between atoms: C_15  and  C_18
REMARK                            x       y       z     vdW  Elec       q    Type
REMARK                         _______ _______ _______ _____ _____    ______ ____
ROOT
ATOM      2  O   UNL     1      17.859   8.188   2.737  0.00  0.00    -0.376 OA
ATOM      7  C   UNL     1      15.899   7.957   3.547  0.00  0.00    +0.072 C 
ATOM      8  C   UNL     1      16.522   8.386   2.224  0.00  0.00    +0.184 C 
ATOM      9  C   UNL     1      17.335   7.862   4.045  0.00  0.00    +0.184 C 
ENDROOT
BRANCH   7   4
ATOM      4  N   UNL     1      15.359   6.603   3.397  0.00  0.00    -0.302 NA
ATOM     26  H   UNL     1      16.032   5.845   3.498  0.00  0.00    +0.123 HD
BRANCH   4  11
ATOM     11  C   UNL     1      14.663   6.501   2.115  0.00  0.00    +0.118 C 
BRANCH  11  13
ATOM      1 CL   UNL     1      15.482   3.786   0.905  0.00  0.00    -0.083 Cl
ATOM     13  C   UNL     1      13.648   5.405   2.107  0.00  0.00    -0.015 A 
ATOM     16  C   UNL     1      13.934   4.145   1.579  0.00  0.00    +0.045 A 
ATOM     17  C   UNL     1      12.388   5.665   2.645  0.00  0.00    +0.006 A 
ATOM     19  C   UNL     1      12.960   3.147   1.591  0.00  0.00    +0.020 A 
ATOM     20  C   UNL     1      11.414   4.667   2.656  0.00  0.00    +0.000 A 
ATOM     21  C   UNL     1      11.700   3.407   2.129  0.00  0.00    +0.001 A 
ENDBRANCH  11  13
ENDBRANCH   4  11
ENDBRANCH   7   4
BRANCH   7  10
ATOM     10  C   UNL     1      14.949   8.889   4.237  0.00  0.00    +0.085 C 
BRANCH  10  12
ATOM      3  O   UNL     1      13.643   6.831   6.904  0.00  0.00    -0.353 OA
ATOM      5  N   UNL     1      14.689   7.346   6.148  0.00  0.00    -0.083 NA
ATOM     12  C   UNL     1      14.104   8.144   5.249  0.00  0.00    +0.086 A 
ATOM     14  C   UNL     1      12.706   8.173   5.389  0.00  0.00    +0.077 A 
ATOM     15  C   UNL     1      12.467   7.331   6.444  0.00  0.00    +0.186 A 
BRANCH  15  18
ATOM      6  N   UNL     1      11.498   5.892   8.022  0.00  0.00    -0.252 NA
ATOM     18  C   UNL     1      11.290   6.889   7.133  0.00  0.00    +0.109 A 
ATOM     22  C   UNL     1      10.052   7.459   6.884  0.00  0.00    +0.031 A 
ATOM     23  C   UNL     1       8.958   6.976   7.593  0.00  0.00    +0.004 A 
ATOM     24  C   UNL     1      10.412   5.448   8.692  0.00  0.00    +0.111 A 
ATOM     25  C   UNL     1       9.133   5.951   8.516  0.00  0.00    +0.020 A 
ENDBRANCH  15  18
ENDBRANCH  10  12
ENDBRANCH   7  10
TORSDOF 6
ENDMDL
MODEL 4
REMARK VINA RESULT:      -6.0      5.997      7.620
REMARK  Name = 56775695
REMARK  6 active torsions:
REMARK  status: ('A' for Active; 'I' for Inactive)
REMARK    1  A    between atoms: N_4  and  C_7
REMARK    2  A    between atoms: N_4  and  C_11
REMARK    3  A    between atoms: C_7  and  C_10
REMARK    4  A    between atoms: C_10  and  C_12
REMARK    5  A    between atoms: C_11  and  C_13
REMARK    6  A    between atoms: C_15  and  C_18
REMARK                            x       y       z     vdW  Elec       q    Type
REMARK                         _______ _______ _______ _____ _____    ______ ____
ROOT
ATOM      2  O   UNL     1      -9.314 -11.354  13.701  0.00  0.00    -0.376 OA
ATOM      7  C   UNL     1      -9.452  -9.811  15.169  0.00  0.00    +0.072 C 
ATOM      8  C   UNL     1      -9.239 -11.320  15.144  0.00  0.00    +0.184 C 
ATOM      9  C   UNL     1      -9.613  -9.940  13.659  0.00  0.00    +0.184 C 
ENDROOT
BRANCH   7   4
ATOM      4  N   UNL     1      -8.171  -9.159  15.453  0.00  0.00    -0.302 NA
ATOM     26  H   UNL     1      -7.365  -9.529  14.954  0.00  0.00    +0.123 HD
BRANCH   4  11
ATOM     11  C   UNL     1      -7.931  -9.178  16.896  0.00  0.00    +0.118 C 
BRANCH  11  13
ATOM      1 CL   UNL     1      -7.929 -10.956  19.415  0.00  0.00    -0.083 Cl
ATOM     13  C   UNL     1      -6.664  -9.887  17.250  0.00  0.00    -0.015 A 
ATOM     16  C   UNL     1      -6.575 -10.711  18.372  0.00  0.00    +0.045 A 
ATOM     17  C   UNL     1      -5.553  -9.710  16.426  0.00  0.00    +0.006 A 
ATOM     19  C   UNL     1      -5.375 -11.357  18.670  0.00  0.00    +0.020 A 
ATOM     20  C   UNL     1      -4.353 -10.355  16.724  0.00  0.00    +0.000 A 
ATOM     21  C   UNL     1      -4.264 -11.179  17.846  0.00  0.00    +0.001 A 
ENDBRANCH  11  13
ENDBRANCH   4  11
ENDBRANCH   7   4
BRANCH   7  10
ATOM     10  C   UNL     1     -10.583  -9.251  15.976  0.00  0.00    +0.085 C 
BRANCH  10  12
ATOM      3  O   UNL     1     -10.980  -5.770  15.092  0.00  0.00    -0.353 OA
ATOM      5  N   UNL     1     -10.320  -6.807  15.742  0.00  0.00    -0.083 NA
ATOM     12  C   UNL     1     -11.016  -7.905  15.434  0.00  0.00    +0.086 A 
ATOM     14  C   UNL     1     -12.114  -7.626  14.602  0.00  0.00    +0.077 A 
ATOM     15  C   UNL     1     -12.046  -6.269  14.417  0.00  0.00    +0.186 A 
BRANCH  15  18
ATOM      6  N   UNL     1     -12.105  -4.411  12.988  0.00  0.00    -0.252 NA
ATOM     18  C   UNL     1     -12.828  -5.312  13.691  0.00  0.00    +0.109 A 
ATOM     22  C   UNL     1     -14.212  -5.335  13.728  0.00  0.00    +0.031 A 
ATOM     23  C   UNL     1     -14.899  -4.373  12.996  0.00  0.00    +0.004 A 
ATOM     24  C   UNL     1     -12.807  -3.491  12.289  0.00  0.00    +0.111 A 
ATOM     25  C   UNL     1     -14.190  -3.429  12.261  0.00  0.00    +0.020 A 
ENDBRANCH  15  18
ENDBRANCH  10  12
ENDBRANCH   7  10
TORSDOF 6
ENDMDL
MODEL 5
REMARK VINA RESULT:      -6.0     27.297     28.954
REMARK  Name = 56775695
REMARK  6 active torsions:
REMARK  status: ('A' for Active; 'I' for Inactive)
REMARK    1  A    between atoms: N_4  and  C_7
REMARK    2  A    between atoms: N_4  and  C_11
REMARK    3  A    between atoms: C_7  and  C_10
REMARK    4  A    between atoms: C_10  and  C_12
REMARK    5  A    between atoms: C_11  and  C_13
REMARK    6  A    between atoms: C_15  and  C_18
REMARK                            x       y       z     vdW  Elec       q    Type
REMARK                         _______ _______ _______ _____ _____    ______ ____
ROOT
ATOM      2  O   UNL     1      15.330   6.912  21.386  0.00  0.00    -0.376 OA
ATOM      7  C   UNL     1      13.868   8.047  20.324  0.00  0.00    +0.072 C 
ATOM      8  C   UNL     1      14.616   8.142  21.649  0.00  0.00    +0.184 C 
ATOM      9  C   UNL     1      14.587   6.713  20.163  0.00  0.00    +0.184 C 
ENDROOT
BRANCH   7   4
ATOM      4  N   UNL     1      14.446   9.012  19.385  0.00  0.00    -0.302 NA
ATOM     26  H   UNL     1      14.859   9.844  19.804  0.00  0.00    +0.123 HD
BRANCH   4  11
ATOM     11  C   UNL     1      13.436   9.386  18.396  0.00  0.00    +0.118 C 
BRANCH  11  13
ATOM      1 CL   UNL     1      14.357   8.800  15.513  0.00  0.00    -0.083 Cl
ATOM     13  C   UNL     1      13.869  10.540  17.552  0.00  0.00    -0.015 A 
ATOM     16  C   UNL     1      14.301  10.366  16.237  0.00  0.00    +0.045 A 
ATOM     17  C   UNL     1      13.834  11.818  18.110  0.00  0.00    +0.006 A 
ATOM     19  C   UNL     1      14.697  11.469  15.481  0.00  0.00    +0.020 A 
ATOM     20  C   UNL     1      14.230  12.922  17.354  0.00  0.00    +0.000 A 
ATOM     21  C   UNL     1      14.662  12.747  16.039  0.00  0.00    +0.001 A 
ENDBRANCH  11  13
ENDBRANCH   4  11
ENDBRANCH   7   4
BRANCH   7  10
ATOM     10  C   UNL     1      12.370   8.069  20.333  0.00  0.00    +0.085 C 
BRANCH  10  12
ATOM      3  O   UNL     1      10.935   9.449  23.349  0.00  0.00    -0.353 OA
ATOM      5  N   UNL     1      11.293   8.382  22.534  0.00  0.00    -0.083 NA
ATOM     12  C   UNL     1      11.851   8.943  21.457  0.00  0.00    +0.086 A 
ATOM     14  C   UNL     1      11.874  10.346  21.536  0.00  0.00    +0.077 A 
ATOM     15  C   UNL     1      11.286  10.613  22.745  0.00  0.00    +0.186 A 
BRANCH  15  18
ATOM      6  N   UNL     1      10.705  12.884  22.700  0.00  0.00    -0.252 NA
ATOM     18  C   UNL     1      10.980  11.810  23.473  0.00  0.00    +0.109 A 
ATOM     22  C   UNL     1      10.978  11.829  24.858  0.00  0.00    +0.031 A 
ATOM     23  C   UNL     1      10.671  13.029  25.491  0.00  0.00    +0.004 A 
ATOM     24  C   UNL     1      10.411  14.032  23.351  0.00  0.00    +0.111 A 
ATOM     25  C   UNL     1      10.382  14.156  24.730  0.00  0.00    +0.020 A 
ENDBRANCH  15  18
ENDBRANCH  10  12
ENDBRANCH   7  10
TORSDOF 6
ENDMDL
MODEL 6
REMARK VINA RESULT:      -5.9     23.238     24.947
REMARK  Name = 56775695
REMARK  6 active torsions:
REMARK  status: ('A' for Active; 'I' for Inactive)
REMARK    1  A    between atoms: N_4  and  C_7
REMARK    2  A    between atoms: N_4  and  C_11
REMARK    3  A    between atoms: C_7  and  C_10
REMARK    4  A    between atoms: C_10  and  C_12
REMARK    5  A    between atoms: C_11  and  C_13
REMARK    6  A    between atoms: C_15  and  C_18
REMARK                            x       y       z     vdW  Elec       q    Type
REMARK                         _______ _______ _______ _____ _____    ______ ____
ROOT
ATOM      2  O   UNL     1      10.949   5.538   8.859  0.00  0.00    -0.376 OA
ATOM      7  C   UNL     1       9.962   6.175   7.078  0.00  0.00    +0.072 C 
ATOM      8  C   UNL     1       9.569   5.766   8.492  0.00  0.00    +0.184 C 
ATOM      9  C   UNL     1      11.380   5.824   7.510  0.00  0.00    +0.184 C 
ENDROOT
BRANCH   7   4
ATOM      4  N   UNL     1       9.850   7.631   6.959  0.00  0.00    -0.302 NA
ATOM     26  H   UNL     1      10.245   8.169   7.728  0.00  0.00    +0.123 HD
BRANCH   4  11
ATOM     11  C   UNL     1       8.448   7.991   6.752  0.00  0.00    +0.118 C 
BRANCH  11  13
ATOM      1 CL   UNL     1       9.230  10.944   7.165  0.00  0.00    -0.083 Cl
ATOM     13  C   UNL     1       8.268   8.929   5.603  0.00  0.00    -0.015 A 
ATOM     16  C   UNL     1       8.596  10.281   5.703  0.00  0.00    +0.045 A 
ATOM     17  C   UNL     1       7.758   8.423   4.407  0.00  0.00    +0.006 A 
ATOM     19  C   UNL     1       8.414  11.126   4.608  0.00  0.00    +0.020 A 
ATOM     20  C   UNL     1       7.576   9.268   3.312  0.00  0.00    +0.000 A 
ATOM     21  C   UNL     1       7.904  10.620   3.413  0.00  0.00    +0.001 A 
ENDBRANCH  11  13
ENDBRANCH   4  11
ENDBRANCH   7   4
BRANCH   7  10
ATOM     10  C   UNL     1       9.354   5.448   5.916  0.00  0.00    +0.085 C 
BRANCH  10  12
ATOM      3  O   UNL     1      11.594   6.410   3.250  0.00  0.00    -0.353 OA
ATOM      5  N   UNL     1      10.868   6.680   4.404  0.00  0.00    -0.083 NA
ATOM     12  C   UNL     1      10.251   5.532   4.699  0.00  0.00    +0.086 A 
ATOM     14  C   UNL     1      10.547   4.514   3.777  0.00  0.00    +0.077 A 
ATOM     15  C   UNL     1      11.395   5.118   2.886  0.00  0.00    +0.186 A 
BRANCH  15  18
ATOM      6  N   UNL     1      11.888   5.470   0.621  0.00  0.00    -0.252 NA
ATOM     18  C   UNL     1      12.088   4.689   1.706  0.00  0.00    +0.109 A 
ATOM     22  C   UNL     1      12.889   3.559   1.711  0.00  0.00    +0.031 A 
ATOM     23  C   UNL     1      13.527   3.208   0.526  0.00  0.00    +0.004 A 
ATOM     24  C   UNL     1      12.524   5.098  -0.513  0.00  0.00    +0.111 A 
ATOM     25  C   UNL     1      13.346   3.987  -0.611  0.00  0.00    +0.020 A 
ENDBRANCH  15  18
ENDBRANCH  10  12
ENDBRANCH   7  10
TORSDOF 6
ENDMDL
MODEL 7
REMARK VINA RESULT:      -5.9      3.206      7.282
REMARK  Name = 56775695
REMARK  6 active torsions:
REMARK  status: ('A' for Active; 'I' for Inactive)
REMARK    1  A    between atoms: N_4  and  C_7
REMARK    2  A    between atoms: N_4  and  C_11
REMARK    3  A    between atoms: C_7  and  C_10
REMARK    4  A    between atoms: C_10  and  C_12
REMARK    5  A    between atoms: C_11  and  C_13
REMARK    6  A    between atoms: C_15  and  C_18
REMARK                            x       y       z     vdW  Elec       q    Type
REMARK                         _______ _______ _______ _____ _____    ______ ____
ROOT
ATOM      2  O   UNL     1      -3.016 -13.976  14.492  0.00  0.00    -0.376 OA
ATOM      7  C   UNL     1      -3.742 -12.012  14.903  0.00  0.00    +0.072 C 
ATOM      8  C   UNL     1      -2.462 -12.646  14.370  0.00  0.00    +0.184 C 
ATOM      9  C   UNL     1      -4.220 -13.447  15.091  0.00  0.00    +0.184 C 
ENDROOT
BRANCH   7   4
ATOM      4  N   UNL     1      -4.474 -11.413  13.784  0.00  0.00    -0.302 NA
ATOM     26  H   UNL     1      -4.792 -12.060  13.066  0.00  0.00    +0.123 HD
BRANCH   4  11
ATOM     11  C   UNL     1      -3.661 -10.351  13.191  0.00  0.00    +0.118 C 
BRANCH  11  13
ATOM      1 CL   UNL     1      -1.545  -9.489  11.122  0.00  0.00    -0.083 Cl
ATOM     13  C   UNL     1      -4.133  -9.973  11.825  0.00  0.00    -0.015 A 
ATOM     16  C   UNL     1      -3.243  -9.571  10.828  0.00  0.00    +0.045 A 
ATOM     17  C   UNL     1      -5.500 -10.029  11.557  0.00  0.00    +0.006 A 
ATOM     19  C   UNL     1      -3.722  -9.226   9.564  0.00  0.00    +0.020 A 
ATOM     20  C   UNL     1      -5.979  -9.684  10.293  0.00  0.00    +0.000 A 
ATOM     21  C   UNL     1      -5.089  -9.282   9.296  0.00  0.00    +0.001 A 
ENDBRANCH  11  13
ENDBRANCH   4  11
ENDBRANCH   7   4
BRANCH   7  10
ATOM     10  C   UNL     1      -3.662 -11.109  16.097  0.00  0.00    +0.085 C 
BRANCH  10  12
ATOM      3  O   UNL     1      -6.806  -9.377  16.505  0.00  0.00    -0.353 OA
ATOM      5  N   UNL     1      -5.559  -9.540  15.914  0.00  0.00    -0.083 NA
ATOM     12  C   UNL     1      -5.039 -10.623  16.498  0.00  0.00    +0.086 A 
ATOM     14  C   UNL     1      -5.903 -11.181  17.455  0.00  0.00    +0.077 A 
ATOM     15  C   UNL     1      -7.000 -10.361  17.421  0.00  0.00    +0.186 A 
BRANCH  15  18
ATOM      6  N   UNL     1      -9.187  -9.524  17.556  0.00  0.00    -0.252 NA
ATOM     18  C   UNL     1      -8.254 -10.326  18.116  0.00  0.00    +0.109 A 
ATOM     22  C   UNL     1      -8.459 -11.068  19.268  0.00  0.00    +0.031 A 
ATOM     23  C   UNL     1      -9.703 -10.981  19.885  0.00  0.00    +0.004 A 
ATOM     24  C   UNL     1     -10.383  -9.466  18.183  0.00  0.00    +0.111 A 
ATOM     25  C   UNL     1     -10.689 -10.166  19.338  0.00  0.00    +0.020 A 
ENDBRANCH  15  18
ENDBRANCH  10  12
ENDBRANCH   7  10
TORSDOF 6
ENDMDL
MODEL 8
REMARK VINA RESULT:      -5.9      4.278      7.117
REMARK  Name = 56775695
REMARK  6 active torsions:
REMARK  status: ('A' for Active; 'I' for Inactive)
REMARK    1  A    between atoms: N_4  and  C_7
REMARK    2  A    between atoms: N_4  and  C_11
REMARK    3  A    between atoms: C_7  and  C_10
REMARK    4  A    between atoms: C_10  and  C_12
REMARK    5  A    between atoms: C_11  and  C_13
REMARK    6  A    between atoms: C_15  and  C_18
REMARK                            x       y       z     vdW  Elec       q    Type
REMARK                         _______ _______ _______ _____ _____    ______ ____
ROOT
ATOM      2  O   UNL     1      -8.800 -13.923  19.199  0.00  0.00    -0.376 OA
ATOM      7  C   UNL     1      -8.195 -11.889  18.975  0.00  0.00    +0.072 C 
ATOM      8  C   UNL     1      -7.845 -13.238  18.357  0.00  0.00    +0.184 C 
ATOM      9  C   UNL     1      -9.110 -12.693  19.891  0.00  0.00    +0.184 C 
ENDROOT
BRANCH   7   4
ATOM      4  N   UNL     1      -9.019 -11.135  18.027  0.00  0.00    -0.302 NA
ATOM     26  H   UNL     1      -8.714 -11.162  17.056  0.00  0.00    +0.123 HD
BRANCH   4  11
ATOM     11  C   UNL     1      -9.137  -9.752  18.486  0.00  0.00    +0.118 C 
BRANCH  11  13
ATOM      1 CL   UNL     1     -12.175 -10.167  18.810  0.00  0.00    -0.083 Cl
ATOM     13  C   UNL     1     -10.050  -8.944  17.622  0.00  0.00    -0.015 A 
ATOM     16  C   UNL     1     -11.437  -9.069  17.703  0.00  0.00    +0.045 A 
ATOM     17  C   UNL     1      -9.483  -8.047  16.716  0.00  0.00    +0.006 A 
ATOM     19  C   UNL     1     -12.256  -8.296  16.879  0.00  0.00    +0.020 A 
ATOM     20  C   UNL     1     -10.301  -7.274  15.893  0.00  0.00    +0.000 A 
ATOM     21  C   UNL     1     -11.689  -7.399  15.974  0.00  0.00    +0.001 A 
ENDBRANCH  11  13
ENDBRANCH   4  11
ENDBRANCH   7   4
BRANCH   7  10
ATOM     10  C   UNL     1      -7.101 -11.063  19.581  0.00  0.00    +0.085 C 
BRANCH  10  12
ATOM      3  O   UNL     1      -3.814 -11.691  18.220  0.00  0.00    -0.353 OA
ATOM      5  N   UNL     1      -4.777 -11.812  19.215  0.00  0.00    -0.083 NA
ATOM     12  C   UNL     1      -5.839 -11.147  18.750  0.00  0.00    +0.086 A 
ATOM     14  C   UNL     1      -5.607 -10.592  17.479  0.00  0.00    +0.077 A 
ATOM     15  C   UNL     1      -4.320 -10.964  17.192  0.00  0.00    +0.186 A 
BRANCH  15  18
ATOM      6  N   UNL     1      -4.045 -10.724  14.875  0.00  0.00    -0.252 NA
ATOM     18  C   UNL     1      -3.436 -10.756  16.081  0.00  0.00    +0.109 A 
ATOM     22  C   UNL     1      -2.071 -10.605  16.265  0.00  0.00    +0.031 A 
ATOM     23  C   UNL     1      -1.281 -10.407  15.139  0.00  0.00    +0.004 A 
ATOM     24  C   UNL     1      -3.245 -10.529  13.803  0.00  0.00    +0.111 A 
ATOM     25  C   UNL     1      -1.871 -10.368  13.880  0.00  0.00    +0.020 A 
ENDBRANCH  15  18
ENDBRANCH  10  12
ENDBRANCH   7  10
TORSDOF 6
ENDMDL
MODEL 9
REMARK VINA RESULT:      -5.8     25.007     28.863
REMARK  Name = 56775695
REMARK  6 active torsions:
REMARK  status: ('A' for Active; 'I' for Inactive)
REMARK    1  A    between atoms: N_4  and  C_7
REMARK    2  A    between atoms: N_4  and  C_11
REMARK    3  A    between atoms: C_7  and  C_10
REMARK    4  A    between atoms: C_10  and  C_12
REMARK    5  A    between atoms: C_11  and  C_13
REMARK    6  A    between atoms: C_15  and  C_18
REMARK                            x       y       z     vdW  Elec       q    Type
REMARK                         _______ _______ _______ _____ _____    ______ ____
ROOT
ATOM      2  O   UNL     1     -17.807   6.589  32.812  0.00  0.00    -0.376 OA
ATOM      7  C   UNL     1     -15.790   5.895  32.769  0.00  0.00    +0.072 C 
ATOM      8  C   UNL     1     -16.787   6.379  33.815  0.00  0.00    +0.184 C 
ATOM      9  C   UNL     1     -16.882   6.231  31.761  0.00  0.00    +0.184 C 
ENDROOT
BRANCH   7   4
ATOM      4  N   UNL     1     -15.670   4.438  32.869  0.00  0.00    -0.302 NA
ATOM     26  H   UNL     1     -15.600   4.063  33.813  0.00  0.00    +0.123 HD
BRANCH   4  11
ATOM     11  C   UNL     1     -14.539   3.991  32.057  0.00  0.00    +0.118 C 
BRANCH  11  13
ATOM      1 CL   UNL     1     -14.453   1.402  33.729  0.00  0.00    -0.083 Cl
ATOM     13  C   UNL     1     -14.817   2.699  31.360  0.00  0.00    -0.015 A 
ATOM     16  C   UNL     1     -14.799   1.481  32.040  0.00  0.00    +0.045 A 
ATOM     17  C   UNL     1     -15.101   2.730  29.995  0.00  0.00    +0.006 A 
ATOM     19  C   UNL     1     -15.065   0.295  31.355  0.00  0.00    +0.020 A 
ATOM     20  C   UNL     1     -15.366   1.545  29.309  0.00  0.00    +0.000 A 
ATOM     21  C   UNL     1     -15.348   0.327  29.990  0.00  0.00    +0.001 A 
ENDBRANCH  11  13
ENDBRANCH   4  11
ENDBRANCH   7   4
BRANCH   7  10
ATOM     10  C   UNL     1     -14.462   6.582  32.660  0.00  0.00    +0.085 C 
BRANCH  10  12
ATOM      3  O   UNL     1     -13.214   6.258  36.035  0.00  0.00    -0.353 OA
ATOM      5  N   UNL     1     -13.864   5.762  34.911  0.00  0.00    -0.083 NA
ATOM     12  C   UNL     1     -13.835   6.763  34.026  0.00  0.00    +0.086 A 
ATOM     14  C   UNL     1     -13.186   7.903  34.530  0.00  0.00    +0.077 A 
ATOM     15  C   UNL     1     -12.814   7.533  35.796  0.00  0.00    +0.186 A 
BRANCH  15  18
ATOM      6  N   UNL     1     -10.944   7.608  37.209  0.00  0.00    -0.252 NA
ATOM     18  C   UNL     1     -12.121   8.181  36.872  0.00  0.00    +0.109 A 
ATOM     22  C   UNL     1     -12.645   9.302  37.494  0.00  0.00    +0.031 A 
ATOM     23  C   UNL     1     -11.912   9.873  38.530  0.00  0.00    +0.004 A 
ATOM     24  C   UNL     1     -10.260   8.190  38.219  0.00  0.00    +0.111 A 
ATOM     25  C   UNL     1     -10.696   9.312  38.905  0.00  0.00    +0.020 A 
ENDBRANCH  15  18
ENDBRANCH  10  12
ENDBRANCH   7  10
TORSDOF 6
ENDMDL
MODEL 10
REMARK VINA RESULT:      -5.7      3.038      8.181
REMARK  Name = 56775695
REMARK  6 active torsions:
REMARK  status: ('A' for Active; 'I' for Inactive)
REMARK    1  A    between atoms: N_4  and  C_7
REMARK    2  A    between atoms: N_4  and  C_11
REMARK    3  A    between atoms: C_7  and  C_10
REMARK    4  A    between atoms: C_10  and  C_12
REMARK    5  A    between atoms: C_11  and  C_13
REMARK    6  A    between atoms: C_15  and  C_18
REMARK                            x       y       z     vdW  Elec       q    Type
REMARK                         _______ _______ _______ _____ _____    ______ ____
ROOT
ATOM      2  O   UNL     1      -1.644  -9.395  11.088  0.00  0.00    -0.376 OA
ATOM      7  C   UNL     1      -3.499 -10.432  11.276  0.00  0.00    +0.072 C 
ATOM      8  C   UNL     1      -2.884  -9.395  10.344  0.00  0.00    +0.184 C 
ATOM      9  C   UNL     1      -2.200 -10.307  12.062  0.00  0.00    +0.184 C 
ENDROOT
BRANCH   7   4
ATOM      4  N   UNL     1      -3.516 -11.729  10.593  0.00  0.00    -0.302 NA
ATOM     26  H   UNL     1      -2.767 -11.884   9.921  0.00  0.00    +0.123 HD
BRANCH   4  11
ATOM     11  C   UNL     1      -4.820 -11.923   9.961  0.00  0.00    +0.118 C 
BRANCH  11  13
ATOM      1 CL   UNL     1      -6.121  -9.504   8.560  0.00  0.00    -0.083 Cl
ATOM     13  C   UNL     1      -4.742 -11.853   8.470  0.00  0.00    -0.015 A 
ATOM     16  C   UNL     1      -5.304 -10.794   7.756  0.00  0.00    +0.045 A 
ATOM     17  C   UNL     1      -4.088 -12.882   7.792  0.00  0.00    +0.006 A 
ATOM     19  C   UNL     1      -5.211 -10.764   6.365  0.00  0.00    +0.020 A 
ATOM     20  C   UNL     1      -3.995 -12.852   6.400  0.00  0.00    +0.000 A 
ATOM     21  C   UNL     1      -4.557 -11.793   5.687  0.00  0.00    +0.001 A 
ENDBRANCH  11  13
ENDBRANCH   4  11
ENDBRANCH   7   4
BRANCH   7  10
ATOM     10  C   UNL     1      -4.796 -10.117  11.958  0.00  0.00    +0.085 C 
BRANCH  10  12
ATOM      3  O   UNL     1      -4.784 -12.297  14.839  0.00  0.00    -0.353 OA
ATOM      5  N   UNL     1      -4.679 -12.063  13.473  0.00  0.00    -0.083 NA
ATOM     12  C   UNL     1      -4.847 -10.745  13.335  0.00  0.00    +0.086 A 
ATOM     14  C   UNL     1      -5.059 -10.101  14.566  0.00  0.00    +0.077 A 
ATOM     15  C   UNL     1      -5.010 -11.122  15.480  0.00  0.00    +0.186 A 
BRANCH  15  18
ATOM      6  N   UNL     1      -4.080 -11.760  17.535  0.00  0.00    -0.252 NA
ATOM     18  C   UNL     1      -5.138 -11.204  16.905  0.00  0.00    +0.109 A 
ATOM     22  C   UNL     1      -6.272 -10.742  17.554  0.00  0.00    +0.031 A 
ATOM     23  C   UNL     1      -6.321 -10.857  18.939  0.00  0.00    +0.004 A 
ATOM     24  C   UNL     1      -4.164 -11.855  18.881  0.00  0.00    +0.111 A 
ATOM     25  C   UNL     1      -5.251 -11.423  19.623  0.00  0.00    +0.020 A 
ENDBRANCH  15  18
ENDBRANCH  10  12
ENDBRANCH   7  10
TORSDOF 6
ENDMDL
