MODEL 1
REMARK VINA RESULT:      -8.8      0.000      0.000
REMARK  Name = 40776931
REMARK  7 active torsions:
REMARK  status: ('A' for Active; 'I' for Inactive)
REMARK    1  A    between atoms: N_4  and  C_15
REMARK    2  A    between atoms: N_7  and  C_23
REMARK    3  A    between atoms: C_9  and  C_16
REMARK    4  A    between atoms: C_10  and  C_15
REMARK    5  A    between atoms: C_18  and  C_21
REMARK    6  A    between atoms: C_19  and  C_22
REMARK    7  A    between atoms: C_23  and  C_28
REMARK                            x       y       z     vdW  Elec       q    Type
REMARK                         _______ _______ _______ _____ _____    ______ ____
ROOT
ATOM      3  N   UNL     1     -18.600   2.981  26.764  0.00  0.00    -0.297 NA
ATOM      8  C   UNL     1     -17.216   0.776  26.702  0.00  0.00    +0.002 C 
ATOM      9  C   UNL     1     -17.408   1.256  28.167  0.00  0.00    +0.055 C 
ATOM     10  C   UNL     1     -17.487   3.107  25.786  0.00  0.00    +0.074 C 
ATOM     11  C   UNL     1     -16.537   1.894  25.884  0.00  0.00    +0.024 C 
ATOM     12  C   UNL     1     -18.628   0.574  26.110  0.00  0.00    +0.019 C 
ATOM     13  C   UNL     1     -18.060   2.667  28.110  0.00  0.00    +0.094 C 
ATOM     14  C   UNL     1     -19.457   1.851  26.335  0.00  0.00    +0.085 C 
ENDROOT
BRANCH   9  16
ATOM      5  N   UNL     1     -15.330   0.203  28.912  0.00  0.00    -0.237 NA
ATOM      6  N   UNL     1     -14.035   1.076  30.748  0.00  0.00    -0.232 NA
ATOM     16  C   UNL     1     -16.208   1.211  29.102  0.00  0.00    +0.050 A 
ATOM     17  C   UNL     1     -16.070   2.175  30.078  0.00  0.00    +0.052 A 
ATOM     18  C   UNL     1     -14.953   2.057  30.881  0.00  0.00    +0.075 A 
ATOM     19  C   UNL     1     -14.282   0.197  29.758  0.00  0.00    +0.127 A 
ATOM     22  C   UNL     1     -13.290  -0.903  29.582  0.00  0.00    +0.088 C 
BRANCH  18  21
ATOM      1  F   UNL     1     -13.952   5.700  34.977  0.00  0.00    -0.205 F 
ATOM     21  C   UNL     1     -14.694   3.000  31.942  0.00  0.00    +0.001 A 
ATOM     24  C   UNL     1     -14.346   4.317  31.636  0.00  0.00    +0.013 A 
ATOM     25  C   UNL     1     -14.791   2.596  33.273  0.00  0.00    +0.013 A 
ATOM     26  C   UNL     1     -14.095   5.228  32.661  0.00  0.00    +0.039 A 
ATOM     27  C   UNL     1     -14.540   3.508  34.299  0.00  0.00    +0.039 A 
ATOM     29  C   UNL     1     -14.192   4.824  33.993  0.00  0.00    +0.123 A 
ENDBRANCH  18  21
ENDBRANCH   9  16
BRANCH  10  15
ATOM     15  C   UNL     1     -16.737   4.433  25.925  0.00  0.00    +0.124 C 
BRANCH  15   4
ATOM      2  O   UNL     1     -16.600   4.972  23.105  0.00  0.00    -0.253 OA
ATOM      4  N   UNL     1     -15.560   4.440  25.111  0.00  0.00    -0.298 N 
ATOM      7  N   UNL     1     -14.300   4.659  23.186  0.00  0.00    -0.295 N 
ATOM     20  C   UNL     1     -15.577   4.714  23.739  0.00  0.00    +0.300 C 
ATOM     35  H   UNL     1     -14.674   4.193  25.541  0.00  0.00    +0.150 HD
ATOM     36  H   UNL     1     -13.515   4.462  23.799  0.00  0.00    +0.151 HD
BRANCH   7  23
ATOM     23  C   UNL     1     -14.032   4.900  21.787  0.00  0.00    +0.141 C 
BRANCH  23  28
ATOM     28  C   UNL     1     -13.458   6.268  21.553  0.00  0.00    -0.030 A 
ATOM     30  C   UNL     1     -14.209   7.402  21.862  0.00  0.00    +0.005 A 
ATOM     31  C   UNL     1     -12.173   6.402  21.027  0.00  0.00    +0.005 A 
ATOM     32  C   UNL     1     -13.674   8.673  21.644  0.00  0.00    +0.000 A 
ATOM     33  C   UNL     1     -11.639   7.673  20.810  0.00  0.00    +0.000 A 
ATOM     34  C   UNL     1     -12.390   8.807  21.118  0.00  0.00    +0.000 A 
ENDBRANCH  23  28
ENDBRANCH   7  23
ENDBRANCH  15   4
ENDBRANCH  10  15
TORSDOF 6
ENDMDL
MODEL 2
REMARK VINA RESULT:      -8.4     18.927     21.653
REMARK  Name = 40776931
REMARK  7 active torsions:
REMARK  status: ('A' for Active; 'I' for Inactive)
REMARK    1  A    between atoms: N_4  and  C_15
REMARK    2  A    between atoms: N_7  and  C_23
REMARK    3  A    between atoms: C_9  and  C_16
REMARK    4  A    between atoms: C_10  and  C_15
REMARK    5  A    between atoms: C_18  and  C_21
REMARK    6  A    between atoms: C_19  and  C_22
REMARK    7  A    between atoms: C_23  and  C_28
REMARK                            x       y       z     vdW  Elec       q    Type
REMARK                         _______ _______ _______ _____ _____    ______ ____
ROOT
ATOM      3  N   UNL     1      -5.984 -11.662  11.002  0.00  0.00    -0.297 NA
ATOM      8  C   UNL     1      -4.067  -9.989  11.557  0.00  0.00    +0.002 C 
ATOM      9  C   UNL     1      -3.917 -11.286  12.399  0.00  0.00    +0.055 C 
ATOM     10  C   UNL     1      -6.551 -10.319  11.290  0.00  0.00    +0.074 C 
ATOM     11  C   UNL     1      -5.456  -9.368  11.821  0.00  0.00    +0.024 C 
ATOM     12  C   UNL     1      -4.035 -10.413  10.073  0.00  0.00    +0.019 C 
ATOM     13  C   UNL     1      -5.195 -12.141  12.164  0.00  0.00    +0.094 C 
ATOM     14  C   UNL     1      -5.068 -11.531   9.844  0.00  0.00    +0.085 C 
ENDROOT
BRANCH   9  16
ATOM      5  N   UNL     1      -2.340 -10.695  14.172  0.00  0.00    -0.237 NA
ATOM      6  N   UNL     1      -2.905 -10.885  16.508  0.00  0.00    -0.232 NA
ATOM     16  C   UNL     1      -3.576 -11.150  13.875  0.00  0.00    +0.050 A 
ATOM     17  C   UNL     1      -4.518 -11.487  14.825  0.00  0.00    +0.052 A 
ATOM     18  C   UNL     1      -4.123 -11.334  16.139  0.00  0.00    +0.075 A 
ATOM     19  C   UNL     1      -2.076 -10.588  15.489  0.00  0.00    +0.127 A 
ATOM     22  C   UNL     1      -0.719 -10.091  15.857  0.00  0.00    +0.088 C 
BRANCH  18  21
ATOM      1  F   UNL     1      -7.564 -12.574  20.343  0.00  0.00    -0.205 F 
ATOM     21  C   UNL     1      -5.014 -11.655  17.227  0.00  0.00    +0.001 A 
ATOM     24  C   UNL     1      -4.853 -11.035  18.468  0.00  0.00    +0.013 A 
ATOM     25  C   UNL     1      -6.036 -12.585  17.040  0.00  0.00    +0.013 A 
ATOM     26  C   UNL     1      -5.715 -11.346  19.519  0.00  0.00    +0.039 A 
ATOM     27  C   UNL     1      -6.898 -12.896  18.093  0.00  0.00    +0.039 A 
ATOM     29  C   UNL     1      -6.737 -12.276  19.332  0.00  0.00    +0.123 A 
ENDBRANCH  18  21
ENDBRANCH   9  16
BRANCH  10  15
ATOM     15  C   UNL     1      -7.755 -10.383  12.231  0.00  0.00    +0.124 C 
BRANCH  15   4
ATOM      2  O   UNL     1      -8.343 -11.169  14.933  0.00  0.00    -0.253 OA
ATOM      4  N   UNL     1      -7.520  -9.616  13.415  0.00  0.00    -0.298 N 
ATOM      7  N   UNL     1      -7.505  -9.134  15.676  0.00  0.00    -0.295 N 
ATOM     20  C   UNL     1      -7.836 -10.072  14.700  0.00  0.00    +0.300 C 
ATOM     35  H   UNL     1      -7.145  -8.678  13.317  0.00  0.00    +0.150 HD
ATOM     36  H   UNL     1      -7.066  -8.266  15.385  0.00  0.00    +0.151 HD
BRANCH   7  23
ATOM     23  C   UNL     1      -7.726  -9.350  17.087  0.00  0.00    +0.141 C 
BRANCH  23  28
ATOM     28  C   UNL     1      -9.183  -9.288  17.444  0.00  0.00    -0.030 A 
ATOM     30  C   UNL     1      -9.747 -10.280  18.246  0.00  0.00    +0.005 A 
ATOM     31  C   UNL     1      -9.972  -8.239  16.971  0.00  0.00    +0.005 A 
ATOM     32  C   UNL     1     -11.102 -10.222  18.577  0.00  0.00    +0.000 A 
ATOM     33  C   UNL     1     -11.326  -8.181  17.303  0.00  0.00    +0.000 A 
ATOM     34  C   UNL     1     -11.890  -9.173  18.105  0.00  0.00    +0.000 A 
ENDBRANCH  23  28
ENDBRANCH   7  23
ENDBRANCH  15   4
ENDBRANCH  10  15
TORSDOF 6
ENDMDL
MODEL 3
REMARK VINA RESULT:      -8.3     31.919     36.547
REMARK  Name = 40776931
REMARK  7 active torsions:
REMARK  status: ('A' for Active; 'I' for Inactive)
REMARK    1  A    between atoms: N_4  and  C_15
REMARK    2  A    between atoms: N_7  and  C_23
REMARK    3  A    between atoms: C_9  and  C_16
REMARK    4  A    between atoms: C_10  and  C_15
REMARK    5  A    between atoms: C_18  and  C_21
REMARK    6  A    between atoms: C_19  and  C_22
REMARK    7  A    between atoms: C_23  and  C_28
REMARK                            x       y       z     vdW  Elec       q    Type
REMARK                         _______ _______ _______ _____ _____    ______ ____
ROOT
ATOM      3  N   UNL     1      10.644   5.391   8.022  0.00  0.00    -0.297 NA
ATOM      8  C   UNL     1       9.260   7.381   7.071  0.00  0.00    +0.002 C 
ATOM      9  C   UNL     1       9.185   6.160   6.114  0.00  0.00    +0.055 C 
ATOM     10  C   UNL     1      11.465   6.631   8.032  0.00  0.00    +0.074 C 
ATOM     11  C   UNL     1      10.739   7.770   7.285  0.00  0.00    +0.024 C 
ATOM     12  C   UNL     1       8.713   6.914   8.436  0.00  0.00    +0.019 C 
ATOM     13  C   UNL     1      10.187   5.095   6.642  0.00  0.00    +0.094 C 
ATOM     14  C   UNL     1       9.448   5.631   8.864  0.00  0.00    +0.085 C 
ENDROOT
BRANCH   9  16
ATOM      5  N   UNL     1       8.687   7.476   4.114  0.00  0.00    -0.237 NA
ATOM      6  N   UNL     1       9.569   6.900   1.946  0.00  0.00    -0.232 NA
ATOM     16  C   UNL     1       9.336   6.406   4.620  0.00  0.00    +0.050 A 
ATOM     17  C   UNL     1      10.110   5.550   3.864  0.00  0.00    +0.052 A 
ATOM     18  C   UNL     1      10.191   5.848   2.519  0.00  0.00    +0.075 A 
ATOM     19  C   UNL     1       8.845   7.661   2.789  0.00  0.00    +0.127 A 
ATOM     22  C   UNL     1       8.141   8.832   2.191  0.00  0.00    +0.088 C 
BRANCH  18  21
ATOM      1  F   UNL     1      13.184   2.683  -0.956  0.00  0.00    -0.205 F 
ATOM     21  C   UNL     1      10.966   5.028   1.619  0.00  0.00    +0.001 A 
ATOM     24  C   UNL     1      12.099   4.359   2.085  0.00  0.00    +0.013 A 
ATOM     25  C   UNL     1      10.583   4.905   0.284  0.00  0.00    +0.013 A 
ATOM     26  C   UNL     1      12.848   3.568   1.215  0.00  0.00    +0.039 A 
ATOM     27  C   UNL     1      11.333   4.112  -0.587  0.00  0.00    +0.039 A 
ATOM     29  C   UNL     1      12.465   3.444  -0.121  0.00  0.00    +0.123 A 
ENDBRANCH  18  21
ENDBRANCH   9  16
BRANCH  10  15
ATOM     15  C   UNL     1      12.876   6.400   7.488  0.00  0.00    +0.124 C 
BRANCH  15   4
ATOM      2  O   UNL     1      15.084   7.285   5.874  0.00  0.00    -0.253 OA
ATOM      4  N   UNL     1      12.900   6.521   6.063  0.00  0.00    -0.298 N 
ATOM      7  N   UNL     1      13.779   6.985   3.976  0.00  0.00    -0.295 N 
ATOM     20  C   UNL     1      14.020   6.961   5.348  0.00  0.00    +0.300 C 
ATOM     35  H   UNL     1      12.049   6.319   5.546  0.00  0.00    +0.150 HD
ATOM     36  H   UNL     1      12.874   6.674   3.637  0.00  0.00    +0.151 HD
BRANCH   7  23
ATOM     23  C   UNL     1      14.767   7.400   3.008  0.00  0.00    +0.141 C 
BRANCH  23  28
ATOM     28  C   UNL     1      14.240   7.333   1.603  0.00  0.00    -0.030 A 
ATOM     30  C   UNL     1      14.907   6.574   0.643  0.00  0.00    +0.005 A 
ATOM     31  C   UNL     1      13.082   8.031   1.261  0.00  0.00    +0.005 A 
ATOM     32  C   UNL     1      14.417   6.512  -0.663  0.00  0.00    +0.000 A 
ATOM     33  C   UNL     1      12.591   7.970  -0.044  0.00  0.00    +0.000 A 
ATOM     34  C   UNL     1      13.259   7.210  -1.005  0.00  0.00    +0.000 A 
ENDBRANCH  23  28
ENDBRANCH   7  23
ENDBRANCH  15   4
ENDBRANCH  10  15
TORSDOF 6
ENDMDL
MODEL 4
REMARK VINA RESULT:      -8.2     20.141     22.746
REMARK  Name = 40776931
REMARK  7 active torsions:
REMARK  status: ('A' for Active; 'I' for Inactive)
REMARK    1  A    between atoms: N_4  and  C_15
REMARK    2  A    between atoms: N_7  and  C_23
REMARK    3  A    between atoms: C_9  and  C_16
REMARK    4  A    between atoms: C_10  and  C_15
REMARK    5  A    between atoms: C_18  and  C_21
REMARK    6  A    between atoms: C_19  and  C_22
REMARK    7  A    between atoms: C_23  and  C_28
REMARK                            x       y       z     vdW  Elec       q    Type
REMARK                         _______ _______ _______ _____ _____    ______ ____
ROOT
ATOM      3  N   UNL     1      -7.001 -10.255  18.599  0.00  0.00    -0.297 NA
ATOM      8  C   UNL     1      -6.362 -12.482  17.409  0.00  0.00    +0.002 C 
ATOM      9  C   UNL     1      -5.122 -11.552  17.524  0.00  0.00    +0.055 C 
ATOM     10  C   UNL     1      -7.964 -10.540  17.503  0.00  0.00    +0.074 C 
ATOM     11  C   UNL     1      -7.487 -11.740  16.657  0.00  0.00    +0.024 C 
ATOM     12  C   UNL     1      -6.867 -12.734  18.846  0.00  0.00    +0.019 C 
ATOM     13  C   UNL     1      -5.622 -10.178  18.055  0.00  0.00    +0.094 C 
ATOM     14  C   UNL     1      -7.057 -11.383  19.559  0.00  0.00    +0.085 C 
ENDROOT
BRANCH   9  16
ATOM      5  N   UNL     1      -2.997 -10.870  16.526  0.00  0.00    -0.237 NA
ATOM      6  N   UNL     1      -2.544 -11.123  14.172  0.00  0.00    -0.232 NA
ATOM     16  C   UNL     1      -4.216 -11.408  16.311  0.00  0.00    +0.050 A 
ATOM     17  C   UNL     1      -4.665 -11.822  15.073  0.00  0.00    +0.052 A 
ATOM     18  C   UNL     1      -3.778 -11.653  14.029  0.00  0.00    +0.075 A 
ATOM     19  C   UNL     1      -2.224 -10.759  15.428  0.00  0.00    +0.127 A 
ATOM     22  C   UNL     1      -0.869 -10.167  15.625  0.00  0.00    +0.088 C 
BRANCH  18  21
ATOM      1  F   UNL     1      -5.124 -13.159   8.836  0.00  0.00    -0.205 F 
ATOM     21  C   UNL     1      -4.126 -12.043  12.685  0.00  0.00    +0.001 A 
ATOM     24  C   UNL     1      -5.410 -12.514  12.405  0.00  0.00    +0.013 A 
ATOM     25  C   UNL     1      -3.180 -11.950  11.664  0.00  0.00    +0.013 A 
ATOM     26  C   UNL     1      -5.747 -12.891  11.105  0.00  0.00    +0.039 A 
ATOM     27  C   UNL     1      -3.518 -12.327  10.363  0.00  0.00    +0.039 A 
ATOM     29  C   UNL     1      -4.801 -12.798  10.084  0.00  0.00    +0.123 A 
ENDBRANCH  18  21
ENDBRANCH   9  16
BRANCH  10  15
ATOM     15  C   UNL     1      -8.246  -9.310  16.639  0.00  0.00    +0.124 C 
BRANCH  15   4
ATOM      2  O   UNL     1      -9.445  -9.298  14.027  0.00  0.00    -0.253 OA
ATOM      4  N   UNL     1      -7.565  -9.399  15.385  0.00  0.00    -0.298 N 
ATOM      7  N   UNL     1      -7.330  -9.484  13.087  0.00  0.00    -0.295 N 
ATOM     20  C   UNL     1      -8.225  -9.386  14.150  0.00  0.00    +0.300 C 
ATOM     35  H   UNL     1      -6.557  -9.521  15.390  0.00  0.00    +0.150 HD
ATOM     36  H   UNL     1      -6.336  -9.527  13.292  0.00  0.00    +0.151 HD
BRANCH   7  23
ATOM     23  C   UNL     1      -7.745  -9.495  11.703  0.00  0.00    +0.141 C 
BRANCH  23  28
ATOM     28  C   UNL     1      -6.581  -9.338  10.767  0.00  0.00    -0.030 A 
ATOM     30  C   UNL     1      -6.707  -9.712   9.429  0.00  0.00    +0.005 A 
ATOM     31  C   UNL     1      -5.375  -8.818  11.236  0.00  0.00    +0.005 A 
ATOM     32  C   UNL     1      -5.626  -9.566   8.559  0.00  0.00    +0.000 A 
ATOM     33  C   UNL     1      -4.294  -8.671  10.366  0.00  0.00    +0.000 A 
ATOM     34  C   UNL     1      -4.420  -9.046   9.028  0.00  0.00    +0.000 A 
ENDBRANCH  23  28
ENDBRANCH   7  23
ENDBRANCH  15   4
ENDBRANCH  10  15
TORSDOF 6
ENDMDL
MODEL 5
REMARK VINA RESULT:      -7.9     20.890     23.660
REMARK  Name = 40776931
REMARK  7 active torsions:
REMARK  status: ('A' for Active; 'I' for Inactive)
REMARK    1  A    between atoms: N_4  and  C_15
REMARK    2  A    between atoms: N_7  and  C_23
REMARK    3  A    between atoms: C_9  and  C_16
REMARK    4  A    between atoms: C_10  and  C_15
REMARK    5  A    between atoms: C_18  and  C_21
REMARK    6  A    between atoms: C_19  and  C_22
REMARK    7  A    between atoms: C_23  and  C_28
REMARK                            x       y       z     vdW  Elec       q    Type
REMARK                         _______ _______ _______ _____ _____    ______ ____
ROOT
ATOM      3  N   UNL     1      -6.438 -10.591  17.873  0.00  0.00    -0.297 NA
ATOM      8  C   UNL     1      -4.458 -12.264  17.624  0.00  0.00    +0.002 C 
ATOM      9  C   UNL     1      -4.205 -10.991  16.770  0.00  0.00    +0.055 C 
ATOM     10  C   UNL     1      -6.956 -11.948  17.555  0.00  0.00    +0.074 C 
ATOM     11  C   UNL     1      -5.797 -12.904  17.201  0.00  0.00    +0.024 C 
ATOM     12  C   UNL     1      -4.621 -11.795  19.086  0.00  0.00    +0.019 C 
ATOM     13  C   UNL     1      -5.507 -10.141  16.810  0.00  0.00    +0.094 C 
ATOM     14  C   UNL     1      -5.681 -10.680  19.144  0.00  0.00    +0.085 C 
ENDROOT
BRANCH   9  16
ATOM      5  N   UNL     1      -2.654 -12.038  15.196  0.00  0.00    -0.237 NA
ATOM      6  N   UNL     1      -2.677 -11.529  12.840  0.00  0.00    -0.232 NA
ATOM     16  C   UNL     1      -3.674 -11.168  15.355  0.00  0.00    +0.050 A 
ATOM     17  C   UNL     1      -4.241 -10.453  14.321  0.00  0.00    +0.052 A 
ATOM     18  C   UNL     1      -3.696 -10.675  13.072  0.00  0.00    +0.075 A 
ATOM     19  C   UNL     1      -2.210 -12.167  13.930  0.00  0.00    +0.127 A 
ATOM     22  C   UNL     1      -1.082 -13.118  13.714  0.00  0.00    +0.088 C 
BRANCH  18  21
ATOM      1  F   UNL     1      -5.631  -8.016   8.574  0.00  0.00    -0.205 F 
ATOM     21  C   UNL     1      -4.197  -9.987  11.907  0.00  0.00    +0.001 A 
ATOM     24  C   UNL     1      -3.385  -9.836  10.781  0.00  0.00    +0.013 A 
ATOM     25  C   UNL     1      -5.493  -9.471  11.906  0.00  0.00    +0.013 A 
ATOM     26  C   UNL     1      -3.870  -9.171   9.656  0.00  0.00    +0.039 A 
ATOM     27  C   UNL     1      -5.978  -8.805  10.779  0.00  0.00    +0.039 A 
ATOM     29  C   UNL     1      -5.166  -8.655   9.655  0.00  0.00    +0.123 A 
ENDBRANCH  18  21
ENDBRANCH   9  16
BRANCH  10  15
ATOM     15  C   UNL     1      -8.028 -11.922  16.463  0.00  0.00    +0.124 C 
BRANCH  15   4
ATOM      2  O   UNL     1      -8.937 -11.280  13.814  0.00  0.00    -0.253 OA
ATOM      4  N   UNL     1      -7.517 -12.444  15.234  0.00  0.00    -0.298 N 
ATOM      7  N   UNL     1      -7.344 -12.731  12.947  0.00  0.00    -0.295 N 
ATOM     20  C   UNL     1      -8.017 -12.080  13.979  0.00  0.00    +0.300 C 
ATOM     35  H   UNL     1      -6.786 -13.148  15.274  0.00  0.00    +0.150 HD
ATOM     36  H   UNL     1      -6.580 -13.355  13.185  0.00  0.00    +0.151 HD
BRANCH   7  23
ATOM     23  C   UNL     1      -7.660 -12.537  11.551  0.00  0.00    +0.141 C 
BRANCH  23  28
ATOM     28  C   UNL     1      -6.453 -12.705  10.673  0.00  0.00    -0.030 A 
ATOM     30  C   UNL     1      -6.451 -12.178   9.382  0.00  0.00    +0.005 A 
ATOM     31  C   UNL     1      -5.336 -13.390  11.150  0.00  0.00    +0.005 A 
ATOM     32  C   UNL     1      -5.329 -12.335   8.566  0.00  0.00    +0.000 A 
ATOM     33  C   UNL     1      -4.214 -13.546  10.335  0.00  0.00    +0.000 A 
ATOM     34  C   UNL     1      -4.212 -13.019   9.043  0.00  0.00    +0.000 A 
ENDBRANCH  23  28
ENDBRANCH   7  23
ENDBRANCH  15   4
ENDBRANCH  10  15
TORSDOF 6
ENDMDL
MODEL 6
REMARK VINA RESULT:      -7.9     20.281     23.344
REMARK  Name = 40776931
REMARK  7 active torsions:
REMARK  status: ('A' for Active; 'I' for Inactive)
REMARK    1  A    between atoms: N_4  and  C_15
REMARK    2  A    between atoms: N_7  and  C_23
REMARK    3  A    between atoms: C_9  and  C_16
REMARK    4  A    between atoms: C_10  and  C_15
REMARK    5  A    between atoms: C_18  and  C_21
REMARK    6  A    between atoms: C_19  and  C_22
REMARK    7  A    between atoms: C_23  and  C_28
REMARK                            x       y       z     vdW  Elec       q    Type
REMARK                         _______ _______ _______ _____ _____    ______ ____
ROOT
ATOM      3  N   UNL     1      -3.935  -8.939  10.093  0.00  0.00    -0.297 NA
ATOM      8  C   UNL     1      -5.441 -11.063  10.081  0.00  0.00    +0.002 C 
ATOM      9  C   UNL     1      -6.071  -9.955  10.969  0.00  0.00    +0.055 C 
ATOM     10  C   UNL     1      -3.116 -10.144  10.392  0.00  0.00    +0.074 C 
ATOM     11  C   UNL     1      -4.020 -11.379  10.593  0.00  0.00    +0.024 C 
ATOM     12  C   UNL     1      -5.291 -10.469   8.664  0.00  0.00    +0.019 C 
ATOM     13  C   UNL     1      -5.027  -8.808  11.088  0.00  0.00    +0.094 C 
ATOM     14  C   UNL     1      -4.547  -9.125   8.756  0.00  0.00    +0.085 C 
ENDROOT
BRANCH   9  16
ATOM      5  N   UNL     1      -7.703  -9.642  12.763  0.00  0.00    -0.237 NA
ATOM      6  N   UNL     1      -7.723 -11.027  14.736  0.00  0.00    -0.232 NA
ATOM     16  C   UNL     1      -6.647 -10.355  12.319  0.00  0.00    +0.050 A 
ATOM     17  C   UNL     1      -6.081 -11.403  13.016  0.00  0.00    +0.052 A 
ATOM     18  C   UNL     1      -6.666 -11.697  14.232  0.00  0.00    +0.075 A 
ATOM     19  C   UNL     1      -8.184 -10.026  13.961  0.00  0.00    +0.127 A 
ATOM     22  C   UNL     1      -9.351  -9.260  14.487  0.00  0.00    +0.088 C 
BRANCH  18  21
ATOM      1  F   UNL     1      -4.738 -15.834  17.428  0.00  0.00    -0.205 F 
ATOM     21  C   UNL     1      -6.166 -12.768  15.059  0.00  0.00    +0.001 A 
ATOM     24  C   UNL     1      -4.940 -13.365  14.764  0.00  0.00    +0.013 A 
ATOM     25  C   UNL     1      -6.910 -13.207  16.154  0.00  0.00    +0.013 A 
ATOM     26  C   UNL     1      -4.458 -14.401  15.564  0.00  0.00    +0.039 A 
ATOM     27  C   UNL     1      -6.427 -14.244  16.955  0.00  0.00    +0.039 A 
ATOM     29  C   UNL     1      -5.202 -14.840  16.660  0.00  0.00    +0.123 A 
ENDBRANCH  18  21
ENDBRANCH   9  16
BRANCH  10  15
ATOM     15  C   UNL     1      -2.172  -9.929  11.576  0.00  0.00    +0.124 C 
BRANCH  15   4
ATOM      2  O   UNL     1      -1.111  -9.663  14.234  0.00  0.00    -0.253 OA
ATOM      4  N   UNL     1      -2.727 -10.472  12.777  0.00  0.00    -0.298 N 
ATOM      7  N   UNL     1      -2.887 -10.925  15.038  0.00  0.00    -0.295 N 
ATOM     20  C   UNL     1      -2.147 -10.297  14.038  0.00  0.00    +0.300 C 
ATOM     35  H   UNL     1      -3.559 -11.051  12.707  0.00  0.00    +0.150 HD
ATOM     36  H   UNL     1      -3.744 -11.404  14.778  0.00  0.00    +0.151 HD
BRANCH   7  23
ATOM     23  C   UNL     1      -2.511 -10.902  16.433  0.00  0.00    +0.141 C 
BRANCH  23  28
ATOM     28  C   UNL     1      -3.708 -10.964  17.338  0.00  0.00    -0.030 A 
ATOM     30  C   UNL     1      -3.694 -11.797  18.456  0.00  0.00    +0.005 A 
ATOM     31  C   UNL     1      -4.833 -10.187  17.060  0.00  0.00    +0.005 A 
ATOM     32  C   UNL     1      -4.806 -11.855  19.297  0.00  0.00    +0.000 A 
ATOM     33  C   UNL     1      -5.944 -10.244  17.901  0.00  0.00    +0.000 A 
ATOM     34  C   UNL     1      -5.931 -11.079  19.019  0.00  0.00    +0.000 A 
ENDBRANCH  23  28
ENDBRANCH   7  23
ENDBRANCH  15   4
ENDBRANCH  10  15
TORSDOF 6
ENDMDL
MODEL 7
REMARK VINA RESULT:      -7.9     19.995     22.365
REMARK  Name = 40776931
REMARK  7 active torsions:
REMARK  status: ('A' for Active; 'I' for Inactive)
REMARK    1  A    between atoms: N_4  and  C_15
REMARK    2  A    between atoms: N_7  and  C_23
REMARK    3  A    between atoms: C_9  and  C_16
REMARK    4  A    between atoms: C_10  and  C_15
REMARK    5  A    between atoms: C_18  and  C_21
REMARK    6  A    between atoms: C_19  and  C_22
REMARK    7  A    between atoms: C_23  and  C_28
REMARK                            x       y       z     vdW  Elec       q    Type
REMARK                         _______ _______ _______ _____ _____    ______ ____
ROOT
ATOM      3  N   UNL     1      -9.888  -9.720  16.850  0.00  0.00    -0.297 NA
ATOM      8  C   UNL     1      -8.747 -11.420  18.460  0.00  0.00    +0.002 C 
ATOM      9  C   UNL     1      -7.754 -10.292  18.068  0.00  0.00    +0.055 C 
ATOM     10  C   UNL     1     -10.103 -11.107  16.360  0.00  0.00    +0.074 C 
ATOM     11  C   UNL     1      -9.265 -12.111  17.181  0.00  0.00    +0.024 C 
ATOM     12  C   UNL     1      -9.959 -10.735  19.128  0.00  0.00    +0.019 C 
ATOM     13  C   UNL     1      -8.435  -9.440  16.960  0.00  0.00    +0.094 C 
ATOM     14  C   UNL     1     -10.481  -9.620  18.205  0.00  0.00    +0.085 C 
ENDROOT
BRANCH   9  16
ATOM      5  N   UNL     1      -5.576 -11.217  18.688  0.00  0.00    -0.237 NA
ATOM      6  N   UNL     1      -3.765 -11.404  17.109  0.00  0.00    -0.232 NA
ATOM     16  C   UNL     1      -6.329 -10.683  17.703  0.00  0.00    +0.050 A 
ATOM     17  C   UNL     1      -5.877 -10.482  16.415  0.00  0.00    +0.052 A 
ATOM     18  C   UNL     1      -4.573 -10.864  16.173  0.00  0.00    +0.075 A 
ATOM     19  C   UNL     1      -4.322 -11.549  18.327  0.00  0.00    +0.127 A 
ATOM     22  C   UNL     1      -3.458 -12.141  19.388  0.00  0.00    +0.088 C 
BRANCH  18  21
ATOM      1  F   UNL     1      -2.281 -10.246  11.132  0.00  0.00    -0.205 F 
ATOM     21  C   UNL     1      -3.980 -10.704  14.868  0.00  0.00    +0.001 A 
ATOM     24  C   UNL     1      -2.592 -10.739  14.722  0.00  0.00    +0.013 A 
ATOM     25  C   UNL     1      -4.793 -10.515  13.750  0.00  0.00    +0.013 A 
ATOM     26  C   UNL     1      -2.019 -10.584  13.461  0.00  0.00    +0.039 A 
ATOM     27  C   UNL     1      -4.219 -10.360  12.488  0.00  0.00    +0.039 A 
ATOM     29  C   UNL     1      -2.832 -10.394  12.343  0.00  0.00    +0.123 A 
ENDBRANCH  18  21
ENDBRANCH   9  16
BRANCH  10  15
ATOM     15  C   UNL     1      -9.844 -11.242  14.858  0.00  0.00    +0.124 C 
BRANCH  15   4
ATOM      2  O   UNL     1      -8.131 -11.518  12.567  0.00  0.00    -0.253 OA
ATOM      4  N   UNL     1      -8.940 -12.318  14.590  0.00  0.00    -0.298 N 
ATOM      7  N   UNL     1      -7.349 -13.527  13.429  0.00  0.00    -0.295 N 
ATOM     20  C   UNL     1      -8.136 -12.378  13.446  0.00  0.00    +0.300 C 
ATOM     35  H   UNL     1      -8.911 -13.098  15.240  0.00  0.00    +0.150 HD
ATOM     36  H   UNL     1      -7.408 -14.167  14.216  0.00  0.00    +0.151 HD
BRANCH   7  23
ATOM     23  C   UNL     1      -6.427 -13.839  12.362  0.00  0.00    +0.141 C 
BRANCH  23  28
ATOM     28  C   UNL     1      -5.024 -14.017  12.865  0.00  0.00    -0.030 A 
ATOM     30  C   UNL     1      -3.954 -13.991  11.971  0.00  0.00    +0.005 A 
ATOM     31  C   UNL     1      -4.792 -14.208  14.227  0.00  0.00    +0.005 A 
ATOM     32  C   UNL     1      -2.649 -14.158  12.439  0.00  0.00    +0.000 A 
ATOM     33  C   UNL     1      -3.488 -14.374  14.695  0.00  0.00    +0.000 A 
ATOM     34  C   UNL     1      -2.417 -14.349  13.801  0.00  0.00    +0.000 A 
ENDBRANCH  23  28
ENDBRANCH   7  23
ENDBRANCH  15   4
ENDBRANCH  10  15
TORSDOF 6
ENDMDL
MODEL 8
REMARK VINA RESULT:      -7.8     19.775     22.721
REMARK  Name = 40776931
REMARK  7 active torsions:
REMARK  status: ('A' for Active; 'I' for Inactive)
REMARK    1  A    between atoms: N_4  and  C_15
REMARK    2  A    between atoms: N_7  and  C_23
REMARK    3  A    between atoms: C_9  and  C_16
REMARK    4  A    between atoms: C_10  and  C_15
REMARK    5  A    between atoms: C_18  and  C_21
REMARK    6  A    between atoms: C_19  and  C_22
REMARK    7  A    between atoms: C_23  and  C_28
REMARK                            x       y       z     vdW  Elec       q    Type
REMARK                         _______ _______ _______ _____ _____    ______ ____
ROOT
ATOM      3  N   UNL     1      -6.128 -10.250   9.519  0.00  0.00    -0.297 NA
ATOM      8  C   UNL     1      -4.041  -9.384  10.815  0.00  0.00    +0.002 C 
ATOM      9  C   UNL     1      -4.051 -10.937  10.776  0.00  0.00    +0.055 C 
ATOM     10  C   UNL     1      -6.542  -9.252  10.540  0.00  0.00    +0.074 C 
ATOM     11  C   UNL     1      -5.354  -8.882  11.454  0.00  0.00    +0.024 C 
ATOM     12  C   UNL     1      -4.037  -8.901   9.349  0.00  0.00    +0.019 C 
ATOM     13  C   UNL     1      -5.414 -11.376  10.171  0.00  0.00    +0.094 C 
ATOM     14  C   UNL     1      -5.187  -9.584   8.588  0.00  0.00    +0.085 C 
ENDROOT
BRANCH   9  16
ATOM      5  N   UNL     1      -2.940 -12.786  11.928  0.00  0.00    -0.237 NA
ATOM      6  N   UNL     1      -3.083 -13.084  14.315  0.00  0.00    -0.232 NA
ATOM     16  C   UNL     1      -3.717 -11.690  12.055  0.00  0.00    +0.050 A 
ATOM     17  C   UNL     1      -4.207 -11.234  13.262  0.00  0.00    +0.052 A 
ATOM     18  C   UNL     1      -3.855 -11.978  14.370  0.00  0.00    +0.075 A 
ATOM     19  C   UNL     1      -2.666 -13.426  13.081  0.00  0.00    +0.127 A 
ATOM     22  C   UNL     1      -1.812 -14.644  12.980  0.00  0.00    +0.088 C 
BRANCH  18  21
ATOM      1  F   UNL     1      -5.596 -10.553  19.467  0.00  0.00    -0.205 F 
ATOM     21  C   UNL     1      -4.306 -11.609  15.690  0.00  0.00    +0.001 A 
ATOM     24  C   UNL     1      -4.645 -10.284  15.966  0.00  0.00    +0.013 A 
ATOM     25  C   UNL     1      -4.402 -12.577  16.689  0.00  0.00    +0.013 A 
ATOM     26  C   UNL     1      -5.081  -9.928  17.242  0.00  0.00    +0.039 A 
ATOM     27  C   UNL     1      -4.838 -12.220  17.966  0.00  0.00    +0.039 A 
ATOM     29  C   UNL     1      -5.177 -10.895  18.242  0.00  0.00    +0.123 A 
ENDBRANCH  18  21
ENDBRANCH   9  16
BRANCH  10  15
ATOM     15  C   UNL     1      -7.759  -9.712  11.346  0.00  0.00    +0.124 C 
BRANCH  15   4
ATOM      2  O   UNL     1      -9.720  -9.554  13.441  0.00  0.00    -0.253 OA
ATOM      4  N   UNL     1      -7.505  -9.623  12.751  0.00  0.00    -0.298 N 
ATOM      7  N   UNL     1      -8.003  -9.472  15.002  0.00  0.00    -0.295 N 
ATOM     20  C   UNL     1      -8.520  -9.549  13.711  0.00  0.00    +0.300 C 
ATOM     35  H   UNL     1      -6.541  -9.566  13.065  0.00  0.00    +0.150 HD
ATOM     36  H   UNL     1      -6.996  -9.500  15.124  0.00  0.00    +0.151 HD
BRANCH   7  23
ATOM     23  C   UNL     1      -8.833  -9.386  16.182  0.00  0.00    +0.141 C 
BRANCH  23  28
ATOM     28  C   UNL     1      -8.688 -10.596  17.060  0.00  0.00    -0.030 A 
ATOM     30  C   UNL     1      -8.384 -11.835  16.496  0.00  0.00    +0.005 A 
ATOM     31  C   UNL     1      -8.858 -10.480  18.439  0.00  0.00    +0.005 A 
ATOM     32  C   UNL     1      -8.250 -12.959  17.312  0.00  0.00    +0.000 A 
ATOM     33  C   UNL     1      -8.724 -11.604  19.255  0.00  0.00    +0.000 A 
ATOM     34  C   UNL     1      -8.420 -12.843  18.691  0.00  0.00    +0.000 A 
ENDBRANCH  23  28
ENDBRANCH   7  23
ENDBRANCH  15   4
ENDBRANCH  10  15
TORSDOF 6
ENDMDL
MODEL 9
REMARK VINA RESULT:      -7.8     18.137     20.495
REMARK  Name = 40776931
REMARK  7 active torsions:
REMARK  status: ('A' for Active; 'I' for Inactive)
REMARK    1  A    between atoms: N_4  and  C_15
REMARK    2  A    between atoms: N_7  and  C_23
REMARK    3  A    between atoms: C_9  and  C_16
REMARK    4  A    between atoms: C_10  and  C_15
REMARK    5  A    between atoms: C_18  and  C_21
REMARK    6  A    between atoms: C_19  and  C_22
REMARK    7  A    between atoms: C_23  and  C_28
REMARK                            x       y       z     vdW  Elec       q    Type
REMARK                         _______ _______ _______ _____ _____    ______ ____
ROOT
ATOM      3  N   UNL     1      -5.396 -12.214  17.319  0.00  0.00    -0.297 NA
ATOM      8  C   UNL     1      -6.145 -11.005  19.500  0.00  0.00    +0.002 C 
ATOM      9  C   UNL     1      -7.269 -11.947  18.987  0.00  0.00    +0.055 C 
ATOM     10  C   UNL     1      -5.155 -10.752  17.197  0.00  0.00    +0.074 C 
ATOM     11  C   UNL     1      -5.779  -9.997  18.390  0.00  0.00    +0.024 C 
ATOM     12  C   UNL     1      -4.900 -11.884  19.741  0.00  0.00    +0.019 C 
ATOM     13  C   UNL     1      -6.831 -12.472  17.591  0.00  0.00    +0.094 C 
ATOM     14  C   UNL     1      -4.611 -12.710  18.475  0.00  0.00    +0.085 C 
ENDROOT
BRANCH   9  16
ATOM      5  N   UNL     1      -9.572 -12.057  19.802  0.00  0.00    -0.237 NA
ATOM      6  N   UNL     1     -11.280 -10.540  19.033  0.00  0.00    -0.232 NA
ATOM     16  C   UNL     1      -8.699 -11.427  18.988  0.00  0.00    +0.050 A 
ATOM     17  C   UNL     1      -9.036 -10.361  18.180  0.00  0.00    +0.052 A 
ATOM     18  C   UNL     1     -10.354  -9.956  18.244  0.00  0.00    +0.075 A 
ATOM     19  C   UNL     1     -10.827 -11.570  19.774  0.00  0.00    +0.127 A 
ATOM     22  C   UNL     1     -11.822 -12.242  20.658  0.00  0.00    +0.088 C 
BRANCH  18  21
ATOM      1  F   UNL     1     -12.210  -5.701  15.162  0.00  0.00    -0.205 F 
ATOM     21  C   UNL     1     -10.835  -8.854  17.446  0.00  0.00    +0.001 A 
ATOM     24  C   UNL     1     -12.180  -8.792  17.080  0.00  0.00    +0.013 A 
ATOM     25  C   UNL     1      -9.954  -7.851  17.040  0.00  0.00    +0.013 A 
ATOM     26  C   UNL     1     -12.644  -7.727  16.308  0.00  0.00    +0.039 A 
ATOM     27  C   UNL     1     -10.419  -6.786  16.268  0.00  0.00    +0.039 A 
ATOM     29  C   UNL     1     -11.764  -6.724  15.902  0.00  0.00    +0.123 A 
ENDBRANCH  18  21
ENDBRANCH   9  16
BRANCH  10  15
ATOM     15  C   UNL     1      -5.630 -10.193  15.855  0.00  0.00    +0.124 C 
BRANCH  15   4
ATOM      2  O   UNL     1      -4.927 -11.814  13.589  0.00  0.00    -0.253 OA
ATOM      4  N   UNL     1      -4.528  -9.989  14.967  0.00  0.00    -0.298 N 
ATOM      7  N   UNL     1      -3.126 -10.407  13.178  0.00  0.00    -0.295 N 
ATOM     20  C   UNL     1      -4.252 -10.828  13.881  0.00  0.00    +0.300 C 
ATOM     35  H   UNL     1      -3.888  -9.224  15.159  0.00  0.00    +0.150 HD
ATOM     36  H   UNL     1      -2.650  -9.564  13.484  0.00  0.00    +0.151 HD
BRANCH   7  23
ATOM     23  C   UNL     1      -2.619 -11.094  12.012  0.00  0.00    +0.141 C 
BRANCH  23  28
ATOM     28  C   UNL     1      -3.335 -10.677  10.759  0.00  0.00    -0.030 A 
ATOM     30  C   UNL     1      -3.335  -9.339  10.368  0.00  0.00    +0.005 A 
ATOM     31  C   UNL     1      -3.999 -11.630   9.988  0.00  0.00    +0.005 A 
ATOM     32  C   UNL     1      -4.001  -8.952   9.204  0.00  0.00    +0.000 A 
ATOM     33  C   UNL     1      -4.664 -11.244   8.823  0.00  0.00    +0.000 A 
ATOM     34  C   UNL     1      -4.665  -9.905   8.432  0.00  0.00    +0.000 A 
ENDBRANCH  23  28
ENDBRANCH   7  23
ENDBRANCH  15   4
ENDBRANCH  10  15
TORSDOF 6
ENDMDL
MODEL 10
REMARK VINA RESULT:      -7.8     19.005     23.155
REMARK  Name = 40776931
REMARK  7 active torsions:
REMARK  status: ('A' for Active; 'I' for Inactive)
REMARK    1  A    between atoms: N_4  and  C_15
REMARK    2  A    between atoms: N_7  and  C_23
REMARK    3  A    between atoms: C_9  and  C_16
REMARK    4  A    between atoms: C_10  and  C_15
REMARK    5  A    between atoms: C_18  and  C_21
REMARK    6  A    between atoms: C_19  and  C_22
REMARK    7  A    between atoms: C_23  and  C_28
REMARK                            x       y       z     vdW  Elec       q    Type
REMARK                         _______ _______ _______ _____ _____    ______ ____
ROOT
ATOM      3  N   UNL     1      -5.721  -9.650  11.087  0.00  0.00    -0.297 NA
ATOM      8  C   UNL     1      -6.598 -10.578   8.817  0.00  0.00    +0.002 C 
ATOM      9  C   UNL     1      -6.415  -9.037   8.741  0.00  0.00    +0.055 C 
ATOM     10  C   UNL     1      -6.898 -10.528  11.318  0.00  0.00    +0.074 C 
ATOM     11  C   UNL     1      -7.556 -10.920   9.978  0.00  0.00    +0.024 C 
ATOM     12  C   UNL     1      -5.220 -11.174   9.177  0.00  0.00    +0.019 C 
ATOM     13  C   UNL     1      -6.088  -8.538  10.176  0.00  0.00    +0.094 C 
ATOM     14  C   UNL     1      -4.672 -10.462  10.426  0.00  0.00    +0.085 C 
ENDROOT
BRANCH   9  16
ATOM      5  N   UNL     1      -7.635  -8.337   6.739  0.00  0.00    -0.237 NA
ATOM      6  N   UNL     1      -9.459  -6.765   6.832  0.00  0.00    -0.232 NA
ATOM     16  C   UNL     1      -7.511  -8.215   8.078  0.00  0.00    +0.050 A 
ATOM     17  C   UNL     1      -8.313  -7.401   8.852  0.00  0.00    +0.052 A 
ATOM     18  C   UNL     1      -9.280  -6.692   8.168  0.00  0.00    +0.075 A 
ATOM     19  C   UNL     1      -8.614  -7.594   6.190  0.00  0.00    +0.127 A 
ATOM     22  C   UNL     1      -8.781  -7.700   4.711  0.00  0.00    +0.088 C 
BRANCH  18  21
ATOM      1  F   UNL     1     -12.760  -3.258  10.841  0.00  0.00    -0.205 F 
ATOM     21  C   UNL     1     -10.181  -5.803   8.860  0.00  0.00    +0.001 A 
ATOM     24  C   UNL     1     -11.219  -6.324   9.634  0.00  0.00    +0.013 A 
ATOM     25  C   UNL     1     -10.015  -4.422   8.757  0.00  0.00    +0.013 A 
ATOM     26  C   UNL     1     -12.090  -5.465  10.302  0.00  0.00    +0.039 A 
ATOM     27  C   UNL     1     -10.886  -3.562   9.426  0.00  0.00    +0.039 A 
ATOM     29  C   UNL     1     -11.924  -4.084  10.199  0.00  0.00    +0.123 A 
ENDBRANCH  18  21
ENDBRANCH   9  16
BRANCH  10  15
ATOM     15  C   UNL     1      -7.906  -9.909  12.289  0.00  0.00    +0.124 C 
BRANCH  15   4
ATOM      2  O   UNL     1      -8.803 -10.477  14.960  0.00  0.00    -0.253 OA
ATOM      4  N   UNL     1      -7.267  -9.517  13.507  0.00  0.00    -0.298 N 
ATOM      7  N   UNL     1      -6.959  -9.336  15.791  0.00  0.00    -0.295 N 
ATOM     20  C   UNL     1      -7.771  -9.834  14.774  0.00  0.00    +0.300 C 
ATOM     35  H   UNL     1      -6.432  -8.942  13.452  0.00  0.00    +0.150 HD
ATOM     36  H   UNL     1      -6.112  -8.838  15.534  0.00  0.00    +0.151 HD
BRANCH   7  23
ATOM     23  C   UNL     1      -7.247  -9.520  17.194  0.00  0.00    +0.141 C 
BRANCH  23  28
ATOM     28  C   UNL     1      -6.207 -10.362  17.875  0.00  0.00    -0.030 A 
ATOM     30  C   UNL     1      -5.038 -10.710  17.198  0.00  0.00    +0.005 A 
ATOM     31  C   UNL     1      -6.410 -10.794  19.186  0.00  0.00    +0.005 A 
ATOM     32  C   UNL     1      -4.072 -11.492  17.831  0.00  0.00    +0.000 A 
ATOM     33  C   UNL     1      -5.443 -11.575  19.820  0.00  0.00    +0.000 A 
ATOM     34  C   UNL     1      -4.275 -11.925  19.142  0.00  0.00    +0.000 A 
ENDBRANCH  23  28
ENDBRANCH   7  23
ENDBRANCH  15   4
ENDBRANCH  10  15
TORSDOF 6
ENDMDL
