MODEL 1
REMARK VINA RESULT:      -6.5      0.000      0.000
REMARK  Name = 7134372
REMARK  13 active torsions:
REMARK  status: ('A' for Active; 'I' for Inactive)
REMARK    1  A    between atoms: S_1  and  N_12
REMARK    2  A    between atoms: S_1  and  C_24
REMARK    3  A    between atoms: S_2  and  C_23
REMARK    4  A    between atoms: S_2  and  C_30
REMARK    5  A    between atoms: O_9  and  C_37
REMARK    6  A    between atoms: N_12  and  C_15
REMARK    7  A    between atoms: N_13  and  C_22
REMARK    8  A    between atoms: C_17  and  C_20
REMARK    9  A    between atoms: C_21  and  C_23
REMARK   10  A    between atoms: C_22  and  C_25
REMARK   11  A    between atoms: C_22  and  C_26
REMARK   12  A    between atoms: C_25  and  C_27
REMARK   13  A    between atoms: C_30  and  C_37
REMARK                            x       y       z     vdW  Elec       q    Type
REMARK                         _______ _______ _______ _____ _____    ______ ____
ROOT
ATOM      5  O   UNL     1      11.665   6.333  20.178  0.00  0.00    -0.275 OA
ATOM     11  N   UNL     1      12.143   8.472  20.965  0.00  0.00    -0.289 N 
ATOM     15  C   UNL     1      11.378  10.725  22.646  0.00  0.00    +0.080 C 
ATOM     16  C   UNL     1      12.127  10.951  21.332  0.00  0.00    +0.052 C 
ATOM     17  C   UNL     1      12.914   9.723  20.870  0.00  0.00    +0.163 C 
ATOM     18  C   UNL     1      10.529   9.461  22.567  0.00  0.00    +0.039 C 
ATOM     19  C   UNL     1      11.389   8.257  22.206  0.00  0.00    +0.110 C 
ATOM     21  C   UNL     1      12.207   7.432  20.030  0.00  0.00    +0.226 C 
ENDROOT
BRANCH  17  20
ATOM      4  O   UNL     1      14.312  10.014  22.786  0.00  0.00    -0.274 OA
ATOM     13  N   UNL     1      15.107   8.762  20.992  0.00  0.00    -0.302 N 
ATOM     20  C   UNL     1      14.169   9.523  21.669  0.00  0.00    +0.234 C 
ATOM     39  H   UNL     1      14.859   8.360  20.092  0.00  0.00    +0.150 HD
BRANCH  13  22
ATOM     22  C   UNL     1      16.408   8.444  21.535  0.00  0.00    +0.163 C 
BRANCH  22  26
ATOM      8  O   UNL     1      17.708   6.401  21.333  0.00  0.00    -0.274 OA
ATOM     14  N   UNL     1      15.416   6.250  21.330  0.00  0.00    -0.328 N 
ATOM     26  C   UNL     1      16.606   6.944  21.374  0.00  0.00    +0.231 C 
ATOM     40  H   UNL     1      15.406   5.239  21.239  0.00  0.00    +0.145 HD
ATOM     41  H   UNL     1      14.513   6.710  21.389  0.00  0.00    +0.145 HD
ENDBRANCH  22  26
BRANCH  22  25
ATOM     25  C   UNL     1      17.533   9.210  20.829  0.00  0.00    +0.067 C 
BRANCH  25  27
ATOM     27  C   UNL     1      17.525  10.685  21.150  0.00  0.00    -0.045 A 
ATOM     32  C   UNL     1      17.033  11.599  20.220  0.00  0.00    +0.004 A 
ATOM     33  C   UNL     1      18.012  11.133  22.379  0.00  0.00    +0.004 A 
ATOM     34  C   UNL     1      17.026  12.962  20.517  0.00  0.00    +0.000 A 
ATOM     35  C   UNL     1      18.004  12.497  22.676  0.00  0.00    +0.000 A 
ATOM     36  C   UNL     1      17.512  13.410  21.745  0.00  0.00    +0.000 A 
ENDBRANCH  25  27
ENDBRANCH  22  25
ENDBRANCH  13  22
ENDBRANCH  17  20
BRANCH  15  12
ATOM     12  N   UNL     1      10.503  11.892  22.916  0.00  0.00    -0.186 NA
ATOM     38  H   UNL     1       9.514  11.742  22.681  0.00  0.00    +0.148 HD
BRANCH  12   1
ATOM      1  S   UNL     1      10.801  12.800  24.335  0.00  0.00    +0.065 S 
ATOM      6  O   UNL     1      10.592  11.960  25.498  0.00  0.00    -0.153 OA
ATOM      7  O   UNL     1      10.151  14.090  24.210  0.00  0.00    -0.153 OA
BRANCH   1  24
ATOM      3  S   UNL     1      13.447  12.465  25.601  0.00  0.00    -0.077 S 
ATOM     24  C   UNL     1      12.547  13.207  24.348  0.00  0.00    +0.142 A 
ATOM     28  C   UNL     1      13.335  14.005  23.548  0.00  0.00    +0.036 A 
ATOM     29  C   UNL     1      14.695  14.008  23.970  0.00  0.00    +0.010 A 
ATOM     31  C   UNL     1      14.896  13.212  25.076  0.00  0.00    +0.047 A 
ENDBRANCH   1  24
ENDBRANCH  12   1
ENDBRANCH  15  12
BRANCH  21  23
ATOM     23  C   UNL     1      12.985   7.702  18.765  0.00  0.00    +0.165 C 
BRANCH  23   2
ATOM      2  S   UNL     1      11.859   8.455  17.582  0.00  0.00    -0.140 S 
BRANCH   2  30
ATOM     30  C   UNL     1      12.896   9.841  17.054  0.00  0.00    +0.189 C 
BRANCH  30  37
ATOM     10  O   UNL     1      13.189  10.630  14.795  0.00  0.00    -0.250 OA
ATOM     37  C   UNL     1      13.211   9.701  15.593  0.00  0.00    +0.315 C 
BRANCH  37   9
ATOM      9  O   UNL     1      13.542   8.430  15.247  0.00  0.00    -0.480 OA
ATOM     42  H   UNL     1      14.513   8.299  15.222  0.00  0.00    +0.295 HD
ENDBRANCH  37   9
ENDBRANCH  30  37
ENDBRANCH   2  30
ENDBRANCH  23   2
ENDBRANCH  21  23
TORSDOF 13
ENDMDL
MODEL 2
REMARK VINA RESULT:      -6.4     14.044     17.529
REMARK  Name = 7134372
REMARK  13 active torsions:
REMARK  status: ('A' for Active; 'I' for Inactive)
REMARK    1  A    between atoms: S_1  and  N_12
REMARK    2  A    between atoms: S_1  and  C_24
REMARK    3  A    between atoms: S_2  and  C_23
REMARK    4  A    between atoms: S_2  and  C_30
REMARK    5  A    between atoms: O_9  and  C_37
REMARK    6  A    between atoms: N_12  and  C_15
REMARK    7  A    between atoms: N_13  and  C_22
REMARK    8  A    between atoms: C_17  and  C_20
REMARK    9  A    between atoms: C_21  and  C_23
REMARK   10  A    between atoms: C_22  and  C_25
REMARK   11  A    between atoms: C_22  and  C_26
REMARK   12  A    between atoms: C_25  and  C_27
REMARK   13  A    between atoms: C_30  and  C_37
REMARK                            x       y       z     vdW  Elec       q    Type
REMARK                         _______ _______ _______ _____ _____    ______ ____
ROOT
ATOM      5  O   UNL     1      10.112   5.660   0.575  0.00  0.00    -0.275 OA
ATOM     11  N   UNL     1      10.946   6.257   2.665  0.00  0.00    -0.289 N 
ATOM     15  C   UNL     1      11.780   8.367   4.494  0.00  0.00    +0.080 C 
ATOM     16  C   UNL     1      12.459   6.996   4.522  0.00  0.00    +0.052 C 
ATOM     17  C   UNL     1      11.588   5.882   3.937  0.00  0.00    +0.163 C 
ATOM     18  C   UNL     1      11.264   8.679   3.093  0.00  0.00    +0.039 C 
ATOM     19  C   UNL     1      10.321   7.584   2.611  0.00  0.00    +0.110 C 
ATOM     21  C   UNL     1      10.766   5.385   1.585  0.00  0.00    +0.226 C 
ENDROOT
BRANCH  17  20
ATOM      4  O   UNL     1       9.648   4.635   4.560  0.00  0.00    -0.274 OA
ATOM     13  N   UNL     1      10.547   6.153   6.079  0.00  0.00    -0.302 N 
ATOM     20  C   UNL     1      10.491   5.472   4.875  0.00  0.00    +0.234 C 
ATOM     39  H   UNL     1      11.324   6.786   6.252  0.00  0.00    +0.150 HD
BRANCH  13  22
ATOM     22  C   UNL     1       9.591   5.956   7.144  0.00  0.00    +0.163 C 
BRANCH  22  26
ATOM      8  O   UNL     1      10.865   5.626   9.187  0.00  0.00    -0.274 OA
ATOM     14  N   UNL     1      10.146   3.777   8.030  0.00  0.00    -0.328 N 
ATOM     26  C   UNL     1      10.284   5.135   8.222  0.00  0.00    +0.231 C 
ATOM     40  H   UNL     1      10.549   3.115   8.685  0.00  0.00    +0.145 HD
ATOM     41  H   UNL     1       9.642   3.386   7.240  0.00  0.00    +0.145 HD
ENDBRANCH  22  26
BRANCH  22  25
ATOM     25  C   UNL     1       9.089   7.284   7.725  0.00  0.00    +0.067 C 
BRANCH  25  27
ATOM     27  C   UNL     1       8.760   8.299   6.657  0.00  0.00    -0.045 A 
ATOM     32  C   UNL     1       7.970   7.935   5.568  0.00  0.00    +0.004 A 
ATOM     33  C   UNL     1       9.248   9.602   6.762  0.00  0.00    +0.004 A 
ATOM     34  C   UNL     1       7.666   8.874   4.582  0.00  0.00    +0.000 A 
ATOM     35  C   UNL     1       8.943  10.541   5.775  0.00  0.00    +0.000 A 
ATOM     36  C   UNL     1       8.154  10.177   4.686  0.00  0.00    +0.000 A 
ENDBRANCH  25  27
ENDBRANCH  22  25
ENDBRANCH  13  22
ENDBRANCH  17  20
BRANCH  15  12
ATOM     12  N   UNL     1      12.758   9.405   4.903  0.00  0.00    -0.186 NA
ATOM     38  H   UNL     1      12.624  10.315   4.444  0.00  0.00    +0.148 HD
BRANCH  12   1
ATOM      1  S   UNL     1      13.218   9.460   6.550  0.00  0.00    +0.065 S 
ATOM      6  O   UNL     1      14.659   9.595   6.643  0.00  0.00    -0.153 OA
ATOM      7  O   UNL     1      12.511   8.418   7.268  0.00  0.00    -0.153 OA
BRANCH   1  24
ATOM      3  S   UNL     1      12.456  12.282   6.135  0.00  0.00    -0.077 S 
ATOM     24  C   UNL     1      12.550  10.975   7.237  0.00  0.00    +0.142 A 
ATOM     28  C   UNL     1      12.087  11.318   8.488  0.00  0.00    +0.036 A 
ATOM     29  C   UNL     1      11.649  12.673   8.542  0.00  0.00    +0.010 A 
ATOM     31  C   UNL     1      11.795  13.313   7.332  0.00  0.00    +0.047 A 
ENDBRANCH   1  24
ENDBRANCH  12   1
ENDBRANCH  15  12
BRANCH  21  23
ATOM     23  C   UNL     1      11.436   4.036   1.681  0.00  0.00    +0.165 C 
BRANCH  23   2
ATOM      2  S   UNL     1      12.671   3.945   0.377  0.00  0.00    -0.140 S 
BRANCH   2  30
ATOM     30  C   UNL     1      14.045   4.751   1.238  0.00  0.00    +0.189 C 
BRANCH  30  37
ATOM     10  O   UNL     1      16.021   3.833   0.208  0.00  0.00    -0.250 OA
ATOM     37  C   UNL     1      15.261   3.874   1.168  0.00  0.00    +0.315 C 
BRANCH  37   9
ATOM      9  O   UNL     1      15.443   3.138   2.294  0.00  0.00    -0.480 OA
ATOM     42  H   UNL     1      16.003   3.605   2.950  0.00  0.00    +0.295 HD
ENDBRANCH  37   9
ENDBRANCH  30  37
ENDBRANCH   2  30
ENDBRANCH  23   2
ENDBRANCH  21  23
TORSDOF 13
ENDMDL
MODEL 3
REMARK VINA RESULT:      -6.3     14.763     17.543
REMARK  Name = 7134372
REMARK  13 active torsions:
REMARK  status: ('A' for Active; 'I' for Inactive)
REMARK    1  A    between atoms: S_1  and  N_12
REMARK    2  A    between atoms: S_1  and  C_24
REMARK    3  A    between atoms: S_2  and  C_23
REMARK    4  A    between atoms: S_2  and  C_30
REMARK    5  A    between atoms: O_9  and  C_37
REMARK    6  A    between atoms: N_12  and  C_15
REMARK    7  A    between atoms: N_13  and  C_22
REMARK    8  A    between atoms: C_17  and  C_20
REMARK    9  A    between atoms: C_21  and  C_23
REMARK   10  A    between atoms: C_22  and  C_25
REMARK   11  A    between atoms: C_22  and  C_26
REMARK   12  A    between atoms: C_25  and  C_27
REMARK   13  A    between atoms: C_30  and  C_37
REMARK                            x       y       z     vdW  Elec       q    Type
REMARK                         _______ _______ _______ _____ _____    ______ ____
ROOT
ATOM      5  O   UNL     1      10.178   5.150   0.838  0.00  0.00    -0.275 OA
ATOM     11  N   UNL     1      10.902   6.013   2.875  0.00  0.00    -0.289 N 
ATOM     15  C   UNL     1      11.531   8.353   4.494  0.00  0.00    +0.080 C 
ATOM     16  C   UNL     1      12.301   7.044   4.681  0.00  0.00    +0.052 C 
ATOM     17  C   UNL     1      11.527   5.817   4.194  0.00  0.00    +0.163 C 
ATOM     18  C   UNL     1      11.039   8.483   3.056  0.00  0.00    +0.039 C 
ATOM     19  C   UNL     1      10.190   7.281   2.667  0.00  0.00    +0.110 C 
ATOM     21  C   UNL     1      10.817   5.026   1.886  0.00  0.00    +0.226 C 
ENDROOT
BRANCH  17  20
ATOM      4  O   UNL     1       9.595   4.575   4.851  0.00  0.00    -0.274 OA
ATOM     13  N   UNL     1      10.480   6.145   6.325  0.00  0.00    -0.302 N 
ATOM     20  C   UNL     1      10.431   5.427   5.142  0.00  0.00    +0.234 C 
ATOM     39  H   UNL     1      11.251   6.789   6.479  0.00  0.00    +0.150 HD
BRANCH  13  22
ATOM     22  C   UNL     1       9.523   5.974   7.394  0.00  0.00    +0.163 C 
BRANCH  22  26
ATOM      8  O   UNL     1      10.564   5.410   9.516  0.00  0.00    -0.274 OA
ATOM     14  N   UNL     1      10.176   3.727   8.001  0.00  0.00    -0.328 N 
ATOM     26  C   UNL     1      10.156   5.041   8.417  0.00  0.00    +0.231 C 
ATOM     40  H   UNL     1      10.559   2.999   8.595  0.00  0.00    +0.145 HD
ATOM     41  H   UNL     1       9.813   3.434   7.100  0.00  0.00    +0.145 HD
ENDBRANCH  22  26
BRANCH  22  25
ATOM     25  C   UNL     1       9.142   7.306   8.050  0.00  0.00    +0.067 C 
BRANCH  25  27
ATOM     27  C   UNL     1       8.871   8.396   7.041  0.00  0.00    -0.045 A 
ATOM     32  C   UNL     1       9.410   9.668   7.228  0.00  0.00    +0.004 A 
ATOM     33  C   UNL     1       8.080   8.130   5.923  0.00  0.00    +0.004 A 
ATOM     34  C   UNL     1       9.160  10.676   6.295  0.00  0.00    +0.000 A 
ATOM     35  C   UNL     1       7.829   9.138   4.991  0.00  0.00    +0.000 A 
ATOM     36  C   UNL     1       8.369  10.410   5.177  0.00  0.00    +0.000 A 
ENDBRANCH  25  27
ENDBRANCH  22  25
ENDBRANCH  13  22
ENDBRANCH  17  20
BRANCH  15  12
ATOM     12  N   UNL     1      12.422   9.494   4.818  0.00  0.00    -0.186 NA
ATOM     38  H   UNL     1      12.122  10.391   4.415  0.00  0.00    +0.148 HD
BRANCH  12   1
ATOM      1  S   UNL     1      13.079   9.569   6.396  0.00  0.00    +0.065 S 
ATOM      6  O   UNL     1      12.648   8.410   7.153  0.00  0.00    -0.153 OA
ATOM      7  O   UNL     1      12.907  10.913   6.910  0.00  0.00    -0.153 OA
BRANCH   1  24
ATOM      3  S   UNL     1      15.728  10.872   6.336  0.00  0.00    -0.077 S 
ATOM     24  C   UNL     1      14.857   9.401   6.238  0.00  0.00    +0.142 A 
ATOM     28  C   UNL     1      15.689   8.319   6.050  0.00  0.00    +0.036 A 
ATOM     29  C   UNL     1      17.059   8.703   5.986  0.00  0.00    +0.010 A 
ATOM     31  C   UNL     1      17.223  10.063   6.127  0.00  0.00    +0.047 A 
ENDBRANCH   1  24
ENDBRANCH  12   1
ENDBRANCH  15  12
BRANCH  21  23
ATOM     23  C   UNL     1      11.573   3.744   2.138  0.00  0.00    +0.165 C 
BRANCH  23   2
ATOM      2  S   UNL     1      12.790   3.562   0.826  0.00  0.00    -0.140 S 
BRANCH   2  30
ATOM     30  C   UNL     1      14.247   4.172   1.711  0.00  0.00    +0.189 C 
BRANCH  30  37
ATOM     10  O   UNL     1      13.798   6.425   0.982  0.00  0.00    -0.250 OA
ATOM     37  C   UNL     1      14.610   5.534   1.193  0.00  0.00    +0.315 C 
BRANCH  37   9
ATOM      9  O   UNL     1      15.946   5.682   0.998  0.00  0.00    -0.480 OA
ATOM     42  H   UNL     1      16.167   5.795   0.050  0.00  0.00    +0.295 HD
ENDBRANCH  37   9
ENDBRANCH  30  37
ENDBRANCH   2  30
ENDBRANCH  23   2
ENDBRANCH  21  23
TORSDOF 13
ENDMDL
MODEL 4
REMARK VINA RESULT:      -6.1      2.868      5.979
REMARK  Name = 7134372
REMARK  13 active torsions:
REMARK  status: ('A' for Active; 'I' for Inactive)
REMARK    1  A    between atoms: S_1  and  N_12
REMARK    2  A    between atoms: S_1  and  C_24
REMARK    3  A    between atoms: S_2  and  C_23
REMARK    4  A    between atoms: S_2  and  C_30
REMARK    5  A    between atoms: O_9  and  C_37
REMARK    6  A    between atoms: N_12  and  C_15
REMARK    7  A    between atoms: N_13  and  C_22
REMARK    8  A    between atoms: C_17  and  C_20
REMARK    9  A    between atoms: C_21  and  C_23
REMARK   10  A    between atoms: C_22  and  C_25
REMARK   11  A    between atoms: C_22  and  C_26
REMARK   12  A    between atoms: C_25  and  C_27
REMARK   13  A    between atoms: C_30  and  C_37
REMARK                            x       y       z     vdW  Elec       q    Type
REMARK                         _______ _______ _______ _____ _____    ______ ____
ROOT
ATOM      5  O   UNL     1      18.703   8.571  20.368  0.00  0.00    -0.275 OA
ATOM     11  N   UNL     1      16.551   8.811  21.223  0.00  0.00    -0.289 N 
ATOM     15  C   UNL     1      14.308  10.567  21.838  0.00  0.00    +0.080 C 
ATOM     16  C   UNL     1      14.610   9.349  22.714  0.00  0.00    +0.052 C 
ATOM     17  C   UNL     1      15.414   8.270  21.986  0.00  0.00    +0.163 C 
ATOM     18  C   UNL     1      15.588  11.097  21.201  0.00  0.00    +0.039 C 
ATOM     19  C   UNL     1      16.287  10.002  20.405  0.00  0.00    +0.110 C 
ATOM     21  C   UNL     1      17.798   8.185  21.113  0.00  0.00    +0.226 C 
ENDROOT
BRANCH  17  20
ATOM      4  O   UNL     1      15.069   6.800  20.134  0.00  0.00    -0.274 OA
ATOM     13  N   UNL     1      13.216   7.675  21.239  0.00  0.00    -0.302 N 
ATOM     20  C   UNL     1      14.570   7.492  21.019  0.00  0.00    +0.234 C 
ATOM     39  H   UNL     1      12.916   8.229  22.037  0.00  0.00    +0.150 HD
BRANCH  13  22
ATOM     22  C   UNL     1      12.192   7.054  20.430  0.00  0.00    +0.163 C 
BRANCH  22  26
ATOM      8  O   UNL     1      10.308   7.098  21.964  0.00  0.00    -0.274 OA
ATOM     14  N   UNL     1      11.292   5.078  21.490  0.00  0.00    -0.328 N 
ATOM     26  C   UNL     1      11.174   6.447  21.384  0.00  0.00    +0.231 C 
ATOM     40  H   UNL     1      10.664   4.545  22.084  0.00  0.00    +0.145 HD
ATOM     41  H   UNL     1      11.998   4.550  20.986  0.00  0.00    +0.145 HD
ENDBRANCH  22  26
BRANCH  22  25
ATOM     25  C   UNL     1      11.511   8.054  19.488  0.00  0.00    +0.067 C 
BRANCH  25  27
ATOM     27  C   UNL     1      12.471   8.669  18.498  0.00  0.00    -0.045 A 
ATOM     32  C   UNL     1      12.796  10.022  18.591  0.00  0.00    +0.004 A 
ATOM     33  C   UNL     1      13.031   7.884  17.490  0.00  0.00    +0.004 A 
ATOM     34  C   UNL     1      13.683  10.590  17.676  0.00  0.00    +0.000 A 
ATOM     35  C   UNL     1      13.917   8.452  16.576  0.00  0.00    +0.000 A 
ATOM     36  C   UNL     1      14.243   9.805  16.668  0.00  0.00    +0.000 A 
ENDBRANCH  25  27
ENDBRANCH  22  25
ENDBRANCH  13  22
ENDBRANCH  17  20
BRANCH  15  12
ATOM     12  N   UNL     1      13.694  11.628  22.672  0.00  0.00    -0.186 NA
ATOM     38  H   UNL     1      14.371  12.272  23.102  0.00  0.00    +0.148 HD
BRANCH  12   1
ATOM      1  S   UNL     1      12.240  12.339  22.116  0.00  0.00    +0.065 S 
ATOM      6  O   UNL     1      11.304  11.294  21.749  0.00  0.00    -0.153 OA
ATOM      7  O   UNL     1      12.567  13.414  21.201  0.00  0.00    -0.153 OA
BRANCH   1  24
ATOM      3  S   UNL     1      11.204  12.191  24.877  0.00  0.00    -0.077 S 
ATOM     24  C   UNL     1      11.494  13.182  23.510  0.00  0.00    +0.142 A 
ATOM     28  C   UNL     1      11.096  14.484  23.722  0.00  0.00    +0.036 A 
ATOM     29  C   UNL     1      10.545  14.670  25.022  0.00  0.00    +0.010 A 
ATOM     31  C   UNL     1      10.543  13.504  25.755  0.00  0.00    +0.047 A 
ENDBRANCH   1  24
ENDBRANCH  12   1
ENDBRANCH  15  12
BRANCH  21  23
ATOM     23  C   UNL     1      18.029   6.971  21.980  0.00  0.00    +0.165 C 
BRANCH  23   2
ATOM      2  S   UNL     1      19.782   6.577  21.912  0.00  0.00    -0.140 S 
BRANCH   2  30
ATOM     30  C   UNL     1      19.738   5.339  20.591  0.00  0.00    +0.189 C 
BRANCH  30  37
ATOM     10  O   UNL     1      21.239   3.582  21.276  0.00  0.00    -0.250 OA
ATOM     37  C   UNL     1      21.028   4.570  20.585  0.00  0.00    +0.315 C 
BRANCH  37   9
ATOM      9  O   UNL     1      21.936   5.077  19.713  0.00  0.00    -0.480 OA
ATOM     42  H   UNL     1      21.761   4.789  18.793  0.00  0.00    +0.295 HD
ENDBRANCH  37   9
ENDBRANCH  30  37
ENDBRANCH   2  30
ENDBRANCH  23   2
ENDBRANCH  21  23
TORSDOF 13
ENDMDL
MODEL 5
REMARK VINA RESULT:      -6.0     28.083     30.711
REMARK  Name = 7134372
REMARK  13 active torsions:
REMARK  status: ('A' for Active; 'I' for Inactive)
REMARK    1  A    between atoms: S_1  and  N_12
REMARK    2  A    between atoms: S_1  and  C_24
REMARK    3  A    between atoms: S_2  and  C_23
REMARK    4  A    between atoms: S_2  and  C_30
REMARK    5  A    between atoms: O_9  and  C_37
REMARK    6  A    between atoms: N_12  and  C_15
REMARK    7  A    between atoms: N_13  and  C_22
REMARK    8  A    between atoms: C_17  and  C_20
REMARK    9  A    between atoms: C_21  and  C_23
REMARK   10  A    between atoms: C_22  and  C_25
REMARK   11  A    between atoms: C_22  and  C_26
REMARK   12  A    between atoms: C_25  and  C_27
REMARK   13  A    between atoms: C_30  and  C_37
REMARK                            x       y       z     vdW  Elec       q    Type
REMARK                         _______ _______ _______ _____ _____    ______ ____
ROOT
ATOM      5  O   UNL     1      -1.580 -11.004  16.097  0.00  0.00    -0.275 OA
ATOM     11  N   UNL     1      -3.847 -11.520  16.197  0.00  0.00    -0.289 N 
ATOM     15  C   UNL     1      -6.160 -12.235  17.820  0.00  0.00    +0.080 C 
ATOM     16  C   UNL     1      -6.019 -12.758  16.389  0.00  0.00    +0.052 C 
ATOM     17  C   UNL     1      -5.102 -11.893  15.521  0.00  0.00    +0.163 C 
ATOM     18  C   UNL     1      -4.786 -12.001  18.441  0.00  0.00    +0.039 C 
ATOM     19  C   UNL     1      -3.962 -11.051  17.584  0.00  0.00    +0.110 C 
ATOM     21  C   UNL     1      -2.602 -11.443  15.563  0.00  0.00    +0.226 C 
ENDROOT
BRANCH  17  20
ATOM      4  O   UNL     1      -5.422  -9.526  15.550  0.00  0.00    -0.274 OA
ATOM     13  N   UNL     1      -6.785 -10.830  14.186  0.00  0.00    -0.302 N 
ATOM     20  C   UNL     1      -5.765 -10.615  15.098  0.00  0.00    +0.234 C 
ATOM     39  H   UNL     1      -6.946 -11.772  13.839  0.00  0.00    +0.150 HD
BRANCH  13  22
ATOM     22  C   UNL     1      -7.594  -9.765  13.639  0.00  0.00    +0.163 C 
BRANCH  22  26
ATOM      8  O   UNL     1      -7.884 -10.253  11.277  0.00  0.00    -0.274 OA
ATOM     14  N   UNL     1      -6.217  -8.802  11.902  0.00  0.00    -0.328 N 
ATOM     26  C   UNL     1      -7.261  -9.665  12.158  0.00  0.00    +0.231 C 
ATOM     40  H   UNL     1      -5.903  -8.633  10.952  0.00  0.00    +0.145 HD
ATOM     41  H   UNL     1      -5.728  -8.304  12.638  0.00  0.00    +0.145 HD
ENDBRANCH  22  26
BRANCH  22  25
ATOM     25  C   UNL     1      -9.094 -10.018  13.834  0.00  0.00    +0.067 C 
BRANCH  25  27
ATOM     27  C   UNL     1      -9.675  -9.226  14.980  0.00  0.00    -0.045 A 
ATOM     32  C   UNL     1      -8.932  -9.037  16.144  0.00  0.00    +0.004 A 
ATOM     33  C   UNL     1     -10.956  -8.684  14.873  0.00  0.00    +0.004 A 
ATOM     34  C   UNL     1      -9.469  -8.305  17.203  0.00  0.00    +0.000 A 
ATOM     35  C   UNL     1     -11.493  -7.951  15.932  0.00  0.00    +0.000 A 
ATOM     36  C   UNL     1     -10.750  -7.762  17.097  0.00  0.00    +0.000 A 
ENDBRANCH  25  27
ENDBRANCH  22  25
ENDBRANCH  13  22
ENDBRANCH  17  20
BRANCH  15  12
ATOM     12  N   UNL     1      -6.908 -13.226  18.631  0.00  0.00    -0.186 NA
ATOM     38  H   UNL     1      -6.320 -13.960  19.047  0.00  0.00    +0.148 HD
BRANCH  12   1
ATOM      1  S   UNL     1      -8.189 -12.653  19.609  0.00  0.00    +0.065 S 
ATOM      6  O   UNL     1      -7.808 -11.388  20.208  0.00  0.00    -0.153 OA
ATOM      7  O   UNL     1      -8.688 -13.749  20.415  0.00  0.00    -0.153 OA
BRANCH   1  24
ATOM      3  S   UNL     1     -10.791 -11.313  19.223  0.00  0.00    -0.077 S 
ATOM     24  C   UNL     1      -9.559 -12.271  18.519  0.00  0.00    +0.142 A 
ATOM     28  C   UNL     1      -9.838 -12.590  17.208  0.00  0.00    +0.036 A 
ATOM     29  C   UNL     1     -11.080 -12.042  16.777  0.00  0.00    +0.010 A 
ATOM     31  C   UNL     1     -11.703 -11.325  17.773  0.00  0.00    +0.047 A 
ENDBRANCH   1  24
ENDBRANCH  12   1
ENDBRANCH  15  12
BRANCH  21  23
ATOM     23  C   UNL     1      -2.529 -11.947  14.142  0.00  0.00    +0.165 C 
BRANCH  23   2
ATOM      2  S   UNL     1      -2.240 -10.529  13.074  0.00  0.00    -0.140 S 
BRANCH   2  30
ATOM     30  C   UNL     1      -3.020 -11.154  11.564  0.00  0.00    +0.189 C 
BRANCH  30  37
ATOM     10  O   UNL     1      -2.325  -9.154  10.413  0.00  0.00    -0.250 OA
ATOM     37  C   UNL     1      -3.161 -10.034  10.575  0.00  0.00    +0.315 C 
BRANCH  37   9
ATOM      9  O   UNL     1      -4.313 -10.107   9.860  0.00  0.00    -0.480 OA
ATOM     42  H   UNL     1      -4.302 -10.855   9.225  0.00  0.00    +0.295 HD
ENDBRANCH  37   9
ENDBRANCH  30  37
ENDBRANCH   2  30
ENDBRANCH  23   2
ENDBRANCH  21  23
TORSDOF 13
ENDMDL
MODEL 6
REMARK VINA RESULT:      -6.0     29.042     30.859
REMARK  Name = 7134372
REMARK  13 active torsions:
REMARK  status: ('A' for Active; 'I' for Inactive)
REMARK    1  A    between atoms: S_1  and  N_12
REMARK    2  A    between atoms: S_1  and  C_24
REMARK    3  A    between atoms: S_2  and  C_23
REMARK    4  A    between atoms: S_2  and  C_30
REMARK    5  A    between atoms: O_9  and  C_37
REMARK    6  A    between atoms: N_12  and  C_15
REMARK    7  A    between atoms: N_13  and  C_22
REMARK    8  A    between atoms: C_17  and  C_20
REMARK    9  A    between atoms: C_21  and  C_23
REMARK   10  A    between atoms: C_22  and  C_25
REMARK   11  A    between atoms: C_22  and  C_26
REMARK   12  A    between atoms: C_25  and  C_27
REMARK   13  A    between atoms: C_30  and  C_37
REMARK                            x       y       z     vdW  Elec       q    Type
REMARK                         _______ _______ _______ _____ _____    ______ ____
ROOT
ATOM      5  O   UNL     1     -12.829  -9.069  15.364  0.00  0.00    -0.275 OA
ATOM     11  N   UNL     1     -10.611  -9.365  16.003  0.00  0.00    -0.289 N 
ATOM     15  C   UNL     1      -8.707 -10.423  17.939  0.00  0.00    +0.080 C 
ATOM     16  C   UNL     1      -8.399  -9.142  17.161  0.00  0.00    +0.052 C 
ATOM     17  C   UNL     1      -9.184  -9.030  15.853  0.00  0.00    +0.163 C 
ATOM     18  C   UNL     1     -10.212 -10.586  18.124  0.00  0.00    +0.039 C 
ATOM     19  C   UNL     1     -10.925 -10.571  16.779  0.00  0.00    +0.110 C 
ATOM     21  C   UNL     1     -11.651  -8.704  15.340  0.00  0.00    +0.226 C 
ENDROOT
BRANCH  17  20
ATOM      4  O   UNL     1      -8.657 -11.155  14.896  0.00  0.00    -0.274 OA
ATOM     13  N   UNL     1      -8.106  -9.223  13.721  0.00  0.00    -0.302 N 
ATOM     20  C   UNL     1      -8.636  -9.932  14.786  0.00  0.00    +0.234 C 
ATOM     39  H   UNL     1      -8.192  -8.211  13.711  0.00  0.00    +0.150 HD
BRANCH  13  22
ATOM     22  C   UNL     1      -7.496  -9.857  12.574  0.00  0.00    +0.163 C 
BRANCH  22  26
ATOM      8  O   UNL     1      -9.105  -9.428  10.805  0.00  0.00    -0.274 OA
ATOM     14  N   UNL     1      -8.996 -11.539  11.702  0.00  0.00    -0.328 N 
ATOM     26  C   UNL     1      -8.618 -10.217  11.611  0.00  0.00    +0.231 C 
ATOM     40  H   UNL     1      -9.726 -11.914  11.105  0.00  0.00    +0.145 HD
ATOM     41  H   UNL     1      -8.568 -12.186  12.357  0.00  0.00    +0.145 HD
ENDBRANCH  22  26
BRANCH  22  25
ATOM     25  C   UNL     1      -6.472  -8.947  11.886  0.00  0.00    +0.067 C 
BRANCH  25  27
ATOM     27  C   UNL     1      -5.095  -9.562  11.821  0.00  0.00    -0.045 A 
ATOM     32  C   UNL     1      -4.683 -10.453  12.810  0.00  0.00    +0.004 A 
ATOM     33  C   UNL     1      -4.236  -9.238  10.771  0.00  0.00    +0.004 A 
ATOM     34  C   UNL     1      -3.410 -11.023  12.750  0.00  0.00    +0.000 A 
ATOM     35  C   UNL     1      -2.963  -9.807  10.711  0.00  0.00    +0.000 A 
ATOM     36  C   UNL     1      -2.551 -10.698  11.700  0.00  0.00    +0.000 A 
ENDBRANCH  25  27
ENDBRANCH  22  25
ENDBRANCH  13  22
ENDBRANCH  17  20
BRANCH  15  12
ATOM     12  N   UNL     1      -8.049 -10.358  19.267  0.00  0.00    -0.186 NA
ATOM     38  H   UNL     1      -8.681 -10.108  20.039  0.00  0.00    +0.148 HD
BRANCH  12   1
ATOM      1  S   UNL     1      -6.861 -11.535  19.627  0.00  0.00    +0.065 S 
ATOM      6  O   UNL     1      -7.475 -12.849  19.646  0.00  0.00    -0.153 OA
ATOM      7  O   UNL     1      -6.056 -11.063  20.736  0.00  0.00    -0.153 OA
BRANCH   1  24
ATOM      3  S   UNL     1      -5.596 -13.071  17.445  0.00  0.00    -0.077 S 
ATOM     24  C   UNL     1      -5.711 -11.565  18.253  0.00  0.00    +0.142 A 
ATOM     28  C   UNL     1      -4.883 -10.615  17.696  0.00  0.00    +0.036 A 
ATOM     29  C   UNL     1      -4.144 -11.131  16.593  0.00  0.00    +0.010 A 
ATOM     31  C   UNL     1      -4.435 -12.455  16.348  0.00  0.00    +0.047 A 
ENDBRANCH   1  24
ENDBRANCH  12   1
ENDBRANCH  15  12
BRANCH  21  23
ATOM     23  C   UNL     1     -11.283  -7.462  14.564  0.00  0.00    +0.165 C 
BRANCH  23   2
ATOM      2  S   UNL     1     -11.906  -6.043  15.477  0.00  0.00    -0.140 S 
BRANCH   2  30
ATOM     30  C   UNL     1     -13.406  -5.729  14.513  0.00  0.00    +0.189 C 
BRANCH  30  37
ATOM     10  O   UNL     1     -14.022  -4.037  12.911  0.00  0.00    -0.250 OA
ATOM     37  C   UNL     1     -13.144  -4.631  13.524  0.00  0.00    +0.315 C 
BRANCH  37   9
ATOM      9  O   UNL     1     -11.823  -4.349  13.392  0.00  0.00    -0.480 OA
ATOM     42  H   UNL     1     -11.286  -5.160  13.269  0.00  0.00    +0.295 HD
ENDBRANCH  37   9
ENDBRANCH  30  37
ENDBRANCH   2  30
ENDBRANCH  23   2
ENDBRANCH  21  23
TORSDOF 13
ENDMDL
MODEL 7
REMARK VINA RESULT:      -6.0      3.062      6.845
REMARK  Name = 7134372
REMARK  13 active torsions:
REMARK  status: ('A' for Active; 'I' for Inactive)
REMARK    1  A    between atoms: S_1  and  N_12
REMARK    2  A    between atoms: S_1  and  C_24
REMARK    3  A    between atoms: S_2  and  C_23
REMARK    4  A    between atoms: S_2  and  C_30
REMARK    5  A    between atoms: O_9  and  C_37
REMARK    6  A    between atoms: N_12  and  C_15
REMARK    7  A    between atoms: N_13  and  C_22
REMARK    8  A    between atoms: C_17  and  C_20
REMARK    9  A    between atoms: C_21  and  C_23
REMARK   10  A    between atoms: C_22  and  C_25
REMARK   11  A    between atoms: C_22  and  C_26
REMARK   12  A    between atoms: C_25  and  C_27
REMARK   13  A    between atoms: C_30  and  C_37
REMARK                            x       y       z     vdW  Elec       q    Type
REMARK                         _______ _______ _______ _____ _____    ______ ____
ROOT
ATOM      5  O   UNL     1      19.058   7.134  22.103  0.00  0.00    -0.275 OA
ATOM     11  N   UNL     1      17.174   8.144  21.181  0.00  0.00    -0.289 N 
ATOM     15  C   UNL     1      14.697   7.863  19.673  0.00  0.00    +0.080 C 
ATOM     16  C   UNL     1      15.535   9.139  19.567  0.00  0.00    +0.052 C 
ATOM     17  C   UNL     1      16.448   9.359  20.775  0.00  0.00    +0.163 C 
ATOM     18  C   UNL     1      15.587   6.664  19.982  0.00  0.00    +0.039 C 
ATOM     19  C   UNL     1      16.392   6.904  21.252  0.00  0.00    +0.110 C 
ATOM     21  C   UNL     1      18.497   8.130  21.640  0.00  0.00    +0.226 C 
ENDROOT
BRANCH  17  20
ATOM      4  O   UNL     1      14.870   9.123  22.553  0.00  0.00    -0.274 OA
ATOM     13  N   UNL     1      16.010  11.139  22.319  0.00  0.00    -0.302 N 
ATOM     20  C   UNL     1      15.689   9.836  21.978  0.00  0.00    +0.234 C 
ATOM     39  H   UNL     1      16.744  11.617  21.804  0.00  0.00    +0.150 HD
BRANCH  13  22
ATOM     22  C   UNL     1      15.401  11.840  23.426  0.00  0.00    +0.163 C 
BRANCH  22  26
ATOM      8  O   UNL     1      16.564  12.346  25.499  0.00  0.00    -0.274 OA
ATOM     14  N   UNL     1      17.541  12.958  23.512  0.00  0.00    -0.328 N 
ATOM     26  C   UNL     1      16.531  12.409  24.272  0.00  0.00    +0.231 C 
ATOM     40  H   UNL     1      18.363  13.361  23.952  0.00  0.00    +0.145 HD
ATOM     41  H   UNL     1      17.511  12.981  22.498  0.00  0.00    +0.145 HD
ENDBRANCH  22  26
BRANCH  22  25
ATOM     25  C   UNL     1      14.466  12.961  22.959  0.00  0.00    +0.067 C 
BRANCH  25  27
ATOM     27  C   UNL     1      13.075  12.838  23.532  0.00  0.00    -0.045 A 
ATOM     32  C   UNL     1      12.043  13.633  23.036  0.00  0.00    +0.004 A 
ATOM     33  C   UNL     1      12.823  11.929  24.560  0.00  0.00    +0.004 A 
ATOM     34  C   UNL     1      10.757  13.520  23.566  0.00  0.00    +0.000 A 
ATOM     35  C   UNL     1      11.537  11.815  25.090  0.00  0.00    +0.000 A 
ATOM     36  C   UNL     1      10.506  12.610  24.593  0.00  0.00    +0.000 A 
ENDBRANCH  25  27
ENDBRANCH  22  25
ENDBRANCH  13  22
ENDBRANCH  17  20
BRANCH  15  12
ATOM     12  N   UNL     1      13.988   7.637  18.389  0.00  0.00    -0.186 NA
ATOM     38  H   UNL     1      14.025   6.666  18.053  0.00  0.00    +0.148 HD
BRANCH  12   1
ATOM      1  S   UNL     1      12.508   8.457  18.141  0.00  0.00    +0.065 S 
ATOM      6  O   UNL     1      11.506   7.514  17.684  0.00  0.00    -0.153 OA
ATOM      7  O   UNL     1      12.771   9.687  17.419  0.00  0.00    -0.153 OA
BRANCH   1  24
ATOM      3  S   UNL     1      11.030   7.870  20.628  0.00  0.00    -0.077 S 
ATOM     24  C   UNL     1      11.938   9.021  19.744  0.00  0.00    +0.142 A 
ATOM     28  C   UNL     1      12.078  10.207  20.430  0.00  0.00    +0.036 A 
ATOM     29  C   UNL     1      11.430  10.170  21.699  0.00  0.00    +0.010 A 
ATOM     31  C   UNL     1      10.820   8.958  21.934  0.00  0.00    +0.047 A 
ENDBRANCH   1  24
ENDBRANCH  12   1
ENDBRANCH  15  12
BRANCH  21  23
ATOM     23  C   UNL     1      19.266   9.425  21.537  0.00  0.00    +0.165 C 
BRANCH  23   2
ATOM      2  S   UNL     1      20.974   9.082  21.982  0.00  0.00    -0.140 S 
BRANCH   2  30
ATOM     30  C   UNL     1      21.791   9.844  20.557  0.00  0.00    +0.189 C 
BRANCH  30  37
ATOM     10  O   UNL     1      23.390   8.999  18.965  0.00  0.00    -0.250 OA
ATOM     37  C   UNL     1      22.473   8.781  19.746  0.00  0.00    +0.315 C 
BRANCH  37   9
ATOM      9  O   UNL     1      21.974   7.540  19.982  0.00  0.00    -0.480 OA
ATOM     42  H   UNL     1      22.639   6.840  19.811  0.00  0.00    +0.295 HD
ENDBRANCH  37   9
ENDBRANCH  30  37
ENDBRANCH   2  30
ENDBRANCH  23   2
ENDBRANCH  21  23
TORSDOF 13
ENDMDL
MODEL 8
REMARK VINA RESULT:      -5.9     27.736     31.401
REMARK  Name = 7134372
REMARK  13 active torsions:
REMARK  status: ('A' for Active; 'I' for Inactive)
REMARK    1  A    between atoms: S_1  and  N_12
REMARK    2  A    between atoms: S_1  and  C_24
REMARK    3  A    between atoms: S_2  and  C_23
REMARK    4  A    between atoms: S_2  and  C_30
REMARK    5  A    between atoms: O_9  and  C_37
REMARK    6  A    between atoms: N_12  and  C_15
REMARK    7  A    between atoms: N_13  and  C_22
REMARK    8  A    between atoms: C_17  and  C_20
REMARK    9  A    between atoms: C_21  and  C_23
REMARK   10  A    between atoms: C_22  and  C_25
REMARK   11  A    between atoms: C_22  and  C_26
REMARK   12  A    between atoms: C_25  and  C_27
REMARK   13  A    between atoms: C_30  and  C_37
REMARK                            x       y       z     vdW  Elec       q    Type
REMARK                         _______ _______ _______ _____ _____    ______ ____
ROOT
ATOM      5  O   UNL     1      -3.822 -11.500  18.154  0.00  0.00    -0.275 OA
ATOM     11  N   UNL     1      -6.095 -11.563  17.656  0.00  0.00    -0.289 N 
ATOM     15  C   UNL     1      -8.845 -11.589  18.619  0.00  0.00    +0.080 C 
ATOM     16  C   UNL     1      -8.459 -12.331  17.337  0.00  0.00    +0.052 C 
ATOM     17  C   UNL     1      -7.183 -11.788  16.690  0.00  0.00    +0.163 C 
ATOM     18  C   UNL     1      -7.661 -11.530  19.579  0.00  0.00    +0.039 C 
ATOM     19  C   UNL     1      -6.456 -10.885  18.908  0.00  0.00    +0.110 C 
ATOM     21  C   UNL     1      -4.743 -11.813  17.395  0.00  0.00    +0.226 C 
ENDROOT
BRANCH  17  20
ATOM      4  O   UNL     1      -6.791  -9.468  16.277  0.00  0.00    -0.274 OA
ATOM     13  N   UNL     1      -8.409 -10.577  15.024  0.00  0.00    -0.302 N 
ATOM     20  C   UNL     1      -7.418 -10.483  15.986  0.00  0.00    +0.234 C 
ATOM     39  H   UNL     1      -8.824 -11.484  14.831  0.00  0.00    +0.150 HD
BRANCH  13  22
ATOM     22  C   UNL     1      -8.840  -9.456  14.221  0.00  0.00    +0.163 C 
BRANCH  22  26
ATOM      8  O   UNL     1      -8.594  -9.979  11.861  0.00  0.00    -0.274 OA
ATOM     14  N   UNL     1      -6.819  -9.028  12.966  0.00  0.00    -0.328 N 
ATOM     26  C   UNL     1      -8.096  -9.542  12.896  0.00  0.00    +0.231 C 
ATOM     40  H   UNL     1      -6.219  -9.011  12.148  0.00  0.00    +0.145 HD
ATOM     41  H   UNL     1      -6.430  -8.648  13.823  0.00  0.00    +0.145 HD
ENDBRANCH  22  26
BRANCH  22  25
ATOM     25  C   UNL     1     -10.355  -9.460  13.985  0.00  0.00    +0.067 C 
BRANCH  25  27
ATOM     27  C   UNL     1     -11.045  -8.269  14.605  0.00  0.00    -0.045 A 
ATOM     32  C   UNL     1     -10.448  -7.592  15.667  0.00  0.00    +0.004 A 
ATOM     33  C   UNL     1     -12.281  -7.847  14.114  0.00  0.00    +0.004 A 
ATOM     34  C   UNL     1     -11.086  -6.491  16.240  0.00  0.00    +0.000 A 
ATOM     35  C   UNL     1     -12.919  -6.746  14.687  0.00  0.00    +0.000 A 
ATOM     36  C   UNL     1     -12.322  -6.069  15.749  0.00  0.00    +0.000 A 
ENDBRANCH  25  27
ENDBRANCH  22  25
ENDBRANCH  13  22
ENDBRANCH  17  20
BRANCH  15  12
ATOM     12  N   UNL     1      -9.976 -12.295  19.270  0.00  0.00    -0.186 NA
ATOM     38  H   UNL     1      -9.701 -13.131  19.802  0.00  0.00    +0.148 HD
BRANCH  12   1
ATOM      1  S   UNL     1     -11.215 -11.343  19.966  0.00  0.00    +0.065 S 
ATOM      6  O   UNL     1     -10.655 -10.092  20.437  0.00  0.00    -0.153 OA
ATOM      7  O   UNL     1     -12.018 -12.183  20.832  0.00  0.00    -0.153 OA
BRANCH   1  24
ATOM      3  S   UNL     1     -13.984 -11.288  18.941  0.00  0.00    -0.077 S 
ATOM     24  C   UNL     1     -12.343 -10.895  18.647  0.00  0.00    +0.142 A 
ATOM     28  C   UNL     1     -12.169 -10.289  17.422  0.00  0.00    +0.036 A 
ATOM     29  C   UNL     1     -13.398 -10.147  16.716  0.00  0.00    +0.010 A 
ATOM     31  C   UNL     1     -14.465 -10.648  17.427  0.00  0.00    +0.047 A 
ENDBRANCH   1  24
ENDBRANCH  12   1
ENDBRANCH  15  12
BRANCH  21  23
ATOM     23  C   UNL     1      -4.419 -12.522  16.102  0.00  0.00    +0.165 C 
BRANCH  23   2
ATOM      2  S   UNL     1      -3.902 -11.278  14.911  0.00  0.00    -0.140 S 
BRANCH   2  30
ATOM     30  C   UNL     1      -2.138 -11.680  14.837  0.00  0.00    +0.189 C 
BRANCH  30  37
ATOM     10  O   UNL     1      -0.889  -9.639  15.122  0.00  0.00    -0.250 OA
ATOM     37  C   UNL     1      -1.360 -10.657  15.612  0.00  0.00    +0.315 C 
BRANCH  37   9
ATOM      9  O   UNL     1      -1.246 -10.971  16.928  0.00  0.00    -0.480 OA
ATOM     42  H   UNL     1      -2.073 -11.361  17.284  0.00  0.00    +0.295 HD
ENDBRANCH  37   9
ENDBRANCH  30  37
ENDBRANCH   2  30
ENDBRANCH  23   2
ENDBRANCH  21  23
TORSDOF 13
ENDMDL
MODEL 9
REMARK VINA RESULT:      -5.9     13.979     16.898
REMARK  Name = 7134372
REMARK  13 active torsions:
REMARK  status: ('A' for Active; 'I' for Inactive)
REMARK    1  A    between atoms: S_1  and  N_12
REMARK    2  A    between atoms: S_1  and  C_24
REMARK    3  A    between atoms: S_2  and  C_23
REMARK    4  A    between atoms: S_2  and  C_30
REMARK    5  A    between atoms: O_9  and  C_37
REMARK    6  A    between atoms: N_12  and  C_15
REMARK    7  A    between atoms: N_13  and  C_22
REMARK    8  A    between atoms: C_17  and  C_20
REMARK    9  A    between atoms: C_21  and  C_23
REMARK   10  A    between atoms: C_22  and  C_25
REMARK   11  A    between atoms: C_22  and  C_26
REMARK   12  A    between atoms: C_25  and  C_27
REMARK   13  A    between atoms: C_30  and  C_37
REMARK                            x       y       z     vdW  Elec       q    Type
REMARK                         _______ _______ _______ _____ _____    ______ ____
ROOT
ATOM      5  O   UNL     1      13.433   8.333   2.026  0.00  0.00    -0.275 OA
ATOM     11  N   UNL     1      12.943   8.129   4.292  0.00  0.00    -0.289 N 
ATOM     15  C   UNL     1      12.206   9.423   6.797  0.00  0.00    +0.080 C 
ATOM     16  C   UNL     1      13.099   8.180   6.793  0.00  0.00    +0.052 C 
ATOM     17  C   UNL     1      12.941   7.331   5.530  0.00  0.00    +0.163 C 
ATOM     18  C   UNL     1      12.392  10.219   5.509  0.00  0.00    +0.039 C 
ATOM     19  C   UNL     1      12.119   9.345   4.292  0.00  0.00    +0.110 C 
ATOM     21  C   UNL     1      13.546   7.727   3.095  0.00  0.00    +0.226 C 
ENDROOT
BRANCH  17  20
ATOM      4  O   UNL     1      11.297   5.896   4.558  0.00  0.00    -0.274 OA
ATOM     13  N   UNL     1      10.985   6.652   6.737  0.00  0.00    -0.302 N 
ATOM     20  C   UNL     1      11.666   6.540   5.537  0.00  0.00    +0.234 C 
ATOM     39  H   UNL     1      11.412   7.170   7.500  0.00  0.00    +0.150 HD
BRANCH  13  22
ATOM     22  C   UNL     1       9.718   6.004   6.991  0.00  0.00    +0.163 C 
BRANCH  22  26
ATOM      8  O   UNL     1       9.428   5.616   9.372  0.00  0.00    -0.274 OA
ATOM     14  N   UNL     1      10.497   4.014   8.121  0.00  0.00    -0.328 N 
ATOM     26  C   UNL     1       9.865   5.228   8.292  0.00  0.00    +0.231 C 
ATOM     40  H   UNL     1      10.647   3.390   8.907  0.00  0.00    +0.145 HD
ATOM     41  H   UNL     1      10.832   3.696   7.217  0.00  0.00    +0.145 HD
ENDBRANCH  22  26
BRANCH  22  25
ATOM     25  C   UNL     1       8.565   7.008   7.096  0.00  0.00    +0.067 C 
BRANCH  25  27
ATOM     27  C   UNL     1       8.433   7.876   5.868  0.00  0.00    -0.045 A 
ATOM     32  C   UNL     1       8.592   9.257   5.970  0.00  0.00    +0.004 A 
ATOM     33  C   UNL     1       8.152   7.295   4.631  0.00  0.00    +0.004 A 
ATOM     34  C   UNL     1       8.470  10.059   4.835  0.00  0.00    +0.000 A 
ATOM     35  C   UNL     1       8.030   8.097   3.496  0.00  0.00    +0.000 A 
ATOM     36  C   UNL     1       8.189   9.478   3.598  0.00  0.00    +0.000 A 
ENDBRANCH  25  27
ENDBRANCH  22  25
ENDBRANCH  13  22
ENDBRANCH  17  20
BRANCH  15  12
ATOM     12  N   UNL     1      12.558  10.274   7.960  0.00  0.00    -0.186 NA
ATOM     38  H   UNL     1      13.372  10.883   7.806  0.00  0.00    +0.148 HD
BRANCH  12   1
ATOM      1  S   UNL     1      11.277  10.956   8.865  0.00  0.00    +0.065 S 
ATOM      6  O   UNL     1      11.805  11.537  10.085  0.00  0.00    -0.153 OA
ATOM      7  O   UNL     1      10.173  10.016   8.894  0.00  0.00    -0.153 OA
BRANCH   1  24
ATOM      3  S   UNL     1      11.772  13.570   7.585  0.00  0.00    -0.077 S 
ATOM     24  C   UNL     1      10.634  12.335   7.918  0.00  0.00    +0.142 A 
ATOM     28  C   UNL     1       9.394  12.619   7.390  0.00  0.00    +0.036 A 
ATOM     29  C   UNL     1       9.378  13.868   6.704  0.00  0.00    +0.010 A 
ATOM     31  C   UNL     1      10.606  14.490   6.733  0.00  0.00    +0.047 A 
ENDBRANCH   1  24
ENDBRANCH  12   1
ENDBRANCH  15  12
BRANCH  21  23
ATOM     23  C   UNL     1      14.392   6.478   3.144  0.00  0.00    +0.165 C 
BRANCH  23   2
ATOM      2  S   UNL     1      14.667   5.936   1.452  0.00  0.00    -0.140 S 
BRANCH   2  30
ATOM     30  C   UNL     1      14.628   4.147   1.722  0.00  0.00    +0.189 C 
BRANCH  30  37
ATOM     10  O   UNL     1      12.301   3.718   2.177  0.00  0.00    -0.250 OA
ATOM     37  C   UNL     1      13.254   3.626   1.414  0.00  0.00    +0.315 C 
BRANCH  37   9
ATOM      9  O   UNL     1      13.173   3.052   0.187  0.00  0.00    -0.480 OA
ATOM     42  H   UNL     1      12.352   2.528   0.080  0.00  0.00    +0.295 HD
ENDBRANCH  37   9
ENDBRANCH  30  37
ENDBRANCH   2  30
ENDBRANCH  23   2
ENDBRANCH  21  23
TORSDOF 13
ENDMDL
MODEL 10
REMARK VINA RESULT:      -5.8     27.868     30.253
REMARK  Name = 7134372
REMARK  13 active torsions:
REMARK  status: ('A' for Active; 'I' for Inactive)
REMARK    1  A    between atoms: S_1  and  N_12
REMARK    2  A    between atoms: S_1  and  C_24
REMARK    3  A    between atoms: S_2  and  C_23
REMARK    4  A    between atoms: S_2  and  C_30
REMARK    5  A    between atoms: O_9  and  C_37
REMARK    6  A    between atoms: N_12  and  C_15
REMARK    7  A    between atoms: N_13  and  C_22
REMARK    8  A    between atoms: C_17  and  C_20
REMARK    9  A    between atoms: C_21  and  C_23
REMARK   10  A    between atoms: C_22  and  C_25
REMARK   11  A    between atoms: C_22  and  C_26
REMARK   12  A    between atoms: C_25  and  C_27
REMARK   13  A    between atoms: C_30  and  C_37
REMARK                            x       y       z     vdW  Elec       q    Type
REMARK                         _______ _______ _______ _____ _____    ______ ____
ROOT
ATOM      5  O   UNL     1      -6.200 -13.031   9.708  0.00  0.00    -0.275 OA
ATOM     11  N   UNL     1      -6.097 -11.632  11.565  0.00  0.00    -0.289 N 
ATOM     15  C   UNL     1      -7.508 -10.220  13.688  0.00  0.00    +0.080 C 
ATOM     16  C   UNL     1      -6.235  -9.634  13.073  0.00  0.00    +0.052 C 
ATOM     17  C   UNL     1      -5.346 -10.690  12.413  0.00  0.00    +0.163 C 
ATOM     18  C   UNL     1      -8.248 -11.078  12.668  0.00  0.00    +0.039 C 
ATOM     19  C   UNL     1      -7.340 -12.174  12.127  0.00  0.00    +0.110 C 
ATOM     21  C   UNL     1      -5.630 -12.144  10.349  0.00  0.00    +0.226 C 
ENDROOT
BRANCH  17  20
ATOM      4  O   UNL     1      -4.407 -12.715  13.264  0.00  0.00    -0.274 OA
ATOM     13  N   UNL     1      -4.202 -10.765  14.518  0.00  0.00    -0.302 N 
ATOM     20  C   UNL     1      -4.601 -11.513  13.423  0.00  0.00    +0.234 C 
ATOM     39  H   UNL     1      -4.371  -9.762  14.518  0.00  0.00    +0.150 HD
BRANCH  13  22
ATOM     22  C   UNL     1      -3.488 -11.326  15.641  0.00  0.00    +0.163 C 
BRANCH  22  26
ATOM      8  O   UNL     1      -1.303 -10.263  15.660  0.00  0.00    -0.274 OA
ATOM     14  N   UNL     1      -1.512 -12.327  14.675  0.00  0.00    -0.328 N 
ATOM     26  C   UNL     1      -2.003 -11.217  15.327  0.00  0.00    +0.231 C 
ATOM     40  H   UNL     1      -0.532 -12.390  14.419  0.00  0.00    +0.145 HD
ATOM     41  H   UNL     1      -2.098 -13.119  14.428  0.00  0.00    +0.145 HD
ENDBRANCH  22  26
BRANCH  22  25
ATOM     25  C   UNL     1      -3.811 -10.603  16.954  0.00  0.00    +0.067 C 
BRANCH  25  27
ATOM     27  C   UNL     1      -4.957 -11.237  17.703  0.00  0.00    -0.045 A 
ATOM     32  C   UNL     1      -5.468 -12.465  17.285  0.00  0.00    +0.004 A 
ATOM     33  C   UNL     1      -5.506 -10.594  18.813  0.00  0.00    +0.004 A 
ATOM     34  C   UNL     1      -6.528 -13.052  17.978  0.00  0.00    +0.000 A 
ATOM     35  C   UNL     1      -6.566 -11.181  19.505  0.00  0.00    +0.000 A 
ATOM     36  C   UNL     1      -7.076 -12.409  19.087  0.00  0.00    +0.000 A 
ENDBRANCH  25  27
ENDBRANCH  22  25
ENDBRANCH  13  22
ENDBRANCH  17  20
BRANCH  15  12
ATOM     12  N   UNL     1      -8.388  -9.112  14.135  0.00  0.00    -0.186 NA
ATOM     38  H   UNL     1      -8.930  -8.673  13.380  0.00  0.00    +0.148 HD
BRANCH  12   1
ATOM      1  S   UNL     1      -9.202  -9.295  15.629  0.00  0.00    +0.065 S 
ATOM      6  O   UNL     1      -8.280  -9.029  16.716  0.00  0.00    -0.153 OA
ATOM      7  O   UNL     1      -9.987 -10.513  15.587  0.00  0.00    -0.153 OA
BRANCH   1  24
ATOM      3  S   UNL     1     -11.710  -8.138  14.585  0.00  0.00    -0.077 S 
ATOM     24  C   UNL     1     -10.437  -7.999  15.722  0.00  0.00    +0.142 A 
ATOM     28  C   UNL     1     -10.584  -6.893  16.530  0.00  0.00    +0.036 A 
ATOM     29  C   UNL     1     -11.756  -6.150  16.211  0.00  0.00    +0.010 A 
ATOM     31  C   UNL     1     -12.461  -6.715  15.171  0.00  0.00    +0.047 A 
ENDBRANCH   1  24
ENDBRANCH  12   1
ENDBRANCH  15  12
BRANCH  21  23
ATOM     23  C   UNL     1      -4.355 -11.549   9.804  0.00  0.00    +0.165 C 
BRANCH  23   2
ATOM      2  S   UNL     1      -4.796 -10.481   8.425  0.00  0.00    -0.140 S 
BRANCH   2  30
ATOM     30  C   UNL     1      -4.982  -8.923   9.328  0.00  0.00    +0.189 C 
BRANCH  30  37
ATOM     10  O   UNL     1      -7.336  -9.066   9.825  0.00  0.00    -0.250 OA
ATOM     37  C   UNL     1      -6.416  -8.481   9.269  0.00  0.00    +0.315 C 
BRANCH  37   9
ATOM      9  O   UNL     1      -6.585  -7.346   8.544  0.00  0.00    -0.480 OA
ATOM     42  H   UNL     1      -6.585  -7.524   7.579  0.00  0.00    +0.295 HD
ENDBRANCH  37   9
ENDBRANCH  30  37
ENDBRANCH   2  30
ENDBRANCH  23   2
ENDBRANCH  21  23
TORSDOF 13
ENDMDL
