MODEL 1
REMARK VINA RESULT:      -6.7      0.000      0.000
REMARK  Name = 11912462
REMARK  11 active torsions:
REMARK  status: ('A' for Active; 'I' for Inactive)
REMARK    1  A    between atoms: S_1  and  N_6
REMARK    2  A    between atoms: S_1  and  C_18
REMARK    3  A    between atoms: O_5  and  C_25
REMARK    4  A    between atoms: O_5  and  C_27
REMARK    5  A    between atoms: N_7  and  C_21
REMARK    6  A    between atoms: N_7  and  C_22
REMARK    7  A    between atoms: C_9  and  C_14
REMARK    8  A    between atoms: C_10  and  C_15
REMARK    9  A    between atoms: C_14  and  C_16
REMARK   10  A    between atoms: C_15  and  C_17
REMARK   11  A    between atoms: C_21  and  C_26
REMARK                            x       y       z     vdW  Elec       q    Type
REMARK                         _______ _______ _______ _____ _____    ______ ____
ROOT
ATOM      6  N   UNL     1      13.406   7.774  20.273  0.00  0.00    -0.176 NA
ATOM      9  C   UNL     1      15.505   7.769  21.604  0.00  0.00    +0.008 C 
ATOM     10  C   UNL     1      16.207   7.008  20.454  0.00  0.00    +0.003 C 
ATOM     11  C   UNL     1      15.520   7.272  19.105  0.00  0.00    +0.021 C 
ATOM     12  C   UNL     1      14.002   7.447  21.604  0.00  0.00    +0.113 C 
ATOM     13  C   UNL     1      14.025   6.980  19.173  0.00  0.00    +0.110 C 
ENDROOT
BRANCH   6   1
ATOM      1  S   UNL     1      11.695   7.862  20.239  0.00  0.00    +0.061 S 
ATOM      2  O   UNL     1      11.150   6.704  20.913  0.00  0.00    -0.153 OA
ATOM      3  O   UNL     1      11.271   8.218  18.902  0.00  0.00    -0.153 OA
BRANCH   1  18
ATOM     18  C   UNL     1      11.439   9.263  21.282  0.00  0.00    +0.106 A 
ATOM     19  C   UNL     1      10.864   9.086  22.530  0.00  0.00    +0.032 A 
ATOM     20  C   UNL     1      11.819  10.519  20.836  0.00  0.00    +0.032 A 
ATOM     23  C   UNL     1      10.662  10.193  23.353  0.00  0.00    +0.047 A 
ATOM     24  C   UNL     1      11.617  11.627  21.660  0.00  0.00    +0.047 A 
ATOM     25  C   UNL     1      11.039  11.463  22.918  0.00  0.00    +0.120 A 
BRANCH  25   5
ATOM      5  O   UNL     1      10.843  12.544  23.723  0.00  0.00    -0.495 OA
ATOM     27  C   UNL     1      10.971  12.339  25.128  0.00  0.00    +0.277 C 
ENDBRANCH  25   5
ENDBRANCH   1  18
ENDBRANCH   6   1
BRANCH   9  14
ATOM     14  C   UNL     1      15.731   9.286  21.581  0.00  0.00    +0.002 C 
ATOM     16  C   UNL     1      14.940   9.973  22.674  0.00  0.00    +0.004 C 
ENDBRANCH   9  14
BRANCH  10  15
ATOM     15  C   UNL     1      17.704   7.303  20.363  0.00  0.00    +0.100 C 
BRANCH  15  17
ATOM      4  O   UNL     1      18.072   5.158  19.357  0.00  0.00    -0.276 OA
ATOM      7  N   UNL     1      19.789   6.006  20.665  0.00  0.00    -0.291 N 
ATOM     17  C   UNL     1      18.522   6.056  20.074  0.00  0.00    +0.216 C 
ATOM     22  C   UNL     1      20.694   4.878  20.481  0.00  0.00    +0.133 C 
BRANCH   7  21
ATOM     21  C   UNL     1      20.302   7.082  21.511  0.00  0.00    +0.226 C 
BRANCH  21  26
ATOM      8  N   UNL     1      20.537   6.286  23.998  0.00  0.00    -0.195 NA
ATOM     26  C   UNL     1      20.431   6.638  22.898  0.00  0.00    +0.082 C 
ENDBRANCH  21  26
ENDBRANCH   7  21
ENDBRANCH  15  17
ENDBRANCH  10  15
TORSDOF 8
ENDMDL
MODEL 2
REMARK VINA RESULT:      -5.7      3.244      4.523
REMARK  Name = 11912462
REMARK  11 active torsions:
REMARK  status: ('A' for Active; 'I' for Inactive)
REMARK    1  A    between atoms: S_1  and  N_6
REMARK    2  A    between atoms: S_1  and  C_18
REMARK    3  A    between atoms: O_5  and  C_25
REMARK    4  A    between atoms: O_5  and  C_27
REMARK    5  A    between atoms: N_7  and  C_21
REMARK    6  A    between atoms: N_7  and  C_22
REMARK    7  A    between atoms: C_9  and  C_14
REMARK    8  A    between atoms: C_10  and  C_15
REMARK    9  A    between atoms: C_14  and  C_16
REMARK   10  A    between atoms: C_15  and  C_17
REMARK   11  A    between atoms: C_21  and  C_26
REMARK                            x       y       z     vdW  Elec       q    Type
REMARK                         _______ _______ _______ _____ _____    ______ ____
ROOT
ATOM      6  N   UNL     1      15.220   7.745  20.214  0.00  0.00    -0.176 NA
ATOM      9  C   UNL     1      17.228   8.299  21.570  0.00  0.00    +0.008 C 
ATOM     10  C   UNL     1      17.898   6.997  21.070  0.00  0.00    +0.003 C 
ATOM     11  C   UNL     1      17.322   6.552  19.717  0.00  0.00    +0.021 C 
ATOM     12  C   UNL     1      15.699   8.133  21.574  0.00  0.00    +0.113 C 
ATOM     13  C   UNL     1      15.801   6.447  19.765  0.00  0.00    +0.110 C 
ENDROOT
BRANCH   6   1
ATOM      1  S   UNL     1      13.536   7.922  19.953  0.00  0.00    +0.061 S 
ATOM      2  O   UNL     1      12.993   8.803  20.963  0.00  0.00    -0.153 OA
ATOM      3  O   UNL     1      12.959   6.617  19.711  0.00  0.00    -0.153 OA
BRANCH   1  18
ATOM     18  C   UNL     1      13.553   8.801  18.422  0.00  0.00    +0.106 A 
ATOM     19  C   UNL     1      12.562   8.554  17.486  0.00  0.00    +0.032 A 
ATOM     20  C   UNL     1      14.558   9.724  18.181  0.00  0.00    +0.032 A 
ATOM     23  C   UNL     1      12.577   9.248  16.276  0.00  0.00    +0.047 A 
ATOM     24  C   UNL     1      14.572  10.418  16.971  0.00  0.00    +0.047 A 
ATOM     25  C   UNL     1      13.582  10.181  16.019  0.00  0.00    +0.120 A 
BRANCH  25   5
ATOM      5  O   UNL     1      13.594  10.858  14.839  0.00  0.00    -0.495 OA
ATOM     27  C   UNL     1      14.838  11.421  14.426  0.00  0.00    +0.277 C 
ENDBRANCH  25   5
ENDBRANCH   1  18
ENDBRANCH   6   1
BRANCH   9  14
ATOM     14  C   UNL     1      17.631   9.552  20.782  0.00  0.00    +0.002 C 
ATOM     16  C   UNL     1      16.872  10.769  21.266  0.00  0.00    +0.004 C 
ENDBRANCH   9  14
BRANCH  10  15
ATOM     15  C   UNL     1      19.422   7.091  21.002  0.00  0.00    +0.100 C 
BRANCH  15  17
ATOM      4  O   UNL     1      19.602   6.336  23.270  0.00  0.00    -0.276 OA
ATOM      7  N   UNL     1      21.294   5.697  21.820  0.00  0.00    -0.291 N 
ATOM     17  C   UNL     1      20.099   6.349  22.141  0.00  0.00    +0.216 C 
ATOM     22  C   UNL     1      22.061   4.940  22.802  0.00  0.00    +0.133 C 
BRANCH   7  21
ATOM     21  C   UNL     1      21.865   5.725  20.475  0.00  0.00    +0.226 C 
BRANCH  21  26
ATOM      8  N   UNL     1      24.022   7.214  20.403  0.00  0.00    -0.195 NA
ATOM     26  C   UNL     1      23.067   6.557  20.436  0.00  0.00    +0.082 C 
ENDBRANCH  21  26
ENDBRANCH   7  21
ENDBRANCH  15  17
ENDBRANCH  10  15
TORSDOF 8
ENDMDL
MODEL 3
REMARK VINA RESULT:      -5.5     27.042     29.632
REMARK  Name = 11912462
REMARK  11 active torsions:
REMARK  status: ('A' for Active; 'I' for Inactive)
REMARK    1  A    between atoms: S_1  and  N_6
REMARK    2  A    between atoms: S_1  and  C_18
REMARK    3  A    between atoms: O_5  and  C_25
REMARK    4  A    between atoms: O_5  and  C_27
REMARK    5  A    between atoms: N_7  and  C_21
REMARK    6  A    between atoms: N_7  and  C_22
REMARK    7  A    between atoms: C_9  and  C_14
REMARK    8  A    between atoms: C_10  and  C_15
REMARK    9  A    between atoms: C_14  and  C_16
REMARK   10  A    between atoms: C_15  and  C_17
REMARK   11  A    between atoms: C_21  and  C_26
REMARK                            x       y       z     vdW  Elec       q    Type
REMARK                         _______ _______ _______ _____ _____    ______ ____
ROOT
ATOM      6  N   UNL     1      -3.831 -11.505  15.481  0.00  0.00    -0.176 NA
ATOM      9  C   UNL     1      -6.019 -12.065  16.516  0.00  0.00    +0.008 C 
ATOM     10  C   UNL     1      -5.737 -11.022  17.623  0.00  0.00    +0.003 C 
ATOM     11  C   UNL     1      -4.766  -9.935  17.138  0.00  0.00    +0.021 C 
ATOM     12  C   UNL     1      -4.694 -12.621  15.971  0.00  0.00    +0.113 C 
ATOM     13  C   UNL     1      -3.489 -10.542  16.568  0.00  0.00    +0.110 C 
ENDROOT
BRANCH   6   1
ATOM      1  S   UNL     1      -2.520 -11.977  14.482  0.00  0.00    +0.061 S 
ATOM      2  O   UNL     1      -2.669 -13.374  14.139  0.00  0.00    -0.153 OA
ATOM      3  O   UNL     1      -1.290 -11.475  15.056  0.00  0.00    -0.153 OA
BRANCH   1  18
ATOM     18  C   UNL     1      -2.875 -11.025  13.039  0.00  0.00    +0.106 A 
ATOM     19  C   UNL     1      -4.191 -10.710  12.740  0.00  0.00    +0.032 A 
ATOM     20  C   UNL     1      -1.832 -10.608  12.228  0.00  0.00    +0.032 A 
ATOM     23  C   UNL     1      -4.472  -9.959  11.599  0.00  0.00    +0.047 A 
ATOM     24  C   UNL     1      -2.113  -9.856  11.087  0.00  0.00    +0.047 A 
ATOM     25  C   UNL     1      -3.432  -9.531  10.773  0.00  0.00    +0.120 A 
BRANCH  25   5
ATOM      5  O   UNL     1      -3.707  -8.796   9.660  0.00  0.00    -0.495 OA
ATOM     27  C   UNL     1      -4.803  -9.223   8.854  0.00  0.00    +0.277 C 
ENDBRANCH  25   5
ENDBRANCH   1  18
ENDBRANCH   6   1
BRANCH   9  14
ATOM     14  C   UNL     1      -6.894 -11.540  15.370  0.00  0.00    +0.002 C 
ATOM     16  C   UNL     1      -7.191 -12.632  14.365  0.00  0.00    +0.004 C 
ENDBRANCH   9  14
BRANCH  10  15
ATOM     15  C   UNL     1      -7.008 -10.393  18.195  0.00  0.00    +0.100 C 
BRANCH  15  17
ATOM      4  O   UNL     1      -6.968 -11.678  20.219  0.00  0.00    -0.276 OA
ATOM      7  N   UNL     1      -9.008 -11.508  19.131  0.00  0.00    -0.291 N 
ATOM     17  C   UNL     1      -7.642 -11.250  19.278  0.00  0.00    +0.216 C 
ATOM     22  C   UNL     1      -9.760 -12.312  20.088  0.00  0.00    +0.133 C 
BRANCH   7  21
ATOM     21  C   UNL     1      -9.787 -10.991  18.008  0.00  0.00    +0.226 C 
BRANCH  21  26
ATOM      8  N   UNL     1     -11.804  -9.547  18.857  0.00  0.00    -0.195 NA
ATOM     26  C   UNL     1     -10.913 -10.187  18.480  0.00  0.00    +0.082 C 
ENDBRANCH  21  26
ENDBRANCH   7  21
ENDBRANCH  15  17
ENDBRANCH  10  15
TORSDOF 8
ENDMDL
MODEL 4
REMARK VINA RESULT:      -5.4     27.077     29.787
REMARK  Name = 11912462
REMARK  11 active torsions:
REMARK  status: ('A' for Active; 'I' for Inactive)
REMARK    1  A    between atoms: S_1  and  N_6
REMARK    2  A    between atoms: S_1  and  C_18
REMARK    3  A    between atoms: O_5  and  C_25
REMARK    4  A    between atoms: O_5  and  C_27
REMARK    5  A    between atoms: N_7  and  C_21
REMARK    6  A    between atoms: N_7  and  C_22
REMARK    7  A    between atoms: C_9  and  C_14
REMARK    8  A    between atoms: C_10  and  C_15
REMARK    9  A    between atoms: C_14  and  C_16
REMARK   10  A    between atoms: C_15  and  C_17
REMARK   11  A    between atoms: C_21  and  C_26
REMARK                            x       y       z     vdW  Elec       q    Type
REMARK                         _______ _______ _______ _____ _____    ______ ____
ROOT
ATOM      6  N   UNL     1      -3.723 -11.542  15.399  0.00  0.00    -0.176 NA
ATOM      9  C   UNL     1      -5.813 -12.557  16.283  0.00  0.00    +0.008 C 
ATOM     10  C   UNL     1      -5.755 -11.580  17.481  0.00  0.00    +0.003 C 
ATOM     11  C   UNL     1      -4.973 -10.305  17.129  0.00  0.00    +0.021 C 
ATOM     12  C   UNL     1      -4.394 -12.828  15.759  0.00  0.00    +0.113 C 
ATOM     13  C   UNL     1      -3.591 -10.633  16.574  0.00  0.00    +0.110 C 
ENDROOT
BRANCH   6   1
ATOM      1  S   UNL     1      -2.318 -11.696  14.430  0.00  0.00    +0.061 S 
ATOM      2  O   UNL     1      -2.147 -13.085  14.065  0.00  0.00    -0.153 OA
ATOM      3  O   UNL     1      -1.243 -10.946  15.043  0.00  0.00    -0.153 OA
BRANCH   1  18
ATOM     18  C   UNL     1      -2.842 -10.818  12.991  0.00  0.00    +0.106 A 
ATOM     19  C   UNL     1      -1.898 -10.420  12.058  0.00  0.00    +0.032 A 
ATOM     20  C   UNL     1      -4.188 -10.542  12.817  0.00  0.00    +0.032 A 
ATOM     23  C   UNL     1      -2.311  -9.726  10.921  0.00  0.00    +0.047 A 
ATOM     24  C   UNL     1      -4.602  -9.848  11.679  0.00  0.00    +0.047 A 
ATOM     25  C   UNL     1      -3.664  -9.441  10.732  0.00  0.00    +0.120 A 
BRANCH  25   5
ATOM      5  O   UNL     1      -4.067  -8.765   9.621  0.00  0.00    -0.495 OA
ATOM     27  C   UNL     1      -4.690  -9.526   8.588  0.00  0.00    +0.277 C 
ENDBRANCH  25   5
ENDBRANCH   1  18
ENDBRANCH   6   1
BRANCH   9  14
ATOM     14  C   UNL     1      -6.729 -12.093  15.142  0.00  0.00    +0.002 C 
ATOM     16  C   UNL     1      -7.064 -13.239  14.211  0.00  0.00    +0.004 C 
ENDBRANCH   9  14
BRANCH  10  15
ATOM     15  C   UNL     1      -7.134 -11.229  18.040  0.00  0.00    +0.100 C 
BRANCH  15  17
ATOM      4  O   UNL     1      -6.843 -11.654  20.381  0.00  0.00    -0.276 OA
ATOM      7  N   UNL     1      -8.401 -12.962  19.270  0.00  0.00    -0.291 N 
ATOM     17  C   UNL     1      -7.433 -11.956  19.340  0.00  0.00    +0.216 C 
ATOM     22  C   UNL     1      -8.800 -13.747  20.432  0.00  0.00    +0.133 C 
BRANCH   7  21
ATOM     21  C   UNL     1      -9.088 -13.302  18.025  0.00  0.00    +0.226 C 
BRANCH  21  26
ATOM      8  N   UNL     1      -8.274 -15.622  17.112  0.00  0.00    -0.195 NA
ATOM     26  C   UNL     1      -8.632 -14.595  17.516  0.00  0.00    +0.082 C 
ENDBRANCH  21  26
ENDBRANCH   7  21
ENDBRANCH  15  17
ENDBRANCH  10  15
TORSDOF 8
ENDMDL
MODEL 5
REMARK VINA RESULT:      -5.4      3.920      9.814
REMARK  Name = 11912462
REMARK  11 active torsions:
REMARK  status: ('A' for Active; 'I' for Inactive)
REMARK    1  A    between atoms: S_1  and  N_6
REMARK    2  A    between atoms: S_1  and  C_18
REMARK    3  A    between atoms: O_5  and  C_25
REMARK    4  A    between atoms: O_5  and  C_27
REMARK    5  A    between atoms: N_7  and  C_21
REMARK    6  A    between atoms: N_7  and  C_22
REMARK    7  A    between atoms: C_9  and  C_14
REMARK    8  A    between atoms: C_10  and  C_15
REMARK    9  A    between atoms: C_14  and  C_16
REMARK   10  A    between atoms: C_15  and  C_17
REMARK   11  A    between atoms: C_21  and  C_26
REMARK                            x       y       z     vdW  Elec       q    Type
REMARK                         _______ _______ _______ _____ _____    ______ ____
ROOT
ATOM      6  N   UNL     1      20.326   7.683  22.118  0.00  0.00    -0.176 NA
ATOM      9  C   UNL     1      18.211   6.585  21.414  0.00  0.00    +0.008 C 
ATOM     10  C   UNL     1      17.516   7.967  21.422  0.00  0.00    +0.003 C 
ATOM     11  C   UNL     1      18.526   9.105  21.209  0.00  0.00    +0.021 C 
ATOM     12  C   UNL     1      19.371   6.576  22.423  0.00  0.00    +0.113 C 
ATOM     13  C   UNL     1      19.677   9.023  22.207  0.00  0.00    +0.110 C 
ENDROOT
BRANCH   6   1
ATOM      1  S   UNL     1      21.857   7.560  22.878  0.00  0.00    +0.061 S 
ATOM      2  O   UNL     1      21.663   7.340  24.295  0.00  0.00    -0.153 OA
ATOM      3  O   UNL     1      22.706   8.628  22.398  0.00  0.00    -0.153 OA
BRANCH   1  18
ATOM     18  C   UNL     1      22.430   6.048  22.170  0.00  0.00    +0.106 A 
ATOM     19  C   UNL     1      22.395   4.888  22.926  0.00  0.00    +0.032 A 
ATOM     20  C   UNL     1      22.905   6.046  20.868  0.00  0.00    +0.032 A 
ATOM     23  C   UNL     1      22.849   3.693  22.366  0.00  0.00    +0.047 A 
ATOM     24  C   UNL     1      23.358   4.851  20.308  0.00  0.00    +0.047 A 
ATOM     25  C   UNL     1      23.330   3.676  21.057  0.00  0.00    +0.120 A 
BRANCH  25   5
ATOM      5  O   UNL     1      23.771   2.509  20.511  0.00  0.00    -0.495 OA
ATOM     27  C   UNL     1      24.134   1.466  21.413  0.00  0.00    +0.277 C 
ENDBRANCH  25   5
ENDBRANCH   1  18
ENDBRANCH   6   1
BRANCH   9  14
ATOM     14  C   UNL     1      18.698   6.137  20.030  0.00  0.00    +0.002 C 
ATOM     16  C   UNL     1      19.535   4.880  20.126  0.00  0.00    +0.004 C 
ENDBRANCH   9  14
BRANCH  10  15
ATOM     15  C   UNL     1      16.369   8.070  20.416  0.00  0.00    +0.100 C 
BRANCH  15  17
ATOM      4  O   UNL     1      14.888   7.585  22.238  0.00  0.00    -0.276 OA
ATOM      7  N   UNL     1      14.017   7.372  20.100  0.00  0.00    -0.291 N 
ATOM     17  C   UNL     1      15.036   7.656  21.015  0.00  0.00    +0.216 C 
ATOM     22  C   UNL     1      12.681   6.963  20.518  0.00  0.00    +0.133 C 
BRANCH   7  21
ATOM     21  C   UNL     1      14.215   7.463  18.655  0.00  0.00    +0.226 C 
BRANCH  21  26
ATOM      8  N   UNL     1      11.915   7.449  17.394  0.00  0.00    -0.195 NA
ATOM     26  C   UNL     1      12.933   7.453  17.952  0.00  0.00    +0.082 C 
ENDBRANCH  21  26
ENDBRANCH   7  21
ENDBRANCH  15  17
ENDBRANCH  10  15
TORSDOF 8
ENDMDL
MODEL 6
REMARK VINA RESULT:      -5.4     27.097     29.558
REMARK  Name = 11912462
REMARK  11 active torsions:
REMARK  status: ('A' for Active; 'I' for Inactive)
REMARK    1  A    between atoms: S_1  and  N_6
REMARK    2  A    between atoms: S_1  and  C_18
REMARK    3  A    between atoms: O_5  and  C_25
REMARK    4  A    between atoms: O_5  and  C_27
REMARK    5  A    between atoms: N_7  and  C_21
REMARK    6  A    between atoms: N_7  and  C_22
REMARK    7  A    between atoms: C_9  and  C_14
REMARK    8  A    between atoms: C_10  and  C_15
REMARK    9  A    between atoms: C_14  and  C_16
REMARK   10  A    between atoms: C_15  and  C_17
REMARK   11  A    between atoms: C_21  and  C_26
REMARK                            x       y       z     vdW  Elec       q    Type
REMARK                         _______ _______ _______ _____ _____    ______ ____
ROOT
ATOM      6  N   UNL     1      -3.090 -11.464  12.497  0.00  0.00    -0.176 NA
ATOM      9  C   UNL     1      -3.809 -10.674  10.252  0.00  0.00    +0.008 C 
ATOM     10  C   UNL     1      -3.882 -12.147   9.782  0.00  0.00    +0.003 C 
ATOM     11  C   UNL     1      -4.114 -13.102  10.963  0.00  0.00    +0.021 C 
ATOM     12  C   UNL     1      -2.766 -10.534  11.373  0.00  0.00    +0.113 C 
ATOM     13  C   UNL     1      -3.079 -12.891  12.063  0.00  0.00    +0.110 C 
ENDROOT
BRANCH   6   1
ATOM      1  S   UNL     1      -2.280 -11.140  13.972  0.00  0.00    +0.061 S 
ATOM      2  O   UNL     1      -1.456  -9.963  13.808  0.00  0.00    -0.153 OA
ATOM      3  O   UNL     1      -1.724 -12.375  14.482  0.00  0.00    -0.153 OA
BRANCH   1  18
ATOM     18  C   UNL     1      -3.654 -10.701  14.987  0.00  0.00    +0.106 A 
ATOM     19  C   UNL     1      -4.874 -10.416  14.394  0.00  0.00    +0.032 A 
ATOM     20  C   UNL     1      -3.493 -10.649  16.362  0.00  0.00    +0.032 A 
ATOM     23  C   UNL     1      -5.960 -10.068  15.197  0.00  0.00    +0.047 A 
ATOM     24  C   UNL     1      -4.580 -10.301  17.166  0.00  0.00    +0.047 A 
ATOM     25  C   UNL     1      -5.812 -10.012  16.583  0.00  0.00    +0.120 A 
BRANCH  25   5
ATOM      5  O   UNL     1      -6.873  -9.674  17.366  0.00  0.00    -0.495 OA
ATOM     27  C   UNL     1      -8.057  -9.235  16.702  0.00  0.00    +0.277 C 
ENDBRANCH  25   5
ENDBRANCH   1  18
ENDBRANCH   6   1
BRANCH   9  14
ATOM     14  C   UNL     1      -5.156 -10.091  10.695  0.00  0.00    +0.002 C 
ATOM     16  C   UNL     1      -5.095  -8.581  10.785  0.00  0.00    +0.004 C 
ENDBRANCH   9  14
BRANCH  10  15
ATOM     15  C   UNL     1      -4.925 -12.378   8.689  0.00  0.00    +0.100 C 
BRANCH  15  17
ATOM      4  O   UNL     1      -3.654 -13.802   7.238  0.00  0.00    -0.276 OA
ATOM      7  N   UNL     1      -4.494 -11.850   6.311  0.00  0.00    -0.291 N 
ATOM     17  C   UNL     1      -4.295 -12.754   7.359  0.00  0.00    +0.216 C 
ATOM     22  C   UNL     1      -3.956 -12.071   4.974  0.00  0.00    +0.133 C 
BRANCH   7  21
ATOM     21  C   UNL     1      -5.258 -10.615   6.477  0.00  0.00    +0.226 C 
BRANCH  21  26
ATOM      8  N   UNL     1      -7.096 -10.400   4.618  0.00  0.00    -0.195 NA
ATOM     26  C   UNL     1      -6.283 -10.493   5.441  0.00  0.00    +0.082 C 
ENDBRANCH  21  26
ENDBRANCH   7  21
ENDBRANCH  15  17
ENDBRANCH  10  15
TORSDOF 8
ENDMDL
MODEL 7
REMARK VINA RESULT:      -5.3     17.190     19.642
REMARK  Name = 11912462
REMARK  11 active torsions:
REMARK  status: ('A' for Active; 'I' for Inactive)
REMARK    1  A    between atoms: S_1  and  N_6
REMARK    2  A    between atoms: S_1  and  C_18
REMARK    3  A    between atoms: O_5  and  C_25
REMARK    4  A    between atoms: O_5  and  C_27
REMARK    5  A    between atoms: N_7  and  C_21
REMARK    6  A    between atoms: N_7  and  C_22
REMARK    7  A    between atoms: C_9  and  C_14
REMARK    8  A    between atoms: C_10  and  C_15
REMARK    9  A    between atoms: C_14  and  C_16
REMARK   10  A    between atoms: C_15  and  C_17
REMARK   11  A    between atoms: C_21  and  C_26
REMARK                            x       y       z     vdW  Elec       q    Type
REMARK                         _______ _______ _______ _____ _____    ______ ____
ROOT
ATOM      6  N   UNL     1      12.617   6.878   3.437  0.00  0.00    -0.176 NA
ATOM      9  C   UNL     1      12.319   5.511   1.383  0.00  0.00    +0.008 C 
ATOM     10  C   UNL     1      13.845   5.585   1.139  0.00  0.00    +0.003 C 
ATOM     11  C   UNL     1      14.613   5.816   2.449  0.00  0.00    +0.021 C 
ATOM     12  C   UNL     1      11.853   6.753   2.160  0.00  0.00    +0.113 C 
ATOM     13  C   UNL     1      14.082   7.032   3.200  0.00  0.00    +0.110 C 
ENDROOT
BRANCH   6   1
ATOM      1  S   UNL     1      11.945   7.952   4.591  0.00  0.00    +0.061 S 
ATOM      2  O   UNL     1      10.861   8.686   3.976  0.00  0.00    -0.153 OA
ATOM      3  O   UNL     1      13.020   8.639   5.274  0.00  0.00    -0.153 OA
BRANCH   1  18
ATOM     18  C   UNL     1      11.240   6.790   5.717  0.00  0.00    +0.106 A 
ATOM     19  C   UNL     1      11.546   6.879   7.065  0.00  0.00    +0.032 A 
ATOM     20  C   UNL     1      10.391   5.807   5.235  0.00  0.00    +0.032 A 
ATOM     23  C   UNL     1      10.989   5.960   7.955  0.00  0.00    +0.047 A 
ATOM     24  C   UNL     1       9.833   4.888   6.125  0.00  0.00    +0.047 A 
ATOM     25  C   UNL     1      10.132   4.966   7.484  0.00  0.00    +0.120 A 
BRANCH  25   5
ATOM      5  O   UNL     1       9.588   4.070   8.353  0.00  0.00    -0.495 OA
ATOM     27  C   UNL     1       9.329   4.527   9.679  0.00  0.00    +0.277 C 
ENDBRANCH  25   5
ENDBRANCH   1  18
ENDBRANCH   6   1
BRANCH   9  14
ATOM     14  C   UNL     1      11.859   4.230   2.090  0.00  0.00    +0.002 C 
ATOM     16  C   UNL     1      10.369   4.019   1.924  0.00  0.00    +0.004 C 
ENDBRANCH   9  14
BRANCH  10  15
ATOM     15  C   UNL     1      14.396   4.365   0.400  0.00  0.00    +0.100 C 
BRANCH  15  17
ATOM      4  O   UNL     1      15.416   5.353  -1.532  0.00  0.00    -0.276 OA
ATOM      7  N   UNL     1      13.617   3.939  -1.909  0.00  0.00    -0.291 N 
ATOM     17  C   UNL     1      14.536   4.608  -1.093  0.00  0.00    +0.216 C 
ATOM     22  C   UNL     1      13.623   4.067  -3.362  0.00  0.00    +0.133 C 
BRANCH   7  21
ATOM     21  C   UNL     1      12.582   3.061  -1.367  0.00  0.00    +0.226 C 
BRANCH  21  26
ATOM      8  N   UNL     1      10.192   4.001  -1.898  0.00  0.00    -0.195 NA
ATOM     26  C   UNL     1      11.249   3.584  -1.661  0.00  0.00    +0.082 C 
ENDBRANCH  21  26
ENDBRANCH   7  21
ENDBRANCH  15  17
ENDBRANCH  10  15
TORSDOF 8
ENDMDL
MODEL 8
REMARK VINA RESULT:      -5.2     27.549     29.608
REMARK  Name = 11912462
REMARK  11 active torsions:
REMARK  status: ('A' for Active; 'I' for Inactive)
REMARK    1  A    between atoms: S_1  and  N_6
REMARK    2  A    between atoms: S_1  and  C_18
REMARK    3  A    between atoms: O_5  and  C_25
REMARK    4  A    between atoms: O_5  and  C_27
REMARK    5  A    between atoms: N_7  and  C_21
REMARK    6  A    between atoms: N_7  and  C_22
REMARK    7  A    between atoms: C_9  and  C_14
REMARK    8  A    between atoms: C_10  and  C_15
REMARK    9  A    between atoms: C_14  and  C_16
REMARK   10  A    between atoms: C_15  and  C_17
REMARK   11  A    between atoms: C_21  and  C_26
REMARK                            x       y       z     vdW  Elec       q    Type
REMARK                         _______ _______ _______ _____ _____    ______ ____
ROOT
ATOM      6  N   UNL     1      -6.687 -12.562  18.071  0.00  0.00    -0.176 NA
ATOM      9  C   UNL     1      -4.660 -12.570  16.632  0.00  0.00    +0.008 C 
ATOM     10  C   UNL     1      -5.182 -13.852  15.941  0.00  0.00    +0.003 C 
ATOM     11  C   UNL     1      -6.712 -13.959  16.037  0.00  0.00    +0.021 C 
ATOM     12  C   UNL     1      -5.194 -12.497  18.072  0.00  0.00    +0.113 C 
ATOM     13  C   UNL     1      -7.190 -13.836  17.480  0.00  0.00    +0.110 C 
ENDROOT
BRANCH   6   1
ATOM      1  S   UNL     1      -7.441 -12.085  19.533  0.00  0.00    +0.061 S 
ATOM      2  O   UNL     1      -6.478 -11.382  20.353  0.00  0.00    -0.153 OA
ATOM      3  O   UNL     1      -8.194 -13.204  20.059  0.00  0.00    -0.153 OA
BRANCH   1  18
ATOM     18  C   UNL     1      -8.591 -10.899  18.912  0.00  0.00    +0.106 A 
ATOM     19  C   UNL     1      -8.221 -10.084  17.855  0.00  0.00    +0.032 A 
ATOM     20  C   UNL     1      -9.846 -10.802  19.492  0.00  0.00    +0.032 A 
ATOM     23  C   UNL     1      -9.130  -9.146  17.365  0.00  0.00    +0.047 A 
ATOM     24  C   UNL     1     -10.755  -9.864  19.002  0.00  0.00    +0.047 A 
ATOM     25  C   UNL     1     -10.397  -9.037  17.938  0.00  0.00    +0.120 A 
BRANCH  25   5
ATOM      5  O   UNL     1     -11.283  -8.122  17.458  0.00  0.00    -0.495 OA
ATOM     27  C   UNL     1     -10.784  -7.155  16.536  0.00  0.00    +0.277 C 
ENDBRANCH  25   5
ENDBRANCH   1  18
ENDBRANCH   6   1
BRANCH   9  14
ATOM     14  C   UNL     1      -4.979 -11.275  15.873  0.00  0.00    +0.002 C 
ATOM     16  C   UNL     1      -4.484 -10.062  16.630  0.00  0.00    +0.004 C 
ENDBRANCH   9  14
BRANCH  10  15
ATOM     15  C   UNL     1      -4.723 -13.982  14.489  0.00  0.00    +0.100 C 
BRANCH  15  17
ATOM      4  O   UNL     1      -3.490 -16.028  14.683  0.00  0.00    -0.276 OA
ATOM      7  N   UNL     1      -2.348 -14.200  13.829  0.00  0.00    -0.291 N 
ATOM     17  C   UNL     1      -3.478 -14.840  14.350  0.00  0.00    +0.216 C 
ATOM     22  C   UNL     1      -1.079 -14.888  13.634  0.00  0.00    +0.133 C 
BRANCH   7  21
ATOM     21  C   UNL     1      -2.357 -12.790  13.442  0.00  0.00    +0.226 C 
BRANCH  21  26
ATOM      8  N   UNL     1      -1.218 -11.311  15.283  0.00  0.00    -0.195 NA
ATOM     26  C   UNL     1      -1.722 -11.964  14.467  0.00  0.00    +0.082 C 
ENDBRANCH  21  26
ENDBRANCH   7  21
ENDBRANCH  15  17
ENDBRANCH  10  15
TORSDOF 8
ENDMDL
MODEL 9
REMARK VINA RESULT:      -5.2     26.344     28.952
REMARK  Name = 11912462
REMARK  11 active torsions:
REMARK  status: ('A' for Active; 'I' for Inactive)
REMARK    1  A    between atoms: S_1  and  N_6
REMARK    2  A    between atoms: S_1  and  C_18
REMARK    3  A    between atoms: O_5  and  C_25
REMARK    4  A    between atoms: O_5  and  C_27
REMARK    5  A    between atoms: N_7  and  C_21
REMARK    6  A    between atoms: N_7  and  C_22
REMARK    7  A    between atoms: C_9  and  C_14
REMARK    8  A    between atoms: C_10  and  C_15
REMARK    9  A    between atoms: C_14  and  C_16
REMARK   10  A    between atoms: C_15  and  C_17
REMARK   11  A    between atoms: C_21  and  C_26
REMARK                            x       y       z     vdW  Elec       q    Type
REMARK                         _______ _______ _______ _____ _____    ______ ____
ROOT
ATOM      6  N   UNL     1      -2.873 -11.053  13.288  0.00  0.00    -0.176 NA
ATOM      9  C   UNL     1      -2.542 -10.291  10.946  0.00  0.00    +0.008 C 
ATOM     10  C   UNL     1      -4.078 -10.230  10.772  0.00  0.00    +0.003 C 
ATOM     11  C   UNL     1      -4.789 -10.029  12.119  0.00  0.00    +0.021 C 
ATOM     12  C   UNL     1      -2.176 -11.348  12.001  0.00  0.00    +0.113 C 
ATOM     13  C   UNL     1      -4.356 -11.077  13.140  0.00  0.00    +0.110 C 
ENDROOT
BRANCH   6   1
ATOM      1  S   UNL     1      -2.260 -11.881  14.658  0.00  0.00    +0.061 S 
ATOM      2  O   UNL     1      -1.152 -11.130  15.206  0.00  0.00    -0.153 OA
ATOM      3  O   UNL     1      -2.125 -13.285  14.335  0.00  0.00    -0.153 OA
BRANCH   1  18
ATOM     18  C   UNL     1      -3.629 -11.706  15.759  0.00  0.00    +0.106 A 
ATOM     19  C   UNL     1      -3.806 -10.511  16.438  0.00  0.00    +0.032 A 
ATOM     20  C   UNL     1      -4.505 -12.766  15.927  0.00  0.00    +0.032 A 
ATOM     23  C   UNL     1      -4.886 -10.373  17.309  0.00  0.00    +0.047 A 
ATOM     24  C   UNL     1      -5.586 -12.628  16.798  0.00  0.00    +0.047 A 
ATOM     25  C   UNL     1      -5.777 -11.432  17.488  0.00  0.00    +0.120 A 
BRANCH  25   5
ATOM      5  O   UNL     1      -6.832 -11.296  18.337  0.00  0.00    -0.495 OA
ATOM     27  C   UNL     1      -6.543 -10.898  19.675  0.00  0.00    +0.277 C 
ENDBRANCH  25   5
ENDBRANCH   1  18
ENDBRANCH   6   1
BRANCH   9  14
ATOM     14  C   UNL     1      -1.897  -8.942  11.290  0.00  0.00    +0.002 C 
ATOM     16  C   UNL     1      -0.394  -8.997  11.125  0.00  0.00    +0.004 C 
ENDBRANCH   9  14
BRANCH  10  15
ATOM     15  C   UNL     1      -4.528  -9.174   9.763  0.00  0.00    +0.100 C 
BRANCH  15  17
ATOM      4  O   UNL     1      -4.654 -10.603   7.842  0.00  0.00    -0.276 OA
ATOM      7  N   UNL     1      -6.546  -9.360   8.343  0.00  0.00    -0.291 N 
ATOM     17  C   UNL     1      -5.231  -9.784   8.562  0.00  0.00    +0.216 C 
ATOM     22  C   UNL     1      -7.353  -9.854   7.234  0.00  0.00    +0.133 C 
BRANCH   7  21
ATOM     21  C   UNL     1      -7.210  -8.388   9.210  0.00  0.00    +0.226 C 
BRANCH  21  26
ATOM      8  N   UNL     1      -8.152  -6.379   7.813  0.00  0.00    -0.195 NA
ATOM     26  C   UNL     1      -7.733  -7.267   8.431  0.00  0.00    +0.082 C 
ENDBRANCH  21  26
ENDBRANCH   7  21
ENDBRANCH  15  17
ENDBRANCH  10  15
TORSDOF 8
ENDMDL
MODEL 10
REMARK VINA RESULT:      -5.2     27.145     29.549
REMARK  Name = 11912462
REMARK  11 active torsions:
REMARK  status: ('A' for Active; 'I' for Inactive)
REMARK    1  A    between atoms: S_1  and  N_6
REMARK    2  A    between atoms: S_1  and  C_18
REMARK    3  A    between atoms: O_5  and  C_25
REMARK    4  A    between atoms: O_5  and  C_27
REMARK    5  A    between atoms: N_7  and  C_21
REMARK    6  A    between atoms: N_7  and  C_22
REMARK    7  A    between atoms: C_9  and  C_14
REMARK    8  A    between atoms: C_10  and  C_15
REMARK    9  A    between atoms: C_14  and  C_16
REMARK   10  A    between atoms: C_15  and  C_17
REMARK   11  A    between atoms: C_21  and  C_26
REMARK                            x       y       z     vdW  Elec       q    Type
REMARK                         _______ _______ _______ _____ _____    ______ ____
ROOT
ATOM      6  N   UNL     1      -3.028 -11.385  12.547  0.00  0.00    -0.176 NA
ATOM      9  C   UNL     1      -3.929 -10.568  10.379  0.00  0.00    +0.008 C 
ATOM     10  C   UNL     1      -3.896 -12.019   9.844  0.00  0.00    +0.003 C 
ATOM     11  C   UNL     1      -3.980 -13.042  10.987  0.00  0.00    +0.021 C 
ATOM     12  C   UNL     1      -2.846 -10.382  11.455  0.00  0.00    +0.113 C 
ATOM     13  C   UNL     1      -2.913 -12.785  12.046  0.00  0.00    +0.110 C 
ENDROOT
BRANCH   6   1
ATOM      1  S   UNL     1      -2.174 -11.053  13.995  0.00  0.00    +0.061 S 
ATOM      2  O   UNL     1      -1.465  -9.801  13.848  0.00  0.00    -0.153 OA
ATOM      3  O   UNL     1      -1.487 -12.254  14.419  0.00  0.00    -0.153 OA
BRANCH   1  18
ATOM     18  C   UNL     1      -3.527 -10.783  15.094  0.00  0.00    +0.106 A 
ATOM     19  C   UNL     1      -3.332 -10.919  16.459  0.00  0.00    +0.032 A 
ATOM     20  C   UNL     1      -4.765 -10.437  14.575  0.00  0.00    +0.032 A 
ATOM     23  C   UNL     1      -4.402 -10.706  17.328  0.00  0.00    +0.047 A 
ATOM     24  C   UNL     1      -5.835 -10.224  15.444  0.00  0.00    +0.047 A 
ATOM     25  C   UNL     1      -5.653 -10.358  16.820  0.00  0.00    +0.120 A 
BRANCH  25   5
ATOM      5  O   UNL     1      -6.697 -10.148  17.668  0.00  0.00    -0.495 OA
ATOM     27  C   UNL     1      -6.470 -10.403  19.053  0.00  0.00    +0.277 C 
ENDBRANCH  25   5
ENDBRANCH   1  18
ENDBRANCH   6   1
BRANCH   9  14
ATOM     14  C   UNL     1      -5.298 -10.129  10.913  0.00  0.00    +0.002 C 
ATOM     16  C   UNL     1      -5.361  -8.626  11.086  0.00  0.00    +0.004 C 
ENDBRANCH   9  14
BRANCH  10  15
ATOM     15  C   UNL     1      -4.969 -12.297   8.791  0.00  0.00    +0.100 C 
BRANCH  15  17
ATOM      4  O   UNL     1      -4.841 -10.553   7.151  0.00  0.00    -0.276 OA
ATOM      7  N   UNL     1      -3.997 -12.625   6.540  0.00  0.00    -0.291 N 
ATOM     17  C   UNL     1      -4.605 -11.732   7.429  0.00  0.00    +0.216 C 
ATOM     22  C   UNL     1      -3.586 -12.234   5.197  0.00  0.00    +0.133 C 
BRANCH   7  21
ATOM     21  C   UNL     1      -3.727 -14.017   6.892  0.00  0.00    +0.226 C 
BRANCH  21  26
ATOM      8  N   UNL     1      -5.072 -15.652   5.344  0.00  0.00    -0.195 NA
ATOM     26  C   UNL     1      -4.476 -14.927   6.027  0.00  0.00    +0.082 C 
ENDBRANCH  21  26
ENDBRANCH   7  21
ENDBRANCH  15  17
ENDBRANCH  10  15
TORSDOF 8
ENDMDL
