REMARK  Name = 45784341
REMARK  3 active torsions:
REMARK  status: ('A' for Active; 'I' for Inactive)
REMARK    1  A    between atoms: N_4  and  C_10
REMARK    2  A    between atoms: C_6  and  C_11
REMARK    3  A    between atoms: C_10  and  C_12
REMARK                            x       y       z     vdW  Elec       q    Type
REMARK                         _______ _______ _______ _____ _____    ______ ____
ROOT
ATOM      4  N   UNL     1      -1.823  -0.147  -0.018  0.00  0.00    -0.297 NA
ATOM      6  C   UNL     1       0.360  -0.711   0.626  0.00  0.00    +0.090 C 
ATOM      7  C   UNL     1      -0.303   0.126   1.733  0.00  0.00    +0.029 C 
ATOM      8  C   UNL     1      -0.529  -0.499  -0.607  0.00  0.00    +0.097 C 
ATOM      9  C   UNL     1      -1.504   0.783   1.065  0.00  0.00    +0.085 C 
ENDROOT
BRANCH   6  11
ATOM      2  F   UNL     1       7.120   1.437  -0.751  0.00  0.00    -0.205 F 
ATOM      3  O   UNL     1       2.693  -1.410   0.544  0.00  0.00    -0.439 OA
ATOM      5  N   UNL     1       2.340   0.760  -0.007  0.00  0.00    -0.213 NA
ATOM     11  C   UNL     1       1.813  -0.386   0.367  0.00  0.00    +0.201 A 
ATOM     13  C   UNL     1       3.682   0.479  -0.087  0.00  0.00    +0.112 A 
ATOM     14  C   UNL     1       3.903  -0.849   0.250  0.00  0.00    +0.156 A 
ATOM     17  C   UNL     1       4.779   1.281  -0.434  0.00  0.00    +0.070 A 
ATOM     18  C   UNL     1       5.148  -1.464   0.272  0.00  0.00    +0.051 A 
ATOM     21  C   UNL     1       6.053   0.695  -0.423  0.00  0.00    +0.126 A 
ATOM     22  C   UNL     1       6.232  -0.650  -0.077  0.00  0.00    +0.042 A 
ENDBRANCH   6  11
BRANCH   4  10
ATOM     10  C   UNL     1      -2.738   0.430  -0.992  0.00  0.00    +0.122 C 
BRANCH  10  12
ATOM      1  F   UNL     1      -4.298  -1.935  -1.010  0.00  0.00    -0.205 F 
ATOM     12  C   UNL     1      -4.166   0.383  -0.517  0.00  0.00    +0.002 A 
ATOM     15  C   UNL     1      -4.877  -0.816  -0.553  0.00  0.00    +0.128 A 
ATOM     16  C   UNL     1      -4.777   1.542  -0.039  0.00  0.00    +0.008 A 
ATOM     19  C   UNL     1      -6.199  -0.856  -0.112  0.00  0.00    +0.038 A 
ATOM     20  C   UNL     1      -6.100   1.502   0.402  0.00  0.00    +0.000 A 
ATOM     23  C   UNL     1      -6.811   0.303   0.366  0.00  0.00    +0.003 A 
ENDBRANCH  10  12
ENDBRANCH   4  10
TORSDOF 3
