MODEL 1
REMARK VINA RESULT:      -8.1      0.000      0.000
REMARK  Name = 40586239
REMARK  7 active torsions:
REMARK  status: ('A' for Active; 'I' for Inactive)
REMARK    1  A    between atoms: O_3  and  C_13
REMARK    2  A    between atoms: O_3  and  C_22
REMARK    3  A    between atoms: N_7  and  C_12
REMARK    4  A    between atoms: N_8  and  C_16
REMARK    5  A    between atoms: N_9  and  C_24
REMARK    6  A    between atoms: C_29  and  C_30
REMARK    7  A    between atoms: C_30  and  C_31
REMARK                            x       y       z     vdW  Elec       q    Type
REMARK                         _______ _______ _______ _____ _____    ______ ____
ROOT
ATOM      1  O   UNL     1     -16.659   0.578  26.216  0.00  0.00    -0.368 OA
ATOM      2  O   UNL     1     -18.396   3.017  26.880  0.00  0.00    -0.368 OA
ATOM     10  C   UNL     1     -17.129   2.903  26.199  0.00  0.00    +0.173 C 
ATOM     11  C   UNL     1     -16.352   1.806  26.899  0.00  0.00    +0.192 C 
ATOM     12  C   UNL     1     -17.335   2.365  24.802  0.00  0.00    +0.131 C 
ATOM     13  C   UNL     1     -16.934   1.831  28.292  0.00  0.00    +0.235 C 
ATOM     14  C   UNL     1     -17.435   0.870  25.044  0.00  0.00    +0.185 C 
ATOM     15  C   UNL     1     -18.387   2.153  28.024  0.00  0.00    +0.207 C 
ENDROOT
BRANCH  12   7
ATOM      5  O   UNL     1     -16.716   4.929  23.680  0.00  0.00    -0.252 OA
ATOM      7  N   UNL     1     -16.217   2.686  23.948  0.00  0.00    -0.292 N 
ATOM      9  N   UNL     1     -14.834   3.979  22.646  0.00  0.00    -0.269 N 
ATOM     23  C   UNL     1     -15.985   3.970  23.439  0.00  0.00    +0.304 C 
ATOM     32  H   UNL     1     -15.531   1.963  23.758  0.00  0.00    +0.151 HD
ATOM     34  H   UNL     1     -14.342   3.095  22.546  0.00  0.00    +0.156 HD
BRANCH   9  24
ATOM     24  C   UNL     1     -14.264   5.074  21.957  0.00  0.00    +0.035 A 
ATOM     25  C   UNL     1     -15.076   5.927  21.209  0.00  0.00    +0.024 A 
ATOM     26  C   UNL     1     -12.889   5.301  22.023  0.00  0.00    +0.024 A 
ATOM     27  C   UNL     1     -14.513   7.006  20.528  0.00  0.00    +0.013 A 
ATOM     28  C   UNL     1     -12.326   6.380  21.342  0.00  0.00    +0.013 A 
ATOM     29  C   UNL     1     -13.138   7.233  20.594  0.00  0.00    +0.017 A 
BRANCH  29  30
ATOM      6  O   UNL     1     -13.263   9.263  19.400  0.00  0.00    -0.292 OA
ATOM     30  C   UNL     1     -12.553   8.358  19.883  0.00  0.00    +0.160 C 
ATOM     31  C   UNL     1     -11.041   8.456  19.710  0.00  0.00    +0.091 C 
ENDBRANCH  29  30
ENDBRANCH   9  24
ENDBRANCH  12   7
BRANCH  13   3
ATOM      3  O   UNL     1     -16.778   0.616  28.989  0.00  0.00    -0.442 OA
BRANCH   3  22
ATOM      4  O   UNL     1     -14.844  -0.511  29.499  0.00  0.00    -0.226 OA
ATOM      8  N   UNL     1     -15.395   1.477  30.562  0.00  0.00    -0.278 N 
ATOM     22  C   UNL     1     -15.597   0.442  29.673  0.00  0.00    +0.401 C 
ATOM     33  H   UNL     1     -16.125   2.179  30.635  0.00  0.00    +0.152 HD
BRANCH   8  16
ATOM     16  C   UNL     1     -14.241   1.577  31.428  0.00  0.00    +0.076 C 
ATOM     17  C   UNL     1     -13.475   2.881  31.175  0.00  0.00    +0.022 C 
ATOM     18  C   UNL     1     -14.643   1.444  32.900  0.00  0.00    +0.022 C 
ATOM     19  C   UNL     1     -14.225   4.108  31.693  0.00  0.00    +0.002 C 
ATOM     20  C   UNL     1     -15.391   2.675  33.415  0.00  0.00    +0.002 C 
ATOM     21  C   UNL     1     -14.605   3.958  33.163  0.00  0.00    +0.000 C 
ENDBRANCH   8  16
ENDBRANCH   3  22
ENDBRANCH  13   3
TORSDOF 6
ENDMDL
MODEL 2
REMARK VINA RESULT:      -7.5      1.757      2.639
REMARK  Name = 40586239
REMARK  7 active torsions:
REMARK  status: ('A' for Active; 'I' for Inactive)
REMARK    1  A    between atoms: O_3  and  C_13
REMARK    2  A    between atoms: O_3  and  C_22
REMARK    3  A    between atoms: N_7  and  C_12
REMARK    4  A    between atoms: N_8  and  C_16
REMARK    5  A    between atoms: N_9  and  C_24
REMARK    6  A    between atoms: C_29  and  C_30
REMARK    7  A    between atoms: C_30  and  C_31
REMARK                            x       y       z     vdW  Elec       q    Type
REMARK                         _______ _______ _______ _____ _____    ______ ____
ROOT
ATOM      1  O   UNL     1     -15.923   2.610  24.507  0.00  0.00    -0.368 OA
ATOM      2  O   UNL     1     -18.606   3.969  25.108  0.00  0.00    -0.368 OA
ATOM     10  C   UNL     1     -17.273   4.504  24.973  0.00  0.00    +0.173 C 
ATOM     11  C   UNL     1     -16.328   3.483  25.575  0.00  0.00    +0.192 C 
ATOM     12  C   UNL     1     -16.876   4.549  23.516  0.00  0.00    +0.131 C 
ATOM     13  C   UNL     1     -17.209   2.773  26.575  0.00  0.00    +0.235 C 
ATOM     14  C   UNL     1     -16.419   3.124  23.262  0.00  0.00    +0.185 C 
ATOM     15  C   UNL     1     -18.544   2.753  25.866  0.00  0.00    +0.207 C 
ENDROOT
BRANCH  12   7
ATOM      5  O   UNL     1     -15.542   5.079  21.035  0.00  0.00    -0.252 OA
ATOM      7  N   UNL     1     -15.805   5.491  23.295  0.00  0.00    -0.292 N 
ATOM      9  N   UNL     1     -14.202   6.660  22.137  0.00  0.00    -0.269 N 
ATOM     23  C   UNL     1     -15.205   5.691  22.046  0.00  0.00    +0.304 C 
ATOM     32  H   UNL     1     -15.516   6.084  24.068  0.00  0.00    +0.151 HD
ATOM     34  H   UNL     1     -14.046   7.070  23.054  0.00  0.00    +0.156 HD
BRANCH   9  24
ATOM     24  C   UNL     1     -13.366   7.144  21.104  0.00  0.00    +0.035 A 
ATOM     25  C   UNL     1     -12.055   6.679  20.992  0.00  0.00    +0.024 A 
ATOM     26  C   UNL     1     -13.851   8.086  20.198  0.00  0.00    +0.024 A 
ATOM     27  C   UNL     1     -11.230   7.157  19.973  0.00  0.00    +0.013 A 
ATOM     28  C   UNL     1     -13.027   8.564  19.179  0.00  0.00    +0.013 A 
ATOM     29  C   UNL     1     -11.716   8.100  19.067  0.00  0.00    +0.017 A 
BRANCH  29  30
ATOM      6  O   UNL     1     -10.531   7.877  17.040  0.00  0.00    -0.292 OA
ATOM     30  C   UNL     1     -10.855   8.598  18.006  0.00  0.00    +0.160 C 
ATOM     31  C   UNL     1     -10.324  10.025  18.054  0.00  0.00    +0.091 C 
ENDBRANCH  29  30
ENDBRANCH   9  24
ENDBRANCH  12   7
BRANCH  13   3
ATOM      3  O   UNL     1     -16.760   1.477  26.899  0.00  0.00    -0.442 OA
BRANCH   3  22
ATOM      4  O   UNL     1     -17.455   0.115  28.613  0.00  0.00    -0.226 OA
ATOM      8  N   UNL     1     -16.155   1.994  29.019  0.00  0.00    -0.278 N 
ATOM     22  C   UNL     1     -16.844   1.105  28.221  0.00  0.00    +0.401 C 
ATOM     33  H   UNL     1     -15.732   2.798  28.565  0.00  0.00    +0.152 HD
BRANCH   8  16
ATOM     16  C   UNL     1     -16.059   1.875  30.457  0.00  0.00    +0.076 C 
ATOM     17  C   UNL     1     -14.848   1.026  30.860  0.00  0.00    +0.022 C 
ATOM     18  C   UNL     1     -16.019   3.254  31.124  0.00  0.00    +0.022 C 
ATOM     19  C   UNL     1     -13.523   1.752  30.627  0.00  0.00    +0.002 C 
ATOM     20  C   UNL     1     -14.690   3.976  30.892  0.00  0.00    +0.002 C 
ATOM     21  C   UNL     1     -13.502   3.117  31.310  0.00  0.00    +0.000 C 
ENDBRANCH   8  16
ENDBRANCH   3  22
ENDBRANCH  13   3
TORSDOF 6
ENDMDL
MODEL 3
REMARK VINA RESULT:      -7.1      2.461     11.029
REMARK  Name = 40586239
REMARK  7 active torsions:
REMARK  status: ('A' for Active; 'I' for Inactive)
REMARK    1  A    between atoms: O_3  and  C_13
REMARK    2  A    between atoms: O_3  and  C_22
REMARK    3  A    between atoms: N_7  and  C_12
REMARK    4  A    between atoms: N_8  and  C_16
REMARK    5  A    between atoms: N_9  and  C_24
REMARK    6  A    between atoms: C_29  and  C_30
REMARK    7  A    between atoms: C_30  and  C_31
REMARK                            x       y       z     vdW  Elec       q    Type
REMARK                         _______ _______ _______ _____ _____    ______ ____
ROOT
ATOM      1  O   UNL     1     -16.195   7.390  22.930  0.00  0.00    -0.368 OA
ATOM      2  O   UNL     1     -14.930   4.917  21.631  0.00  0.00    -0.368 OA
ATOM     10  C   UNL     1     -15.025   5.329  23.010  0.00  0.00    +0.173 C 
ATOM     11  C   UNL     1     -14.871   6.836  23.029  0.00  0.00    +0.192 C 
ATOM     12  C   UNL     1     -16.427   5.101  23.526  0.00  0.00    +0.131 C 
ATOM     13  C   UNL     1     -14.060   7.098  21.783  0.00  0.00    +0.235 C 
ATOM     14  C   UNL     1     -17.160   6.331  23.021  0.00  0.00    +0.185 C 
ATOM     15  C   UNL     1     -14.601   6.058  20.827  0.00  0.00    +0.207 C 
ENDROOT
BRANCH  12   7
ATOM      5  O   UNL     1     -15.706   2.847  25.142  0.00  0.00    -0.252 OA
ATOM      7  N   UNL     1     -16.449   5.030  24.967  0.00  0.00    -0.292 N 
ATOM      9  N   UNL     1     -16.202   4.110  27.058  0.00  0.00    -0.269 N 
ATOM     23  C   UNL     1     -16.080   3.885  25.683  0.00  0.00    +0.304 C 
ATOM     32  H   UNL     1     -16.682   5.869  25.489  0.00  0.00    +0.151 HD
ATOM     34  H   UNL     1     -16.529   5.030  27.342  0.00  0.00    +0.156 HD
BRANCH   9  24
ATOM     24  C   UNL     1     -15.928   3.209  28.113  0.00  0.00    +0.035 A 
ATOM     25  C   UNL     1     -16.535   1.954  28.133  0.00  0.00    +0.024 A 
ATOM     26  C   UNL     1     -15.050   3.576  29.133  0.00  0.00    +0.024 A 
ATOM     27  C   UNL     1     -16.265   1.065  29.175  0.00  0.00    +0.013 A 
ATOM     28  C   UNL     1     -14.780   2.689  30.174  0.00  0.00    +0.013 A 
ATOM     29  C   UNL     1     -15.388   1.433  30.195  0.00  0.00    +0.017 A 
BRANCH  29  30
ATOM      6  O   UNL     1     -14.678   0.905  32.382  0.00  0.00    -0.292 OA
ATOM     30  C   UNL     1     -15.108   0.506  31.280  0.00  0.00    +0.160 C 
ATOM     31  C   UNL     1     -15.334  -0.989  31.091  0.00  0.00    +0.091 C 
ENDBRANCH  29  30
ENDBRANCH   9  24
ENDBRANCH  12   7
BRANCH  13   3
ATOM      3  O   UNL     1     -14.205   8.407  21.282  0.00  0.00    -0.442 OA
BRANCH   3  22
ATOM      4  O   UNL     1     -12.864   9.852  22.461  0.00  0.00    -0.226 OA
ATOM      8  N   UNL     1     -12.399   9.306  20.254  0.00  0.00    -0.278 N 
ATOM     22  C   UNL     1     -13.125   9.247  21.425  0.00  0.00    +0.401 C 
ATOM     33  H   UNL     1     -12.756   8.788  19.457  0.00  0.00    +0.152 HD
BRANCH   8  16
ATOM     16  C   UNL     1     -11.207  10.107  20.088  0.00  0.00    +0.076 C 
ATOM     17  C   UNL     1     -10.087   9.295  19.426  0.00  0.00    +0.022 C 
ATOM     18  C   UNL     1     -11.506  11.387  19.300  0.00  0.00    +0.022 C 
ATOM     19  C   UNL     1     -10.358   9.025  17.946  0.00  0.00    +0.002 C 
ATOM     20  C   UNL     1     -11.774  11.112  17.820  0.00  0.00    +0.002 C 
ATOM     21  C   UNL     1     -10.642  10.314  17.181  0.00  0.00    +0.000 C 
ENDBRANCH   8  16
ENDBRANCH   3  22
ENDBRANCH  13   3
TORSDOF 6
ENDMDL
MODEL 4
REMARK VINA RESULT:      -7.1     29.399     34.380
REMARK  Name = 40586239
REMARK  7 active torsions:
REMARK  status: ('A' for Active; 'I' for Inactive)
REMARK    1  A    between atoms: O_3  and  C_13
REMARK    2  A    between atoms: O_3  and  C_22
REMARK    3  A    between atoms: N_7  and  C_12
REMARK    4  A    between atoms: N_8  and  C_16
REMARK    5  A    between atoms: N_9  and  C_24
REMARK    6  A    between atoms: C_29  and  C_30
REMARK    7  A    between atoms: C_30  and  C_31
REMARK                            x       y       z     vdW  Elec       q    Type
REMARK                         _______ _______ _______ _____ _____    ______ ____
ROOT
ATOM      1  O   UNL     1      14.841   9.187  18.731  0.00  0.00    -0.368 OA
ATOM      2  O   UNL     1      13.070   7.078  20.081  0.00  0.00    -0.368 OA
ATOM     10  C   UNL     1      14.308   6.960  19.350  0.00  0.00    +0.173 C 
ATOM     11  C   UNL     1      14.253   7.975  18.226  0.00  0.00    +0.192 C 
ATOM     12  C   UNL     1      15.463   7.428  20.204  0.00  0.00    +0.131 C 
ATOM     13  C   UNL     1      12.768   8.128  17.997  0.00  0.00    +0.235 C 
ATOM     14  C   UNL     1      15.405   8.935  20.027  0.00  0.00    +0.185 C 
ATOM     15  C   UNL     1      12.215   8.005  19.398  0.00  0.00    +0.207 C 
ENDROOT
BRANCH  12   7
ATOM      5  O   UNL     1      17.750   6.752  21.794  0.00  0.00    -0.252 OA
ATOM      7  N   UNL     1      16.716   6.891  19.730  0.00  0.00    -0.292 N 
ATOM      9  N   UNL     1      18.865   6.085  19.838  0.00  0.00    -0.269 N 
ATOM     23  C   UNL     1      17.789   6.586  20.576  0.00  0.00    +0.304 C 
ATOM     32  H   UNL     1      16.802   6.664  18.744  0.00  0.00    +0.151 HD
ATOM     34  H   UNL     1      18.734   6.013  18.832  0.00  0.00    +0.156 HD
BRANCH   9  24
ATOM     24  C   UNL     1      20.126   5.663  20.319  0.00  0.00    +0.035 A 
ATOM     25  C   UNL     1      21.132   6.600  20.551  0.00  0.00    +0.024 A 
ATOM     26  C   UNL     1      20.363   4.310  20.560  0.00  0.00    +0.024 A 
ATOM     27  C   UNL     1      22.377   6.183  21.024  0.00  0.00    +0.013 A 
ATOM     28  C   UNL     1      21.607   3.893  21.033  0.00  0.00    +0.013 A 
ATOM     29  C   UNL     1      22.615   4.830  21.265  0.00  0.00    +0.017 A 
BRANCH  29  30
ATOM      6  O   UNL     1      24.032   3.377  22.466  0.00  0.00    -0.292 OA
ATOM     30  C   UNL     1      23.912   4.397  21.759  0.00  0.00    +0.160 C 
ATOM     31  C   UNL     1      25.168   5.192  21.419  0.00  0.00    +0.091 C 
ENDBRANCH  29  30
ENDBRANCH   9  24
ENDBRANCH  12   7
BRANCH  13   3
ATOM      3  O   UNL     1      12.415   9.350  17.391  0.00  0.00    -0.442 OA
BRANCH   3  22
ATOM      4  O   UNL     1      12.696   8.785  15.182  0.00  0.00    -0.226 OA
ATOM      8  N   UNL     1      13.564  10.759  16.041  0.00  0.00    -0.278 N 
ATOM     22  C   UNL     1      12.879   9.565  16.113  0.00  0.00    +0.401 C 
ATOM     33  H   UNL     1      13.679  11.284  16.902  0.00  0.00    +0.152 HD
BRANCH   8  16
ATOM     16  C   UNL     1      14.173  11.263  14.830  0.00  0.00    +0.076 C 
ATOM     17  C   UNL     1      13.743  12.710  14.559  0.00  0.00    +0.022 C 
ATOM     18  C   UNL     1      15.699  11.138  14.886  0.00  0.00    +0.022 C 
ATOM     19  C   UNL     1      14.379  13.701  15.534  0.00  0.00    +0.002 C 
ATOM     20  C   UNL     1      16.332  12.133  15.861  0.00  0.00    +0.002 C 
ATOM     21  C   UNL     1      15.898  13.564  15.564  0.00  0.00    +0.000 C 
ENDBRANCH   8  16
ENDBRANCH   3  22
ENDBRANCH  13   3
TORSDOF 6
ENDMDL
MODEL 5
REMARK VINA RESULT:      -6.8     15.293     16.620
REMARK  Name = 40586239
REMARK  7 active torsions:
REMARK  status: ('A' for Active; 'I' for Inactive)
REMARK    1  A    between atoms: O_3  and  C_13
REMARK    2  A    between atoms: O_3  and  C_22
REMARK    3  A    between atoms: N_7  and  C_12
REMARK    4  A    between atoms: N_8  and  C_16
REMARK    5  A    between atoms: N_9  and  C_24
REMARK    6  A    between atoms: C_29  and  C_30
REMARK    7  A    between atoms: C_30  and  C_31
REMARK                            x       y       z     vdW  Elec       q    Type
REMARK                         _______ _______ _______ _____ _____    ______ ____
ROOT
ATOM      1  O   UNL     1      -9.695  -8.351  17.723  0.00  0.00    -0.368 OA
ATOM      2  O   UNL     1     -11.475 -10.442  16.357  0.00  0.00    -0.368 OA
ATOM     10  C   UNL     1     -11.582  -9.006  16.445  0.00  0.00    +0.173 C 
ATOM     11  C   UNL     1     -11.105  -8.614  17.828  0.00  0.00    +0.192 C 
ATOM     12  C   UNL     1     -10.583  -8.352  15.519  0.00  0.00    +0.131 C 
ATOM     13  C   UNL     1     -11.383  -9.859  18.635  0.00  0.00    +0.235 C 
ATOM     14  C   UNL     1      -9.308  -8.390  16.341  0.00  0.00    +0.185 C 
ATOM     15  C   UNL     1     -11.087 -10.957  17.638  0.00  0.00    +0.207 C 
ENDROOT
BRANCH  12   7
ATOM      5  O   UNL     1     -12.291  -7.503  13.379  0.00  0.00    -0.252 OA
ATOM      7  N   UNL     1     -10.968  -6.997  15.207  0.00  0.00    -0.292 N 
ATOM      9  N   UNL     1     -12.004  -5.282  14.083  0.00  0.00    -0.269 N 
ATOM     23  C   UNL     1     -11.810  -6.665  14.139  0.00  0.00    +0.304 C 
ATOM     32  H   UNL     1     -10.665  -6.253  15.830  0.00  0.00    +0.151 HD
ATOM     34  H   UNL     1     -11.530  -4.726  14.790  0.00  0.00    +0.156 HD
BRANCH   9  24
ATOM     24  C   UNL     1     -12.784  -4.551  13.156  0.00  0.00    +0.035 A 
ATOM     25  C   UNL     1     -14.093  -4.194  13.476  0.00  0.00    +0.024 A 
ATOM     26  C   UNL     1     -12.243  -4.190  11.923  0.00  0.00    +0.024 A 
ATOM     27  C   UNL     1     -14.862  -3.474  12.560  0.00  0.00    +0.013 A 
ATOM     28  C   UNL     1     -13.011  -3.470  11.008  0.00  0.00    +0.013 A 
ATOM     29  C   UNL     1     -14.321  -3.112  11.327  0.00  0.00    +0.017 A 
BRANCH  29  30
ATOM      6  O   UNL     1     -16.054  -1.620  10.749  0.00  0.00    -0.292 OA
ATOM     30  C   UNL     1     -15.124  -2.362  10.374  0.00  0.00    +0.160 C 
ATOM     31  C   UNL     1     -14.844  -2.470   8.880  0.00  0.00    +0.091 C 
ENDBRANCH  29  30
ENDBRANCH   9  24
ENDBRANCH  12   7
BRANCH  13   3
ATOM      3  O   UNL     1     -10.591  -9.967  19.796  0.00  0.00    -0.442 OA
BRANCH   3  22
ATOM      4  O   UNL     1     -10.285 -12.172  20.357  0.00  0.00    -0.226 OA
ATOM      8  N   UNL     1      -8.542 -10.891  19.518  0.00  0.00    -0.278 N 
ATOM     22  C   UNL     1      -9.840 -11.112  19.929  0.00  0.00    +0.401 C 
ATOM     33  H   UNL     1      -8.298  -9.949  19.228  0.00  0.00    +0.152 HD
BRANCH   8  16
ATOM     16  C   UNL     1      -7.510 -11.903  19.540  0.00  0.00    +0.076 C 
ATOM     17  C   UNL     1      -7.460 -12.666  18.211  0.00  0.00    +0.022 C 
ATOM     18  C   UNL     1      -6.146 -11.294  19.883  0.00  0.00    +0.022 C 
ATOM     19  C   UNL     1      -6.891 -11.820  17.072  0.00  0.00    +0.002 C 
ATOM     20  C   UNL     1      -5.579 -10.450  18.740  0.00  0.00    +0.002 C 
ATOM     21  C   UNL     1      -5.529 -11.234  17.432  0.00  0.00    +0.000 C 
ENDBRANCH   8  16
ENDBRANCH   3  22
ENDBRANCH  13   3
TORSDOF 6
ENDMDL
MODEL 6
REMARK VINA RESULT:      -6.8     18.967     22.016
REMARK  Name = 40586239
REMARK  7 active torsions:
REMARK  status: ('A' for Active; 'I' for Inactive)
REMARK    1  A    between atoms: O_3  and  C_13
REMARK    2  A    between atoms: O_3  and  C_22
REMARK    3  A    between atoms: N_7  and  C_12
REMARK    4  A    between atoms: N_8  and  C_16
REMARK    5  A    between atoms: N_9  and  C_24
REMARK    6  A    between atoms: C_29  and  C_30
REMARK    7  A    between atoms: C_30  and  C_31
REMARK                            x       y       z     vdW  Elec       q    Type
REMARK                         _______ _______ _______ _____ _____    ______ ____
ROOT
ATOM      1  O   UNL     1      -9.540  -7.620   9.287  0.00  0.00    -0.368 OA
ATOM      2  O   UNL     1      -9.023  -7.219   6.290  0.00  0.00    -0.368 OA
ATOM     10  C   UNL     1      -8.170  -7.038   7.440  0.00  0.00    +0.173 C 
ATOM     11  C   UNL     1      -9.042  -6.489   8.551  0.00  0.00    +0.192 C 
ATOM     12  C   UNL     1      -7.715  -8.379   7.967  0.00  0.00    +0.131 C 
ATOM     13  C   UNL     1     -10.142  -5.791   7.788  0.00  0.00    +0.235 C 
ATOM     14  C   UNL     1      -8.900  -8.813   8.810  0.00  0.00    +0.185 C 
ATOM     15  C   UNL     1     -10.324  -6.696   6.591  0.00  0.00    +0.207 C 
ENDROOT
BRANCH  12   7
ATOM      5  O   UNL     1      -6.624 -10.339   9.751  0.00  0.00    -0.252 OA
ATOM      7  N   UNL     1      -6.520  -8.249   8.766  0.00  0.00    -0.292 N 
ATOM      9  N   UNL     1      -4.881  -8.850  10.259  0.00  0.00    -0.269 N 
ATOM     23  C   UNL     1      -6.053  -9.258   9.616  0.00  0.00    +0.304 C 
ATOM     32  H   UNL     1      -5.957  -7.411   8.660  0.00  0.00    +0.151 HD
ATOM     34  H   UNL     1      -4.540  -7.918  10.037  0.00  0.00    +0.156 HD
BRANCH   9  24
ATOM     24  C   UNL     1      -4.104  -9.576  11.191  0.00  0.00    +0.035 A 
ATOM     25  C   UNL     1      -4.680 -10.028  12.378  0.00  0.00    +0.024 A 
ATOM     26  C   UNL     1      -2.761  -9.840  10.924  0.00  0.00    +0.024 A 
ATOM     27  C   UNL     1      -3.913 -10.743  13.298  0.00  0.00    +0.013 A 
ATOM     28  C   UNL     1      -1.994 -10.555  11.843  0.00  0.00    +0.013 A 
ATOM     29  C   UNL     1      -2.570 -11.007  13.030  0.00  0.00    +0.017 A 
BRANCH  29  30
ATOM      6  O   UNL     1      -1.371 -12.909  13.744  0.00  0.00    -0.292 OA
ATOM     30  C   UNL     1      -1.771 -11.753  13.990  0.00  0.00    +0.160 C 
ATOM     31  C   UNL     1      -1.404 -11.131  15.332  0.00  0.00    +0.091 C 
ENDBRANCH  29  30
ENDBRANCH   9  24
ENDBRANCH  12   7
BRANCH  13   3
ATOM      3  O   UNL     1     -11.333  -5.641   8.527  0.00  0.00    -0.442 OA
BRANCH   3  22
ATOM      4  O   UNL     1     -10.779  -3.471   9.037  0.00  0.00    -0.226 OA
ATOM      8  N   UNL     1     -12.577  -4.527  10.056  0.00  0.00    -0.278 N 
ATOM     22  C   UNL     1     -11.500  -4.451   9.197  0.00  0.00    +0.401 C 
ATOM     33  H   UNL     1     -13.059  -5.417  10.123  0.00  0.00    +0.152 HD
BRANCH   8  16
ATOM     16  C   UNL     1     -13.007  -3.436  10.902  0.00  0.00    +0.076 C 
ATOM     17  C   UNL     1     -14.520  -3.491  11.144  0.00  0.00    +0.022 C 
ATOM     18  C   UNL     1     -12.232  -3.423  12.224  0.00  0.00    +0.022 C 
ATOM     19  C   UNL     1     -14.921  -4.637  12.072  0.00  0.00    +0.002 C 
ATOM     20  C   UNL     1     -12.638  -4.570  13.150  0.00  0.00    +0.002 C 
ATOM     21  C   UNL     1     -14.145  -4.597  13.385  0.00  0.00    +0.000 C 
ENDBRANCH   8  16
ENDBRANCH   3  22
ENDBRANCH  13   3
TORSDOF 6
ENDMDL
MODEL 7
REMARK VINA RESULT:      -6.8     17.422     20.537
REMARK  Name = 40586239
REMARK  7 active torsions:
REMARK  status: ('A' for Active; 'I' for Inactive)
REMARK    1  A    between atoms: O_3  and  C_13
REMARK    2  A    between atoms: O_3  and  C_22
REMARK    3  A    between atoms: N_7  and  C_12
REMARK    4  A    between atoms: N_8  and  C_16
REMARK    5  A    between atoms: N_9  and  C_24
REMARK    6  A    between atoms: C_29  and  C_30
REMARK    7  A    between atoms: C_30  and  C_31
REMARK                            x       y       z     vdW  Elec       q    Type
REMARK                         _______ _______ _______ _____ _____    ______ ____
ROOT
ATOM      1  O   UNL     1      -6.372 -12.155  17.496  0.00  0.00    -0.368 OA
ATOM      2  O   UNL     1      -4.944 -11.595  20.152  0.00  0.00    -0.368 OA
ATOM     10  C   UNL     1      -5.959 -10.859  19.439  0.00  0.00    +0.173 C 
ATOM     11  C   UNL     1      -5.650 -11.002  17.963  0.00  0.00    +0.192 C 
ATOM     12  C   UNL     1      -7.300 -11.538  19.596  0.00  0.00    +0.131 C 
ATOM     13  C   UNL     1      -4.158 -11.238  17.963  0.00  0.00    +0.235 C 
ATOM     14  C   UNL     1      -7.233 -12.629  18.542  0.00  0.00    +0.185 C 
ATOM     15  C   UNL     1      -3.967 -12.066  19.213  0.00  0.00    +0.207 C 
ENDROOT
BRANCH  12   7
ATOM      5  O   UNL     1     -10.075 -11.957  20.175  0.00  0.00    -0.252 OA
ATOM      7  N   UNL     1      -8.384 -10.622  19.336  0.00  0.00    -0.292 N 
ATOM      9  N   UNL     1     -10.542  -9.835  19.285  0.00  0.00    -0.269 N 
ATOM     23  C   UNL     1      -9.718 -10.904  19.651  0.00  0.00    +0.304 C 
ATOM     32  H   UNL     1      -8.161  -9.703  18.965  0.00  0.00    +0.151 HD
ATOM     34  H   UNL     1     -10.085  -9.033  18.857  0.00  0.00    +0.156 HD
BRANCH   9  24
ATOM     24  C   UNL     1     -11.944  -9.728  19.434  0.00  0.00    +0.035 A 
ATOM     25  C   UNL     1     -12.762  -9.660  18.307  0.00  0.00    +0.024 A 
ATOM     26  C   UNL     1     -12.509  -9.691  20.709  0.00  0.00    +0.024 A 
ATOM     27  C   UNL     1     -14.145  -9.554  18.454  0.00  0.00    +0.013 A 
ATOM     28  C   UNL     1     -13.891  -9.585  20.857  0.00  0.00    +0.013 A 
ATOM     29  C   UNL     1     -14.710  -9.516  19.729  0.00  0.00    +0.017 A 
BRANCH  29  30
ATOM      6  O   UNL     1     -16.935 -10.036  19.141  0.00  0.00    -0.292 OA
ATOM     30  C   UNL     1     -16.152  -9.406  19.881  0.00  0.00    +0.160 C 
ATOM     31  C   UNL     1     -16.744  -8.506  20.960  0.00  0.00    +0.091 C 
ENDBRANCH  29  30
ENDBRANCH   9  24
ENDBRANCH  12   7
BRANCH  13   3
ATOM      3  O   UNL     1      -3.694 -11.901  16.809  0.00  0.00    -0.442 OA
BRANCH   3  22
ATOM      4  O   UNL     1      -2.054 -10.439  16.140  0.00  0.00    -0.226 OA
ATOM      8  N   UNL     1      -3.621 -11.261  14.639  0.00  0.00    -0.278 N 
ATOM     22  C   UNL     1      -3.031 -11.133  15.879  0.00  0.00    +0.401 C 
ATOM     33  H   UNL     1      -4.455 -11.836  14.575  0.00  0.00    +0.152 HD
BRANCH   8  16
ATOM     16  C   UNL     1      -3.154 -10.576  13.454  0.00  0.00    +0.076 C 
ATOM     17  C   UNL     1      -2.062 -11.385  12.744  0.00  0.00    +0.022 C 
ATOM     18  C   UNL     1      -4.315 -10.258  12.506  0.00  0.00    +0.022 C 
ATOM     19  C   UNL     1      -2.615 -12.632  12.054  0.00  0.00    +0.002 C 
ATOM     20  C   UNL     1      -4.864 -11.508  11.815  0.00  0.00    +0.002 C 
ATOM     21  C   UNL     1      -3.762 -12.289  11.108  0.00  0.00    +0.000 C 
ENDBRANCH   8  16
ENDBRANCH   3  22
ENDBRANCH  13   3
TORSDOF 6
ENDMDL
MODEL 8
REMARK VINA RESULT:      -6.7     32.189     35.830
REMARK  Name = 40586239
REMARK  7 active torsions:
REMARK  status: ('A' for Active; 'I' for Inactive)
REMARK    1  A    between atoms: O_3  and  C_13
REMARK    2  A    between atoms: O_3  and  C_22
REMARK    3  A    between atoms: N_7  and  C_12
REMARK    4  A    between atoms: N_8  and  C_16
REMARK    5  A    between atoms: N_9  and  C_24
REMARK    6  A    between atoms: C_29  and  C_30
REMARK    7  A    between atoms: C_30  and  C_31
REMARK                            x       y       z     vdW  Elec       q    Type
REMARK                         _______ _______ _______ _____ _____    ______ ____
ROOT
ATOM      1  O   UNL     1      21.069   6.542  23.046  0.00  0.00    -0.368 OA
ATOM      2  O   UNL     1      22.432   6.478  20.300  0.00  0.00    -0.368 OA
ATOM     10  C   UNL     1      21.172   5.943  20.754  0.00  0.00    +0.173 C 
ATOM     11  C   UNL     1      21.390   5.448  22.169  0.00  0.00    +0.192 C 
ATOM     12  C   UNL     1      20.161   7.054  20.911  0.00  0.00    +0.131 C 
ATOM     13  C   UNL     1      22.867   5.136  22.183  0.00  0.00    +0.235 C 
ATOM     14  C   UNL     1      20.509   7.617  22.277  0.00  0.00    +0.185 C 
ATOM     15  C   UNL     1      23.431   6.224  21.298  0.00  0.00    +0.207 C 
ENDROOT
BRANCH  12   7
ATOM      5  O   UNL     1      17.744   8.593  20.829  0.00  0.00    -0.252 OA
ATOM      7  N   UNL     1      18.812   6.542  20.881  0.00  0.00    -0.292 N 
ATOM      9  N   UNL     1      16.516   6.592  20.821  0.00  0.00    -0.269 N 
ATOM     23  C   UNL     1      17.680   7.365  20.842  0.00  0.00    +0.304 C 
ATOM     32  H   UNL     1      18.678   5.537  20.821  0.00  0.00    +0.151 HD
ATOM     34  H   UNL     1      16.638   5.583  20.838  0.00  0.00    +0.156 HD
BRANCH   9  24
ATOM     24  C   UNL     1      15.175   7.042  20.781  0.00  0.00    +0.035 A 
ATOM     25  C   UNL     1      14.604   7.631  21.908  0.00  0.00    +0.024 A 
ATOM     26  C   UNL     1      14.425   6.896  19.614  0.00  0.00    +0.024 A 
ATOM     27  C   UNL     1      13.281   8.073  21.869  0.00  0.00    +0.013 A 
ATOM     28  C   UNL     1      13.103   7.338  19.574  0.00  0.00    +0.013 A 
ATOM     29  C   UNL     1      12.531   7.927  20.702  0.00  0.00    +0.017 A 
BRANCH  29  30
ATOM      6  O   UNL     1      10.502   8.404  19.598  0.00  0.00    -0.292 OA
ATOM     30  C   UNL     1      11.152   8.388  20.663  0.00  0.00    +0.160 C 
ATOM     31  C   UNL     1      10.466   8.869  21.936  0.00  0.00    +0.091 C 
ENDBRANCH  29  30
ENDBRANCH   9  24
ENDBRANCH  12   7
BRANCH  13   3
ATOM      3  O   UNL     1      23.434   5.152  23.473  0.00  0.00    -0.442 OA
BRANCH   3  22
ATOM      4  O   UNL     1      22.537   3.647  24.957  0.00  0.00    -0.226 OA
ATOM      8  N   UNL     1      24.532   3.209  23.856  0.00  0.00    -0.278 N 
ATOM     22  C   UNL     1      23.422   3.966  24.169  0.00  0.00    +0.401 C 
ATOM     33  H   UNL     1      25.211   3.617  23.220  0.00  0.00    +0.152 HD
BRANCH   8  16
ATOM     16  C   UNL     1      24.805   1.909  24.427  0.00  0.00    +0.076 C 
ATOM     17  C   UNL     1      24.200   0.793  23.569  0.00  0.00    +0.022 C 
ATOM     18  C   UNL     1      26.309   1.701  24.632  0.00  0.00    +0.022 C 
ATOM     19  C   UNL     1      24.951   0.597  22.252  0.00  0.00    +0.002 C 
ATOM     20  C   UNL     1      27.056   1.503  23.311  0.00  0.00    +0.002 C 
ATOM     21  C   UNL     1      26.443   0.380  22.481  0.00  0.00    +0.000 C 
ENDBRANCH   8  16
ENDBRANCH   3  22
ENDBRANCH  13   3
TORSDOF 6
ENDMDL
MODEL 9
REMARK VINA RESULT:      -6.7      7.439     11.605
REMARK  Name = 40586239
REMARK  7 active torsions:
REMARK  status: ('A' for Active; 'I' for Inactive)
REMARK    1  A    between atoms: O_3  and  C_13
REMARK    2  A    between atoms: O_3  and  C_22
REMARK    3  A    between atoms: N_7  and  C_12
REMARK    4  A    between atoms: N_8  and  C_16
REMARK    5  A    between atoms: N_9  and  C_24
REMARK    6  A    between atoms: C_29  and  C_30
REMARK    7  A    between atoms: C_30  and  C_31
REMARK                            x       y       z     vdW  Elec       q    Type
REMARK                         _______ _______ _______ _____ _____    ______ ____
ROOT
ATOM      1  O   UNL     1     -12.275   9.318  35.011  0.00  0.00    -0.368 OA
ATOM      2  O   UNL     1     -13.244  10.136  32.218  0.00  0.00    -0.368 OA
ATOM     10  C   UNL     1     -12.742   8.883  32.727  0.00  0.00    +0.173 C 
ATOM     11  C   UNL     1     -11.648   9.219  33.721  0.00  0.00    +0.192 C 
ATOM     12  C   UNL     1     -13.797   8.202  33.567  0.00  0.00    +0.131 C 
ATOM     13  C   UNL     1     -11.162  10.562  33.230  0.00  0.00    +0.235 C 
ATOM     14  C   UNL     1     -13.645   8.902  34.905  0.00  0.00    +0.185 C 
ATOM     15  C   UNL     1     -12.441  11.204  32.740  0.00  0.00    +0.207 C 
ENDROOT
BRANCH  12   7
ATOM      5  O   UNL     1     -14.669   6.151  31.765  0.00  0.00    -0.252 OA
ATOM      7  N   UNL     1     -13.542   6.787  33.682  0.00  0.00    -0.292 N 
ATOM      9  N   UNL     1     -13.606   4.559  33.124  0.00  0.00    -0.269 N 
ATOM     23  C   UNL     1     -14.006   5.846  32.754  0.00  0.00    +0.304 C 
ATOM     32  H   UNL     1     -12.943   6.463  34.436  0.00  0.00    +0.151 HD
ATOM     34  H   UNL     1     -13.060   4.478  33.977  0.00  0.00    +0.156 HD
BRANCH   9  24
ATOM     24  C   UNL     1     -13.872   3.341  32.455  0.00  0.00    +0.035 A 
ATOM     25  C   UNL     1     -14.585   2.332  33.100  0.00  0.00    +0.024 A 
ATOM     26  C   UNL     1     -13.420   3.150  31.149  0.00  0.00    +0.024 A 
ATOM     27  C   UNL     1     -14.846   1.130  32.440  0.00  0.00    +0.013 A 
ATOM     28  C   UNL     1     -13.681   1.950  30.489  0.00  0.00    +0.013 A 
ATOM     29  C   UNL     1     -14.394   0.939  31.135  0.00  0.00    +0.017 A 
BRANCH  29  30
ATOM      6  O   UNL     1     -15.712  -0.959  30.664  0.00  0.00    -0.292 OA
ATOM     30  C   UNL     1     -14.666  -0.313  30.448  0.00  0.00    +0.160 C 
ATOM     31  C   UNL     1     -13.668  -0.870  29.440  0.00  0.00    +0.091 C 
ENDBRANCH  29  30
ENDBRANCH   9  24
ENDBRANCH  12   7
BRANCH  13   3
ATOM      3  O   UNL     1     -10.530  11.330  34.228  0.00  0.00    -0.442 OA
BRANCH   3  22
ATOM      4  O   UNL     1      -8.326  10.689  34.138  0.00  0.00    -0.226 OA
ATOM      8  N   UNL     1      -9.567  10.467  36.087  0.00  0.00    -0.278 N 
ATOM     22  C   UNL     1      -9.373  10.814  34.766  0.00  0.00    +0.401 C 
ATOM     33  H   UNL     1     -10.501  10.583  36.468  0.00  0.00    +0.152 HD
BRANCH   8  16
ATOM     16  C   UNL     1      -8.538   9.896  36.926  0.00  0.00    +0.076 C 
ATOM     17  C   UNL     1      -8.733  10.303  38.391  0.00  0.00    +0.022 C 
ATOM     18  C   UNL     1      -8.484   8.372  36.774  0.00  0.00    +0.022 C 
ATOM     19  C   UNL     1      -9.931   9.605  39.036  0.00  0.00    +0.002 C 
ATOM     20  C   UNL     1      -9.683   7.678  37.423  0.00  0.00    +0.002 C 
ATOM     21  C   UNL     1      -9.850   8.089  38.882  0.00  0.00    +0.000 C 
ENDBRANCH   8  16
ENDBRANCH   3  22
ENDBRANCH  13   3
TORSDOF 6
ENDMDL
MODEL 10
REMARK VINA RESULT:      -6.7     32.242     34.035
REMARK  Name = 40586239
REMARK  7 active torsions:
REMARK  status: ('A' for Active; 'I' for Inactive)
REMARK    1  A    between atoms: O_3  and  C_13
REMARK    2  A    between atoms: O_3  and  C_22
REMARK    3  A    between atoms: N_7  and  C_12
REMARK    4  A    between atoms: N_8  and  C_16
REMARK    5  A    between atoms: N_9  and  C_24
REMARK    6  A    between atoms: C_29  and  C_30
REMARK    7  A    between atoms: C_30  and  C_31
REMARK                            x       y       z     vdW  Elec       q    Type
REMARK                         _______ _______ _______ _____ _____    ______ ____
ROOT
ATOM      1  O   UNL     1      16.198  -2.727  30.154  0.00  0.00    -0.368 OA
ATOM      2  O   UNL     1      19.185  -2.581  30.839  0.00  0.00    -0.368 OA
ATOM     10  C   UNL     1      18.211  -1.548  30.584  0.00  0.00    +0.173 C 
ATOM     11  C   UNL     1      17.294  -2.067  29.496  0.00  0.00    +0.192 C 
ATOM     12  C   UNL     1      17.300  -1.386  31.779  0.00  0.00    +0.131 C 
ATOM     13  C   UNL     1      18.178  -3.047  28.763  0.00  0.00    +0.235 C 
ATOM     14  C   UNL     1      16.292  -2.502  31.569  0.00  0.00    +0.185 C 
ATOM     15  C   UNL     1      18.998  -3.639  29.888  0.00  0.00    +0.207 C 
ENDROOT
BRANCH  12   7
ATOM      5  O   UNL     1      18.505   1.124  32.456  0.00  0.00    -0.252 OA
ATOM      7  N   UNL     1      16.659  -0.093  31.777  0.00  0.00    -0.292 N 
ATOM      9  N   UNL     1      16.452   2.181  32.030  0.00  0.00    -0.269 N 
ATOM     23  C   UNL     1      17.322   1.091  32.123  0.00  0.00    +0.304 C 
ATOM     32  H   UNL     1      15.701  -0.029  31.449  0.00  0.00    +0.151 HD
ATOM     34  H   UNL     1      15.499   1.980  31.740  0.00  0.00    +0.156 HD
BRANCH   9  24
ATOM     24  C   UNL     1      16.734   3.542  32.294  0.00  0.00    +0.035 A 
ATOM     25  C   UNL     1      16.812   4.454  31.243  0.00  0.00    +0.024 A 
ATOM     26  C   UNL     1      16.935   3.970  33.607  0.00  0.00    +0.024 A 
ATOM     27  C   UNL     1      17.091   5.796  31.504  0.00  0.00    +0.013 A 
ATOM     28  C   UNL     1      17.213   5.311  33.867  0.00  0.00    +0.013 A 
ATOM     29  C   UNL     1      17.292   6.225  32.816  0.00  0.00    +0.017 A 
BRANCH  29  30
ATOM      6  O   UNL     1      18.584   7.964  33.749  0.00  0.00    -0.292 OA
ATOM     30  C   UNL     1      17.583   7.624  33.086  0.00  0.00    +0.160 C 
ATOM     31  C   UNL     1      16.659   8.716  32.561  0.00  0.00    +0.091 C 
ENDBRANCH  29  30
ENDBRANCH   9  24
ENDBRANCH  12   7
BRANCH  13   3
ATOM      3  O   UNL     1      17.461  -4.031  28.054  0.00  0.00    -0.442 OA
BRANCH   3  22
ATOM      4  O   UNL     1      18.626  -5.433  26.658  0.00  0.00    -0.226 OA
ATOM      8  N   UNL     1      17.644  -3.487  25.864  0.00  0.00    -0.278 N 
ATOM     22  C   UNL     1      17.972  -4.411  26.834  0.00  0.00    +0.401 C 
ATOM     33  H   UNL     1      17.135  -2.660  26.159  0.00  0.00    +0.152 HD
BRANCH   8  16
ATOM     16  C   UNL     1      18.039  -3.604  24.477  0.00  0.00    +0.076 C 
ATOM     17  C   UNL     1      16.835  -3.934  23.588  0.00  0.00    +0.022 C 
ATOM     18  C   UNL     1      18.754  -2.337  23.998  0.00  0.00    +0.022 C 
ATOM     19  C   UNL     1      15.884  -2.747  23.429  0.00  0.00    +0.002 C 
ATOM     20  C   UNL     1      17.800  -1.153  23.837  0.00  0.00    +0.002 C 
ATOM     21  C   UNL     1      16.617  -1.501  22.940  0.00  0.00    +0.000 C 
ENDBRANCH   8  16
ENDBRANCH   3  22
ENDBRANCH  13   3
TORSDOF 6
ENDMDL
