MODEL 1
REMARK VINA RESULT:      -6.9      0.000      0.000
REMARK  Name = 51137955
REMARK  6 active torsions:
REMARK  status: ('A' for Active; 'I' for Inactive)
REMARK    1  A    between atoms: N_3  and  C_5
REMARK    2  A    between atoms: C_9  and  C_13
REMARK    3  A    between atoms: C_10  and  C_16
REMARK    4  A    between atoms: C_13  and  C_17
REMARK    5  A    between atoms: C_17  and  C_22
REMARK    6  A    between atoms: C_17  and  C_23
REMARK                            x       y       z     vdW  Elec       q    Type
REMARK                         _______ _______ _______ _____ _____    ______ ____
ROOT
ATOM      2  N   UNL     1      -4.814 -10.083  14.943  0.00  0.00    -0.299 NA
ATOM      4  N   UNL     1      -7.877 -10.192  18.957  0.00  0.00    -0.360 N 
ATOM      9  C   UNL     1      -4.176 -10.990  15.906  0.00  0.00    +0.085 C 
ATOM     10  C   UNL     1      -6.175 -10.446  14.576  0.00  0.00    +0.145 C 
ATOM     11  C   UNL     1      -7.203  -9.667  15.394  0.00  0.00    +0.065 C 
ATOM     12  C   UNL     1      -4.820 -11.054  17.294  0.00  0.00    -0.021 A 
ATOM     14  C   UNL     1      -6.131 -10.594  17.611  0.00  0.00    +0.008 A 
ATOM     15  C   UNL     1      -7.193  -9.994  16.849  0.00  0.00    -0.020 A 
ATOM     18  C   UNL     1      -6.608 -10.723  18.921  0.00  0.00    +0.047 A 
ATOM     19  C   UNL     1      -8.240  -9.757  17.717  0.00  0.00    +0.087 A 
ATOM     20  C   UNL     1      -4.108 -11.685  18.346  0.00  0.00    +0.006 A 
ATOM     21  C   UNL     1      -5.873 -11.305  19.954  0.00  0.00    +0.026 A 
ATOM     24  C   UNL     1      -4.613 -11.798  19.639  0.00  0.00    +0.002 A 
ATOM     25  H   UNL     1      -4.764  -9.117  15.264  0.00  0.00    +0.123 HD
ATOM     27  H   UNL     1      -8.461 -10.147  19.781  0.00  0.00    +0.165 HD
ENDROOT
BRANCH  10  16
ATOM      1  O   UNL     1      -7.354  -9.602  12.684  0.00  0.00    -0.274 OA
ATOM      3  N   UNL     1      -5.154 -10.286  12.396  0.00  0.00    -0.311 N 
ATOM     16  C   UNL     1      -6.307 -10.068  13.132  0.00  0.00    +0.231 C 
ATOM     26  H   UNL     1      -4.346 -10.675  12.876  0.00  0.00    +0.149 HD
BRANCH   3   5
ATOM      5  C   UNL     1      -5.062  -9.971  10.960  0.00  0.00    +0.073 C 
ATOM      6  C   UNL     1      -3.690 -10.284  10.328  0.00  0.00    +0.022 C 
ATOM      7  C   UNL     1      -4.778  -8.486  10.651  0.00  0.00    +0.022 C 
ATOM      8  C   UNL     1      -3.847  -8.976   9.524  0.00  0.00    +0.004 C 
ENDBRANCH   3   5
ENDBRANCH  10  16
BRANCH   9  13
ATOM     13  C   UNL     1      -2.707 -10.532  15.958  0.00  0.00    +0.026 C 
BRANCH  13  17
ATOM     17  C   UNL     1      -1.835 -11.196  14.887  0.00  0.00    -0.015 C 
ATOM     22  C   UNL     1      -2.369 -12.562  14.457  0.00  0.00    +0.007 C 
ATOM     23  C   UNL     1      -1.739 -10.272  13.671  0.00  0.00    +0.007 C 
ENDBRANCH  13  17
ENDBRANCH   9  13
TORSDOF 4
ENDMDL
MODEL 2
REMARK VINA RESULT:      -6.6     26.769     28.528
REMARK  Name = 51137955
REMARK  6 active torsions:
REMARK  status: ('A' for Active; 'I' for Inactive)
REMARK    1  A    between atoms: N_3  and  C_5
REMARK    2  A    between atoms: C_9  and  C_13
REMARK    3  A    between atoms: C_10  and  C_16
REMARK    4  A    between atoms: C_13  and  C_17
REMARK    5  A    between atoms: C_17  and  C_22
REMARK    6  A    between atoms: C_17  and  C_23
REMARK                            x       y       z     vdW  Elec       q    Type
REMARK                         _______ _______ _______ _____ _____    ______ ____
ROOT
ATOM      2  N   UNL     1      12.559  11.008  21.709  0.00  0.00    -0.299 NA
ATOM      4  N   UNL     1      11.920   6.264  20.100  0.00  0.00    -0.360 N 
ATOM      9  C   UNL     1      12.731  11.056  20.251  0.00  0.00    +0.085 C 
ATOM     10  C   UNL     1      11.289  10.452  22.154  0.00  0.00    +0.145 C 
ATOM     11  C   UNL     1      11.420   8.974  22.515  0.00  0.00    +0.065 C 
ATOM     12  C   UNL     1      12.767   9.701  19.537  0.00  0.00    -0.021 A 
ATOM     14  C   UNL     1      12.320   8.469  20.094  0.00  0.00    +0.008 A 
ATOM     15  C   UNL     1      11.738   8.093  21.354  0.00  0.00    -0.020 A 
ATOM     18  C   UNL     1      12.394   7.299  19.328  0.00  0.00    +0.047 A 
ATOM     19  C   UNL     1      11.518   6.731  21.317  0.00  0.00    +0.087 A 
ATOM     20  C   UNL     1      13.202   9.656  18.188  0.00  0.00    +0.006 A 
ATOM     21  C   UNL     1      12.871   7.267  18.017  0.00  0.00    +0.026 A 
ATOM     24  C   UNL     1      13.263   8.474  17.452  0.00  0.00    +0.002 A 
ATOM     25  H   UNL     1      13.344  10.534  22.154  0.00  0.00    +0.123 HD
ATOM     27  H   UNL     1      11.863   5.300  19.801  0.00  0.00    +0.165 HD
ENDROOT
BRANCH  10  16
ATOM      1  O   UNL     1      11.015  10.732  24.504  0.00  0.00    -0.274 OA
ATOM      3  N   UNL     1      10.513  12.523  23.116  0.00  0.00    -0.311 N 
ATOM     16  C   UNL     1      10.928  11.229  23.383  0.00  0.00    +0.231 C 
ATOM     26  H   UNL     1      10.484  12.827  22.146  0.00  0.00    +0.149 HD
BRANCH   3   5
ATOM      5  C   UNL     1      10.124  13.464  24.182  0.00  0.00    +0.073 C 
ATOM      6  C   UNL     1       9.626  14.832  23.671  0.00  0.00    +0.022 C 
ATOM      7  C   UNL     1      11.305  14.221  24.824  0.00  0.00    +0.022 C 
ATOM      8  C   UNL     1      10.395  15.466  24.849  0.00  0.00    +0.004 C 
ENDBRANCH   3   5
ENDBRANCH  10  16
BRANCH   9  13
ATOM     13  C   UNL     1      14.021  11.869  20.038  0.00  0.00    +0.026 C 
BRANCH  13  17
ATOM     17  C   UNL     1      15.157  11.446  20.975  0.00  0.00    -0.015 C 
ATOM     22  C   UNL     1      16.219  10.603  20.269  0.00  0.00    +0.007 C 
ATOM     23  C   UNL     1      15.805  12.695  21.578  0.00  0.00    +0.007 C 
ENDBRANCH  13  17
ENDBRANCH   9  13
TORSDOF 4
ENDMDL
MODEL 3
REMARK VINA RESULT:      -6.5      2.308      6.247
REMARK  Name = 51137955
REMARK  6 active torsions:
REMARK  status: ('A' for Active; 'I' for Inactive)
REMARK    1  A    between atoms: N_3  and  C_5
REMARK    2  A    between atoms: C_9  and  C_13
REMARK    3  A    between atoms: C_10  and  C_16
REMARK    4  A    between atoms: C_13  and  C_17
REMARK    5  A    between atoms: C_17  and  C_22
REMARK    6  A    between atoms: C_17  and  C_23
REMARK                            x       y       z     vdW  Elec       q    Type
REMARK                         _______ _______ _______ _____ _____    ______ ____
ROOT
ATOM      2  N   UNL     1      -6.157  -9.449  14.858  0.00  0.00    -0.299 NA
ATOM      4  N   UNL     1      -1.537 -11.427  15.352  0.00  0.00    -0.360 N 
ATOM      9  C   UNL     1      -5.902 -10.181  13.610  0.00  0.00    +0.085 C 
ATOM     10  C   UNL     1      -6.038 -10.249  16.068  0.00  0.00    +0.145 C 
ATOM     11  C   UNL     1      -4.664 -10.087  16.714  0.00  0.00    +0.065 C 
ATOM     12  C   UNL     1      -4.481 -10.726  13.432  0.00  0.00    -0.021 A 
ATOM     14  C   UNL     1      -3.525 -10.878  14.477  0.00  0.00    +0.008 A 
ATOM     15  C   UNL     1      -3.541 -10.624  15.893  0.00  0.00    -0.020 A 
ATOM     18  C   UNL     1      -2.261 -11.403  14.183  0.00  0.00    +0.047 A 
ATOM     19  C   UNL     1      -2.298 -10.967  16.386  0.00  0.00    +0.087 A 
ATOM     20  C   UNL     1      -4.089 -11.194  12.152  0.00  0.00    +0.006 A 
ATOM     21  C   UNL     1      -1.877 -11.815  12.906  0.00  0.00    +0.026 A 
ATOM     24  C   UNL     1      -2.822 -11.713  11.893  0.00  0.00    +0.002 A 
ATOM     25  H   UNL     1      -5.581  -8.610  14.913  0.00  0.00    +0.123 HD
ATOM     27  H   UNL     1      -0.584 -11.755  15.435  0.00  0.00    +0.165 HD
ENDROOT
BRANCH  10  16
ATOM      1  O   UNL     1      -7.045  -9.943  18.206  0.00  0.00    -0.274 OA
ATOM      3  N   UNL     1      -8.054  -8.959  16.361  0.00  0.00    -0.311 N 
ATOM     16  C   UNL     1      -7.085  -9.716  16.998  0.00  0.00    +0.231 C 
ATOM     26  H   UNL     1      -7.982  -8.836  15.354  0.00  0.00    +0.149 HD
BRANCH   3   5
ATOM      5  C   UNL     1      -9.169  -8.329  17.090  0.00  0.00    +0.073 C 
ATOM      6  C   UNL     1     -10.409  -9.232  17.259  0.00  0.00    +0.022 C 
ATOM      7  C   UNL     1     -10.055  -7.407  16.225  0.00  0.00    +0.022 C 
ATOM      8  C   UNL     1     -11.265  -7.976  16.993  0.00  0.00    +0.004 C 
ENDBRANCH   3   5
ENDBRANCH  10  16
BRANCH   9  13
ATOM     13  C   UNL     1      -6.301  -9.199  12.494  0.00  0.00    +0.026 C 
BRANCH  13  17
ATOM     17  C   UNL     1      -7.633  -9.559  11.827  0.00  0.00    -0.015 C 
ATOM     22  C   UNL     1      -7.672  -9.179  10.347  0.00  0.00    +0.007 C 
ATOM     23  C   UNL     1      -7.885 -11.061  11.982  0.00  0.00    +0.007 C 
ENDBRANCH  13  17
ENDBRANCH   9  13
TORSDOF 4
ENDMDL
MODEL 4
REMARK VINA RESULT:      -6.5     19.387     22.257
REMARK  Name = 51137955
REMARK  6 active torsions:
REMARK  status: ('A' for Active; 'I' for Inactive)
REMARK    1  A    between atoms: N_3  and  C_5
REMARK    2  A    between atoms: C_9  and  C_13
REMARK    3  A    between atoms: C_10  and  C_16
REMARK    4  A    between atoms: C_13  and  C_17
REMARK    5  A    between atoms: C_17  and  C_22
REMARK    6  A    between atoms: C_17  and  C_23
REMARK                            x       y       z     vdW  Elec       q    Type
REMARK                         _______ _______ _______ _____ _____    ______ ____
ROOT
ATOM      2  N   UNL     1     -15.077   2.623  28.692  0.00  0.00    -0.299 NA
ATOM      4  N   UNL     1     -16.648   6.455  31.581  0.00  0.00    -0.360 N 
ATOM      9  C   UNL     1     -15.095   2.104  30.066  0.00  0.00    +0.085 C 
ATOM     10  C   UNL     1     -16.346   3.164  28.229  0.00  0.00    +0.145 C 
ATOM     11  C   UNL     1     -16.398   4.683  28.384  0.00  0.00    +0.065 C 
ATOM     12  C   UNL     1     -15.364   3.134  31.167  0.00  0.00    -0.021 A 
ATOM     14  C   UNL     1     -15.918   4.430  30.959  0.00  0.00    +0.008 A 
ATOM     15  C   UNL     1     -16.378   5.148  29.801  0.00  0.00    -0.020 A 
ATOM     18  C   UNL     1     -16.127   5.274  32.056  0.00  0.00    +0.047 A 
ATOM     19  C   UNL     1     -16.808   6.388  30.229  0.00  0.00    +0.087 A 
ATOM     20  C   UNL     1     -15.125   2.766  32.516  0.00  0.00    +0.006 A 
ATOM     21  C   UNL     1     -15.841   4.910  33.373  0.00  0.00    +0.026 A 
ATOM     24  C   UNL     1     -15.346   3.630  33.586  0.00  0.00    +0.002 A 
ATOM     25  H   UNL     1     -14.322   3.296  28.567  0.00  0.00    +0.123 HD
ATOM     27  H   UNL     1     -16.893   7.251  32.155  0.00  0.00    +0.165 HD
ENDROOT
BRANCH  10  16
ATOM      1  O   UNL     1     -17.023   1.820  26.382  0.00  0.00    -0.274 OA
ATOM      3  N   UNL     1     -15.755   3.717  25.958  0.00  0.00    -0.311 N 
ATOM     16  C   UNL     1     -16.417   2.815  26.774  0.00  0.00    +0.231 C 
ATOM     26  H   UNL     1     -15.290   4.508  26.396  0.00  0.00    +0.149 HD
BRANCH   3   5
ATOM      5  C   UNL     1     -15.711   3.571  24.492  0.00  0.00    +0.073 C 
ATOM      6  C   UNL     1     -14.795   4.588  23.780  0.00  0.00    +0.022 C 
ATOM      7  C   UNL     1     -16.891   4.233  23.751  0.00  0.00    +0.022 C 
ATOM      8  C   UNL     1     -15.873   4.674  22.680  0.00  0.00    +0.004 C 
ENDBRANCH   3   5
ENDBRANCH  10  16
BRANCH   9  13
ATOM     13  C   UNL     1     -13.736   1.402  30.235  0.00  0.00    +0.026 C 
BRANCH  13  17
ATOM     17  C   UNL     1     -13.868  -0.099  30.517  0.00  0.00    -0.015 C 
ATOM     22  C   UNL     1     -15.300  -0.509  30.860  0.00  0.00    +0.007 C 
ATOM     23  C   UNL     1     -13.382  -0.886  29.298  0.00  0.00    +0.007 C 
ENDBRANCH  13  17
ENDBRANCH   9  13
TORSDOF 4
ENDMDL
MODEL 5
REMARK VINA RESULT:      -6.2     26.809     28.582
REMARK  Name = 51137955
REMARK  6 active torsions:
REMARK  status: ('A' for Active; 'I' for Inactive)
REMARK    1  A    between atoms: N_3  and  C_5
REMARK    2  A    between atoms: C_9  and  C_13
REMARK    3  A    between atoms: C_10  and  C_16
REMARK    4  A    between atoms: C_13  and  C_17
REMARK    5  A    between atoms: C_17  and  C_22
REMARK    6  A    between atoms: C_17  and  C_23
REMARK                            x       y       z     vdW  Elec       q    Type
REMARK                         _______ _______ _______ _____ _____    ______ ____
ROOT
ATOM      2  N   UNL     1      15.283   8.856  20.830  0.00  0.00    -0.299 NA
ATOM      4  N   UNL     1      10.675   6.898  21.487  0.00  0.00    -0.360 N 
ATOM      9  C   UNL     1      14.588   9.773  21.744  0.00  0.00    +0.085 C 
ATOM     10  C   UNL     1      15.342   7.474  21.283  0.00  0.00    +0.145 C 
ATOM     11  C   UNL     1      14.233   6.632  20.655  0.00  0.00    +0.065 C 
ATOM     12  C   UNL     1      13.097   9.498  21.961  0.00  0.00    -0.021 A 
ATOM     14  C   UNL     1      12.433   8.279  21.640  0.00  0.00    +0.008 A 
ATOM     15  C   UNL     1      12.859   7.024  21.083  0.00  0.00    -0.020 A 
ATOM     18  C   UNL     1      11.063   8.151  21.902  0.00  0.00    +0.047 A 
ATOM     19  C   UNL     1      11.746   6.211  20.998  0.00  0.00    +0.087 A 
ATOM     20  C   UNL     1      12.310  10.489  22.600  0.00  0.00    +0.006 A 
ATOM     21  C   UNL     1      10.295   9.157  22.489  0.00  0.00    +0.026 A 
ATOM     24  C   UNL     1      10.948  10.329  22.848  0.00  0.00    +0.002 A 
ATOM     25  H   UNL     1      14.898   8.920  19.888  0.00  0.00    +0.123 HD
ATOM     27  H   UNL     1       9.734   6.536  21.551  0.00  0.00    +0.165 HD
ENDROOT
BRANCH  10  16
ATOM      1  O   UNL     1      16.770   6.248  19.821  0.00  0.00    -0.274 OA
ATOM      3  N   UNL     1      17.731   7.387  21.601  0.00  0.00    -0.311 N 
ATOM     16  C   UNL     1      16.671   6.963  20.817  0.00  0.00    +0.231 C 
ATOM     26  H   UNL     1      17.528   7.981  22.401  0.00  0.00    +0.149 HD
BRANCH   3   5
ATOM      5  C   UNL     1      19.127   7.011  21.314  0.00  0.00    +0.073 C 
ATOM      6  C   UNL     1      19.893   6.439  22.524  0.00  0.00    +0.022 C 
ATOM      7  C   UNL     1      20.121   8.191  21.341  0.00  0.00    +0.022 C 
ATOM      8  C   UNL     1      21.118   7.237  22.029  0.00  0.00    +0.004 C 
ENDBRANCH   3   5
ENDBRANCH  10  16
BRANCH   9  13
ATOM     13  C   UNL     1      14.852  11.174  21.165  0.00  0.00    +0.026 C 
BRANCH  13  17
ATOM     17  C   UNL     1      14.967  11.179  19.637  0.00  0.00    -0.015 C 
ATOM     22  C   UNL     1      13.659  11.571  18.950  0.00  0.00    +0.007 C 
ATOM     23  C   UNL     1      16.080  12.143  19.218  0.00  0.00    +0.007 C 
ENDBRANCH  13  17
ENDBRANCH   9  13
TORSDOF 4
ENDMDL
MODEL 6
REMARK VINA RESULT:      -6.2     27.167     29.102
REMARK  Name = 51137955
REMARK  6 active torsions:
REMARK  status: ('A' for Active; 'I' for Inactive)
REMARK    1  A    between atoms: N_3  and  C_5
REMARK    2  A    between atoms: C_9  and  C_13
REMARK    3  A    between atoms: C_10  and  C_16
REMARK    4  A    between atoms: C_13  and  C_17
REMARK    5  A    between atoms: C_17  and  C_22
REMARK    6  A    between atoms: C_17  and  C_23
REMARK                            x       y       z     vdW  Elec       q    Type
REMARK                         _______ _______ _______ _____ _____    ______ ____
ROOT
ATOM      2  N   UNL     1      15.917   8.717  21.431  0.00  0.00    -0.299 NA
ATOM      4  N   UNL     1      12.120   7.480  18.339  0.00  0.00    -0.360 N 
ATOM      9  C   UNL     1      14.693   8.840  22.234  0.00  0.00    +0.085 C 
ATOM     10  C   UNL     1      16.117   7.409  20.824  0.00  0.00    +0.145 C 
ATOM     11  C   UNL     1      15.633   7.383  19.376  0.00  0.00    +0.065 C 
ATOM     12  C   UNL     1      13.373   8.694  21.470  0.00  0.00    -0.021 A 
ATOM     14  C   UNL     1      13.237   8.129  20.169  0.00  0.00    +0.008 A 
ATOM     15  C   UNL     1      14.159   7.554  19.227  0.00  0.00    -0.020 A 
ATOM     18  C   UNL     1      11.968   8.041  19.586  0.00  0.00    +0.047 A 
ATOM     19  C   UNL     1      13.431   7.178  18.116  0.00  0.00    +0.087 A 
ATOM     20  C   UNL     1      12.169   9.071  22.117  0.00  0.00    +0.006 A 
ATOM     21  C   UNL     1      10.799   8.462  20.220  0.00  0.00    +0.026 A 
ATOM     24  C   UNL     1      10.920   8.969  21.508  0.00  0.00    +0.002 A 
ATOM     25  H   UNL     1      15.971   9.458  20.733  0.00  0.00    +0.123 HD
ATOM     27  H   UNL     1      11.366   7.301  17.691  0.00  0.00    +0.165 HD
ENDROOT
BRANCH  10  16
ATOM      1  O   UNL     1      18.161   6.513  19.989  0.00  0.00    -0.274 OA
ATOM      3  N   UNL     1      18.231   7.808  21.914  0.00  0.00    -0.311 N 
ATOM     16  C   UNL     1      17.598   7.184  20.852  0.00  0.00    +0.231 C 
ATOM     26  H   UNL     1      17.661   8.342  22.566  0.00  0.00    +0.149 HD
BRANCH   3   5
ATOM      5  C   UNL     1      19.688   7.728  22.123  0.00  0.00    +0.073 C 
ATOM      6  C   UNL     1      20.155   6.453  22.854  0.00  0.00    +0.022 C 
ATOM      7  C   UNL     1      20.199   8.522  23.344  0.00  0.00    +0.022 C 
ATOM      8  C   UNL     1      21.162   7.346  23.609  0.00  0.00    +0.004 C 
ENDBRANCH   3   5
ENDBRANCH  10  16
BRANCH   9  13
ATOM     13  C   UNL     1      14.822  10.206  22.933  0.00  0.00    +0.026 C 
BRANCH  13  17
ATOM     17  C   UNL     1      15.286  11.320  21.989  0.00  0.00    -0.015 C 
ATOM     22  C   UNL     1      14.160  12.290  21.626  0.00  0.00    +0.007 C 
ATOM     23  C   UNL     1      16.439  12.087  22.641  0.00  0.00    +0.007 C 
ENDBRANCH  13  17
ENDBRANCH   9  13
TORSDOF 4
ENDMDL
MODEL 7
REMARK VINA RESULT:      -6.1     20.134     22.734
REMARK  Name = 51137955
REMARK  6 active torsions:
REMARK  status: ('A' for Active; 'I' for Inactive)
REMARK    1  A    between atoms: N_3  and  C_5
REMARK    2  A    between atoms: C_9  and  C_13
REMARK    3  A    between atoms: C_10  and  C_16
REMARK    4  A    between atoms: C_13  and  C_17
REMARK    5  A    between atoms: C_17  and  C_22
REMARK    6  A    between atoms: C_17  and  C_23
REMARK                            x       y       z     vdW  Elec       q    Type
REMARK                         _______ _______ _______ _____ _____    ______ ____
ROOT
ATOM      2  N   UNL     1     -12.798   8.989  21.620  0.00  0.00    -0.299 NA
ATOM      4  N   UNL     1      -9.843  10.817  17.955  0.00  0.00    -0.360 N 
ATOM      9  C   UNL     1     -13.402  10.267  21.223  0.00  0.00    +0.085 C 
ATOM     10  C   UNL     1     -12.627   8.033  20.536  0.00  0.00    +0.145 C 
ATOM     11  C   UNL     1     -11.209   8.077  19.968  0.00  0.00    +0.065 C 
ATOM     12  C   UNL     1     -12.587  11.117  20.243  0.00  0.00    -0.021 A 
ATOM     14  C   UNL     1     -11.503  10.640  19.449  0.00  0.00    +0.008 A 
ATOM     15  C   UNL     1     -10.869   9.360  19.287  0.00  0.00    -0.020 A 
ATOM     18  C   UNL     1     -10.847  11.520  18.580  0.00  0.00    +0.047 A 
ATOM     19  C   UNL     1      -9.851   9.518  18.369  0.00  0.00    +0.087 A 
ATOM     20  C   UNL     1     -12.969  12.466  20.033  0.00  0.00    +0.006 A 
ATOM     21  C   UNL     1     -11.209  12.858  18.422  0.00  0.00    +0.026 A 
ATOM     24  C   UNL     1     -12.295  13.316  19.157  0.00  0.00    +0.002 A 
ATOM     25  H   UNL     1     -11.922   9.140  22.120  0.00  0.00    +0.123 HD
ATOM     27  H   UNL     1      -9.204  11.205  17.276  0.00  0.00    +0.165 HD
ENDROOT
BRANCH  10  16
ATOM      1  O   UNL     1     -11.937   5.934  21.428  0.00  0.00    -0.274 OA
ATOM      3  N   UNL     1     -14.207   6.418  21.378  0.00  0.00    -0.311 N 
ATOM     16  C   UNL     1     -12.868   6.689  21.153  0.00  0.00    +0.231 C 
ATOM     26  H   UNL     1     -14.891   7.122  21.111  0.00  0.00    +0.149 HD
BRANCH   3   5
ATOM      5  C   UNL     1     -14.666   5.158  21.990  0.00  0.00    +0.073 C 
ATOM      6  C   UNL     1     -16.172   5.126  22.324  0.00  0.00    +0.022 C 
ATOM      7  C   UNL     1     -14.405   5.056  23.507  0.00  0.00    +0.022 C 
ATOM      8  C   UNL     1     -15.789   4.384  23.622  0.00  0.00    +0.004 C 
ENDBRANCH   3   5
ENDBRANCH  10  16
BRANCH   9  13
ATOM     13  C   UNL     1     -13.677  10.998  22.549  0.00  0.00    +0.026 C 
BRANCH  13  17
ATOM     17  C   UNL     1     -12.752  10.546  23.684  0.00  0.00    -0.015 C 
ATOM     22  C   UNL     1     -11.673  11.579  24.011  0.00  0.00    +0.007 C 
ATOM     23  C   UNL     1     -13.588  10.260  24.934  0.00  0.00    +0.007 C 
ENDBRANCH  13  17
ENDBRANCH   9  13
TORSDOF 4
ENDMDL
MODEL 8
REMARK VINA RESULT:      -6.1     23.164     25.899
REMARK  Name = 51137955
REMARK  6 active torsions:
REMARK  status: ('A' for Active; 'I' for Inactive)
REMARK    1  A    between atoms: N_3  and  C_5
REMARK    2  A    between atoms: C_9  and  C_13
REMARK    3  A    between atoms: C_10  and  C_16
REMARK    4  A    between atoms: C_13  and  C_17
REMARK    5  A    between atoms: C_17  and  C_22
REMARK    6  A    between atoms: C_17  and  C_23
REMARK                            x       y       z     vdW  Elec       q    Type
REMARK                         _______ _______ _______ _____ _____    ______ ____
ROOT
ATOM      2  N   UNL     1      10.185   6.757   3.397  0.00  0.00    -0.299 NA
ATOM      4  N   UNL     1       9.309   6.239   8.344  0.00  0.00    -0.360 N 
ATOM      9  C   UNL     1      10.444   8.078   3.988  0.00  0.00    +0.085 C 
ATOM     10  C   UNL     1      10.963   5.671   3.974  0.00  0.00    +0.145 C 
ATOM     11  C   UNL     1      10.168   4.915   5.037  0.00  0.00    +0.065 C 
ATOM     12  C   UNL     1      10.070   8.235   5.465  0.00  0.00    -0.021 A 
ATOM     14  C   UNL     1       9.828   7.160   6.368  0.00  0.00    +0.008 A 
ATOM     15  C   UNL     1       9.853   5.727   6.248  0.00  0.00    -0.020 A 
ATOM     18  C   UNL     1       9.507   7.440   7.702  0.00  0.00    +0.047 A 
ATOM     19  C   UNL     1       9.519   5.204   7.482  0.00  0.00    +0.087 A 
ATOM     20  C   UNL     1      10.032   9.539   6.021  0.00  0.00    +0.006 A 
ATOM     21  C   UNL     1       9.428   8.733   8.219  0.00  0.00    +0.026 A 
ATOM     24  C   UNL     1       9.710   9.783   7.355  0.00  0.00    +0.002 A 
ATOM     25  H   UNL     1       9.189   6.543   3.407  0.00  0.00    +0.123 HD
ATOM     27  H   UNL     1       9.059   6.141   9.318  0.00  0.00    +0.165 HD
ENDROOT
BRANCH  10  16
ATOM      1  O   UNL     1      10.353   4.204   2.197  0.00  0.00    -0.274 OA
ATOM      3  N   UNL     1      12.610   4.595   2.578  0.00  0.00    -0.311 N 
ATOM     16  C   UNL     1      11.257   4.747   2.831  0.00  0.00    +0.231 C 
ATOM     26  H   UNL     1      13.267   5.099   3.169  0.00  0.00    +0.149 HD
BRANCH   3   5
ATOM      5  C   UNL     1      13.119   3.743   1.489  0.00  0.00    +0.073 C 
ATOM      6  C   UNL     1      14.656   3.733   1.356  0.00  0.00    +0.022 C 
ATOM      7  C   UNL     1      13.080   4.401   0.094  0.00  0.00    +0.022 C 
ATOM      8  C   UNL     1      14.447   3.740  -0.173  0.00  0.00    +0.004 C 
ENDBRANCH   3   5
ENDBRANCH  10  16
BRANCH   9  13
ATOM     13  C   UNL     1       9.688   9.065   3.080  0.00  0.00    +0.026 C 
BRANCH  13  17
ATOM     17  C   UNL     1       8.275   8.591   2.725  0.00  0.00    -0.015 C 
ATOM     22  C   UNL     1       7.209   9.173   3.654  0.00  0.00    +0.007 C 
ATOM     23  C   UNL     1       7.963   8.972   1.277  0.00  0.00    +0.007 C 
ENDBRANCH  13  17
ENDBRANCH   9  13
TORSDOF 4
ENDMDL
MODEL 9
REMARK VINA RESULT:      -6.0      2.188      5.633
REMARK  Name = 51137955
REMARK  6 active torsions:
REMARK  status: ('A' for Active; 'I' for Inactive)
REMARK    1  A    between atoms: N_3  and  C_5
REMARK    2  A    between atoms: C_9  and  C_13
REMARK    3  A    between atoms: C_10  and  C_16
REMARK    4  A    between atoms: C_13  and  C_17
REMARK    5  A    between atoms: C_17  and  C_22
REMARK    6  A    between atoms: C_17  and  C_23
REMARK                            x       y       z     vdW  Elec       q    Type
REMARK                         _______ _______ _______ _____ _____    ______ ____
ROOT
ATOM      2  N   UNL     1      -6.449 -10.535  16.090  0.00  0.00    -0.299 NA
ATOM      4  N   UNL     1      -3.305 -12.469  12.644  0.00  0.00    -0.360 N 
ATOM      9  C   UNL     1      -5.104 -10.101  16.491  0.00  0.00    +0.085 C 
ATOM     10  C   UNL     1      -6.831 -10.159  14.737  0.00  0.00    +0.145 C 
ATOM     11  C   UNL     1      -6.597 -11.301  13.750  0.00  0.00    +0.065 C 
ATOM     12  C   UNL     1      -3.941 -10.713  15.703  0.00  0.00    -0.021 A 
ATOM     14  C   UNL     1      -4.059 -11.371  14.445  0.00  0.00    +0.008 A 
ATOM     15  C   UNL     1      -5.159 -11.654  13.563  0.00  0.00    -0.020 A 
ATOM     18  C   UNL     1      -2.912 -11.877  13.821  0.00  0.00    +0.047 A 
ATOM     19  C   UNL     1      -4.651 -12.336  12.476  0.00  0.00    +0.087 A 
ATOM     20  C   UNL     1      -2.624 -10.559  16.207  0.00  0.00    +0.006 A 
ATOM     21  C   UNL     1      -1.629 -11.756  14.357  0.00  0.00    +0.026 A 
ATOM     24  C   UNL     1      -1.502 -11.074  15.560  0.00  0.00    +0.002 A 
ATOM     25  H   UNL     1      -6.569 -11.535  16.242  0.00  0.00    +0.123 HD
ATOM     27  H   UNL     1      -2.681 -12.923  11.990  0.00  0.00    +0.165 HD
ENDROOT
BRANCH  10  16
ATOM      1  O   UNL     1      -9.123 -10.573  14.233  0.00  0.00    -0.274 OA
ATOM      3  N   UNL     1      -8.603  -8.756  15.582  0.00  0.00    -0.311 N 
ATOM     16  C   UNL     1      -8.299  -9.865  14.809  0.00  0.00    +0.231 C 
ATOM     26  H   UNL     1      -7.835  -8.249  16.014  0.00  0.00    +0.149 HD
BRANCH   3   5
ATOM      5  C   UNL     1      -9.987  -8.299  15.797  0.00  0.00    +0.073 C 
ATOM      6  C   UNL     1     -10.198  -6.787  15.569  0.00  0.00    +0.022 C 
ATOM      7  C   UNL     1     -10.350  -8.048  17.276  0.00  0.00    +0.022 C 
ATOM      8  C   UNL     1     -11.137  -6.812  16.793  0.00  0.00    +0.004 C 
ENDBRANCH   3   5
ENDBRANCH  10  16
BRANCH   9  13
ATOM     13  C   UNL     1      -5.026 -10.414  17.996  0.00  0.00    +0.026 C 
BRANCH  13  17
ATOM     17  C   UNL     1      -5.724 -11.725  18.372  0.00  0.00    -0.015 C 
ATOM     22  C   UNL     1      -4.760 -12.912  18.418  0.00  0.00    +0.007 C 
ATOM     23  C   UNL     1      -6.408 -11.562  19.731  0.00  0.00    +0.007 C 
ENDBRANCH  13  17
ENDBRANCH   9  13
TORSDOF 4
ENDMDL
MODEL 10
REMARK VINA RESULT:      -5.9     29.132     30.236
REMARK  Name = 51137955
REMARK  6 active torsions:
REMARK  status: ('A' for Active; 'I' for Inactive)
REMARK    1  A    between atoms: N_3  and  C_5
REMARK    2  A    between atoms: C_9  and  C_13
REMARK    3  A    between atoms: C_10  and  C_16
REMARK    4  A    between atoms: C_13  and  C_17
REMARK    5  A    between atoms: C_17  and  C_22
REMARK    6  A    between atoms: C_17  and  C_23
REMARK                            x       y       z     vdW  Elec       q    Type
REMARK                         _______ _______ _______ _____ _____    ______ ____
ROOT
ATOM      2  N   UNL     1      -1.898  12.185  34.543  0.00  0.00    -0.299 NA
ATOM      4  N   UNL     1      -1.570   8.188  37.613  0.00  0.00    -0.360 N 
ATOM      9  C   UNL     1      -3.155  12.162  35.303  0.00  0.00    +0.085 C 
ATOM     10  C   UNL     1      -0.694  12.227  35.360  0.00  0.00    +0.145 C 
ATOM     11  C   UNL     1      -0.097  10.835  35.551  0.00  0.00    +0.065 C 
ATOM     12  C   UNL     1      -3.384  10.929  36.182  0.00  0.00    -0.021 A 
ATOM     14  C   UNL     1      -2.373  10.006  36.578  0.00  0.00    +0.008 A 
ATOM     15  C   UNL     1      -0.958   9.910  36.343  0.00  0.00    -0.020 A 
ATOM     18  C   UNL     1      -2.713   8.923  37.398  0.00  0.00    +0.047 A 
ATOM     19  C   UNL     1      -0.509   8.775  36.989  0.00  0.00    +0.087 A 
ATOM     20  C   UNL     1      -4.678  10.708  36.720  0.00  0.00    +0.006 A 
ATOM     21  C   UNL     1      -4.003   8.696  37.879  0.00  0.00    +0.026 A 
ATOM     24  C   UNL     1      -4.982   9.620  37.535  0.00  0.00    +0.002 A 
ATOM     25  H   UNL     1      -1.863  11.416  33.875  0.00  0.00    +0.123 HD
ATOM     27  H   UNL     1      -1.522   7.345  38.168  0.00  0.00    +0.165 HD
ENDROOT
BRANCH  10  16
ATOM      1  O   UNL     1       0.766  14.091  35.084  0.00  0.00    -0.274 OA
ATOM      3  N   UNL     1       0.542  12.595  33.322  0.00  0.00    -0.311 N 
ATOM     16  C   UNL     1       0.273  13.077  34.593  0.00  0.00    +0.231 C 
ATOM     26  H   UNL     1       0.076  11.742  33.024  0.00  0.00    +0.149 HD
BRANCH   3   5
ATOM      5  C   UNL     1       1.476  13.270  32.404  0.00  0.00    +0.073 C 
ATOM      6  C   UNL     1       0.844  14.412  31.581  0.00  0.00    +0.022 C 
ATOM      7  C   UNL     1       1.696  12.533  31.066  0.00  0.00    +0.022 C 
ATOM      8  C   UNL     1       1.690  13.918  30.389  0.00  0.00    +0.004 C 
ENDBRANCH   3   5
ENDBRANCH  10  16
BRANCH   9  13
ATOM     13  C   UNL     1      -4.255  12.342  34.241  0.00  0.00    +0.026 C 
BRANCH  13  17
ATOM     17  C   UNL     1      -5.089  13.610  34.451  0.00  0.00    -0.015 C 
ATOM     22  C   UNL     1      -6.549  13.304  34.791  0.00  0.00    +0.007 C 
ATOM     23  C   UNL     1      -4.462  14.446  35.569  0.00  0.00    +0.007 C 
ENDBRANCH  13  17
ENDBRANCH   9  13
TORSDOF 4
ENDMDL
