REMARK  Name = 11882875
REMARK  3 active torsions:
REMARK  status: ('A' for Active; 'I' for Inactive)
REMARK    1  A    between atoms: N_7  and  C_10
REMARK    2  A    between atoms: C_18  and  C_23
REMARK    3  A    between atoms: C_21  and  C_24
REMARK                            x       y       z     vdW  Elec       q    Type
REMARK                         _______ _______ _______ _____ _____    ______ ____
ROOT
ATOM      2  O   UNL     1       1.108   2.600  -0.511  0.00  0.00    -0.273 OA
ATOM      3  O   UNL     1      -1.905  -1.273  -2.277  0.00  0.00    -0.270 OA
ATOM      6  N   UNL     1      -0.093  -0.368  -1.143  0.00  0.00    -0.286 N 
ATOM      8  N   UNL     1      -1.139   2.258  -0.268  0.00  0.00    -0.283 N 
ATOM      9  C   UNL     1       0.392   0.359   0.024  0.00  0.00    +0.164 C 
ATOM     10  C   UNL     1       2.790  -0.162  -0.731  0.00  0.00    +0.077 C 
ATOM     11  C   UNL     1       1.826   0.015   0.442  0.00  0.00    +0.054 C 
ATOM     12  C   UNL     1       2.201  -1.156  -1.725  0.00  0.00    +0.041 C 
ATOM     13  C   UNL     1       0.850  -0.670  -2.223  0.00  0.00    +0.111 C 
ATOM     14  C   UNL     1       0.174   1.826  -0.299  0.00  0.00    +0.238 C 
ATOM     15  C   UNL     1      -1.454  -0.580  -1.364  0.00  0.00    +0.249 C 
ATOM     16  C   UNL     1      -2.435   0.126  -0.497  0.00  0.00    +0.059 A 
ATOM     17  C   UNL     1      -2.304   1.472  -0.108  0.00  0.00    +0.046 A 
ATOM     19  C   UNL     1      -3.638  -0.555  -0.243  0.00  0.00    +0.026 A 
ATOM     20  C   UNL     1      -3.407   2.123   0.466  0.00  0.00    +0.025 A 
ATOM     21  C   UNL     1      -4.706   0.094   0.374  0.00  0.00    +0.018 A 
ATOM     22  C   UNL     1      -4.596   1.437   0.716  0.00  0.00    +0.013 A 
ATOM     32  H   UNL     1      -1.274   3.266  -0.258  0.00  0.00    +0.155 HD
ENDROOT
BRANCH  21  24
ATOM      5  O   UNL     1      -6.915   0.117   1.212  0.00  0.00    -0.463 OA
ATOM     24  C   UNL     1      -5.934  -0.618   0.632  0.00  0.00    +0.135 A 
ATOM     26  C   UNL     1      -6.346  -1.908   0.418  0.00  0.00    +0.050 A 
ATOM     29  C   UNL     1      -7.675  -1.976   0.900  0.00  0.00    +0.042 A 
ATOM     30  C   UNL     1      -7.974  -0.719   1.372  0.00  0.00    +0.196 A 
ENDBRANCH  21  24
BRANCH  10   7
ATOM      4  O   UNL     1       4.926   1.511   0.041  0.00  0.00    -0.270 OA
ATOM      7  N   UNL     1       4.084  -0.604  -0.267  0.00  0.00    -0.308 N 
ATOM     18  C   UNL     1       5.090   0.291   0.096  0.00  0.00    +0.251 C 
ATOM     31  H   UNL     1       4.219  -1.603  -0.160  0.00  0.00    +0.149 HD
BRANCH  18  23
ATOM      1  S   UNL     1       7.595   0.727   1.034  0.00  0.00    -0.092 S 
ATOM     23  C   UNL     1       6.340  -0.312   0.579  0.00  0.00    +0.074 A 
ATOM     25  C   UNL     1       6.621  -1.628   0.708  0.00  0.00    +0.021 A 
ATOM     27  C   UNL     1       7.941  -1.812   1.210  0.00  0.00    +0.008 A 
ATOM     28  C   UNL     1       8.583  -0.614   1.431  0.00  0.00    +0.046 A 
ENDBRANCH  18  23
ENDBRANCH  10   7
TORSDOF 3
