MODEL 1
REMARK VINA RESULT:      -6.0      0.000      0.000
REMARK  Name = 26745471
REMARK  8 active torsions:
REMARK  status: ('A' for Active; 'I' for Inactive)
REMARK    1  A    between atoms: S_2  and  N_7
REMARK    2  A    between atoms: S_2  and  C_15
REMARK    3  A    between atoms: O_5  and  C_16
REMARK    4  A    between atoms: O_5  and  C_25
REMARK    5  A    between atoms: N_8  and  C_17
REMARK    6  A    between atoms: C_10  and  C_16
REMARK    7  A    between atoms: C_15  and  C_19
REMARK    8  A    between atoms: C_17  and  C_20
REMARK                            x       y       z     vdW  Elec       q    Type
REMARK                         _______ _______ _______ _____ _____    ______ ____
ROOT
ATOM      7  N   UNL     1      10.451   5.826   3.599  0.00  0.00    -0.161 NA
ATOM      8  N   UNL     1      11.526   6.364   7.141  0.00  0.00    -0.328 N 
ATOM      9  N   UNL     1       9.332   6.424   7.560  0.00  0.00    -0.240 NA
ATOM     10  C   UNL     1       9.117   6.506   3.770  0.00  0.00    +0.194 C 
ATOM     11  C   UNL     1      11.522   6.194   4.597  0.00  0.00    +0.165 C 
ATOM     12  C   UNL     1       8.515   6.251   5.169  0.00  0.00    +0.089 C 
ATOM     13  C   UNL     1      10.901   6.283   5.933  0.00  0.00    +0.057 A 
ATOM     14  C   UNL     1       9.558   6.326   6.216  0.00  0.00    +0.066 A 
ATOM     18  C   UNL     1      10.538   6.447   8.092  0.00  0.00    +0.200 A 
ENDROOT
BRANCH   7   2
ATOM      2  S   UNL     1      10.997   5.598   1.992  0.00  0.00    +0.037 S 
ATOM      3  O   UNL     1      12.016   6.583   1.704  0.00  0.00    -0.158 OA
ATOM      4  O   UNL     1       9.847   5.419   1.133  0.00  0.00    -0.158 OA
BRANCH   2  15
ATOM     15  C   UNL     1      11.791   4.024   2.182  0.00  0.00    +0.220 C 
BRANCH  15  19
ATOM     19  C   UNL     1      12.947   3.978   1.232  0.00  0.00    -0.025 A 
ATOM     21  C   UNL     1      14.253   3.976   1.720  0.00  0.00    +0.005 A 
ATOM     22  C   UNL     1      12.717   3.938  -0.144  0.00  0.00    +0.005 A 
ATOM     26  C   UNL     1      15.329   3.933   0.832  0.00  0.00    +0.000 A 
ATOM     27  C   UNL     1      13.792   3.895  -1.030  0.00  0.00    +0.000 A 
ATOM     30  C   UNL     1      15.098   3.893  -0.542  0.00  0.00    +0.000 A 
ENDBRANCH  15  19
ENDBRANCH   2  15
ENDBRANCH   7   2
BRANCH  10  16
ATOM      6  O   UNL     1      10.083   8.690   4.057  0.00  0.00    -0.249 OA
ATOM     16  C   UNL     1       9.279   7.966   3.486  0.00  0.00    +0.326 C 
BRANCH  16   5
ATOM      5  O   UNL     1       8.404   8.340   2.509  0.00  0.00    -0.467 OA
ATOM     25  C   UNL     1       8.999   8.875   1.322  0.00  0.00    +0.280 C 
ENDBRANCH  16   5
ENDBRANCH  10  16
BRANCH   8  17
ATOM     17  C   UNL     1      12.946   6.372   7.392  0.00  0.00    +0.158 C 
BRANCH  17  20
ATOM      1 CL   UNL     1      15.671  11.404   5.521  0.00  0.00    -0.084 Cl
ATOM     20  C   UNL     1      13.629   7.633   6.925  0.00  0.00    -0.028 A 
ATOM     23  C   UNL     1      14.896   7.567   6.344  0.00  0.00    +0.007 A 
ATOM     24  C   UNL     1      12.993   8.867   7.071  0.00  0.00    +0.007 A 
ATOM     28  C   UNL     1      15.527   8.732   5.911  0.00  0.00    +0.020 A 
ATOM     29  C   UNL     1      13.625  10.033   6.639  0.00  0.00    +0.020 A 
ATOM     31  C   UNL     1      14.892   9.965   6.059  0.00  0.00    +0.041 A 
ENDBRANCH  17  20
ENDBRANCH   8  17
TORSDOF 7
ENDMDL
MODEL 2
REMARK VINA RESULT:      -6.0     25.172     27.932
REMARK  Name = 26745471
REMARK  8 active torsions:
REMARK  status: ('A' for Active; 'I' for Inactive)
REMARK    1  A    between atoms: S_2  and  N_7
REMARK    2  A    between atoms: S_2  and  C_15
REMARK    3  A    between atoms: O_5  and  C_16
REMARK    4  A    between atoms: O_5  and  C_25
REMARK    5  A    between atoms: N_8  and  C_17
REMARK    6  A    between atoms: C_10  and  C_16
REMARK    7  A    between atoms: C_15  and  C_19
REMARK    8  A    between atoms: C_17  and  C_20
REMARK                            x       y       z     vdW  Elec       q    Type
REMARK                         _______ _______ _______ _____ _____    ______ ____
ROOT
ATOM      7  N   UNL     1      -5.669 -11.353  15.019  0.00  0.00    -0.161 NA
ATOM      8  N   UNL     1      -2.452 -11.562  13.121  0.00  0.00    -0.328 N 
ATOM      9  N   UNL     1      -2.277 -13.571  14.083  0.00  0.00    -0.240 NA
ATOM     10  C   UNL     1      -5.237 -12.310  16.100  0.00  0.00    +0.194 C 
ATOM     11  C   UNL     1      -4.564 -10.677  14.244  0.00  0.00    +0.165 C 
ATOM     12  C   UNL     1      -4.340 -13.439  15.546  0.00  0.00    +0.089 C 
ATOM     13  C   UNL     1      -3.509 -11.674  13.973  0.00  0.00    +0.057 A 
ATOM     14  C   UNL     1      -3.378 -12.911  14.553  0.00  0.00    +0.066 A 
ATOM     18  C   UNL     1      -1.738 -12.731  13.222  0.00  0.00    +0.200 A 
ENDROOT
BRANCH   7   2
ATOM      2  S   UNL     1      -7.028 -10.369  15.363  0.00  0.00    +0.037 S 
ATOM      3  O   UNL     1      -7.574  -9.880  14.117  0.00  0.00    -0.158 OA
ATOM      4  O   UNL     1      -6.690  -9.476  16.449  0.00  0.00    -0.158 OA
BRANCH   2  15
ATOM     15  C   UNL     1      -8.125 -11.612  15.994  0.00  0.00    +0.220 C 
BRANCH  15  19
ATOM     19  C   UNL     1      -9.025 -10.959  16.997  0.00  0.00    -0.025 A 
ATOM     21  C   UNL     1     -10.009 -10.066  16.575  0.00  0.00    +0.005 A 
ATOM     22  C   UNL     1      -8.879 -11.244  18.355  0.00  0.00    +0.005 A 
ATOM     26  C   UNL     1     -10.847  -9.458  17.511  0.00  0.00    +0.000 A 
ATOM     27  C   UNL     1      -9.716 -10.637  19.290  0.00  0.00    +0.000 A 
ATOM     30  C   UNL     1     -10.700  -9.743  18.867  0.00  0.00    +0.000 A 
ENDBRANCH  15  19
ENDBRANCH   2  15
ENDBRANCH   7   2
BRANCH  10  16
ATOM      6  O   UNL     1      -3.787 -10.610  16.989  0.00  0.00    -0.249 OA
ATOM     16  C   UNL     1      -4.560 -11.538  17.187  0.00  0.00    +0.326 C 
BRANCH  16   5
ATOM      5  O   UNL     1      -4.939 -12.030  18.401  0.00  0.00    -0.467 OA
ATOM     25  C   UNL     1      -3.903 -12.106  19.385  0.00  0.00    +0.280 C 
ENDBRANCH  16   5
ENDBRANCH  10  16
BRANCH   8  17
ATOM     17  C   UNL     1      -2.126 -10.439  12.277  0.00  0.00    +0.158 C 
BRANCH  17  20
ATOM      1 CL   UNL     1      -5.466 -10.163   7.276  0.00  0.00    -0.084 Cl
ATOM     20  C   UNL     1      -2.962 -10.369  11.023  0.00  0.00    -0.028 A 
ATOM     23  C   UNL     1      -3.503 -11.535  10.480  0.00  0.00    +0.007 A 
ATOM     24  C   UNL     1      -3.194  -9.140  10.407  0.00  0.00    +0.007 A 
ATOM     28  C   UNL     1      -4.277 -11.471   9.322  0.00  0.00    +0.020 A 
ATOM     29  C   UNL     1      -3.968  -9.076   9.247  0.00  0.00    +0.020 A 
ATOM     31  C   UNL     1      -4.509 -10.242   8.705  0.00  0.00    +0.041 A 
ENDBRANCH  17  20
ENDBRANCH   8  17
TORSDOF 7
ENDMDL
MODEL 3
REMARK VINA RESULT:      -5.9     25.766     27.694
REMARK  Name = 26745471
REMARK  8 active torsions:
REMARK  status: ('A' for Active; 'I' for Inactive)
REMARK    1  A    between atoms: S_2  and  N_7
REMARK    2  A    between atoms: S_2  and  C_15
REMARK    3  A    between atoms: O_5  and  C_16
REMARK    4  A    between atoms: O_5  and  C_25
REMARK    5  A    between atoms: N_8  and  C_17
REMARK    6  A    between atoms: C_10  and  C_16
REMARK    7  A    between atoms: C_15  and  C_19
REMARK    8  A    between atoms: C_17  and  C_20
REMARK                            x       y       z     vdW  Elec       q    Type
REMARK                         _______ _______ _______ _____ _____    ______ ____
ROOT
ATOM      7  N   UNL     1      -5.856 -10.749  16.686  0.00  0.00    -0.161 NA
ATOM      8  N   UNL     1      -8.546 -10.191  14.147  0.00  0.00    -0.328 N 
ATOM      9  N   UNL     1      -9.336  -8.727  15.638  0.00  0.00    -0.240 NA
ATOM     10  C   UNL     1      -6.702 -10.325  17.858  0.00  0.00    +0.194 C 
ATOM     11  C   UNL     1      -6.600 -11.198  15.452  0.00  0.00    +0.165 C 
ATOM     12  C   UNL     1      -7.665  -9.176  17.488  0.00  0.00    +0.089 C 
ATOM     13  C   UNL     1      -7.749 -10.295  15.248  0.00  0.00    +0.057 A 
ATOM     14  C   UNL     1      -8.256  -9.391  16.148  0.00  0.00    +0.066 A 
ATOM     18  C   UNL     1      -9.487  -9.233  14.430  0.00  0.00    +0.200 A 
ENDROOT
BRANCH   7   2
ATOM      2  S   UNL     1      -4.435 -11.636  17.046  0.00  0.00    +0.037 S 
ATOM      3  O   UNL     1      -4.445 -12.860  16.277  0.00  0.00    -0.158 OA
ATOM      4  O   UNL     1      -4.241 -11.638  18.479  0.00  0.00    -0.158 OA
BRANCH   2  15
ATOM     15  C   UNL     1      -3.233 -10.546  16.330  0.00  0.00    +0.220 C 
BRANCH  15  19
ATOM     19  C   UNL     1      -2.876 -11.085  14.979  0.00  0.00    -0.025 A 
ATOM     21  C   UNL     1      -1.831 -11.999  14.846  0.00  0.00    +0.005 A 
ATOM     22  C   UNL     1      -3.588 -10.672  13.852  0.00  0.00    +0.005 A 
ATOM     26  C   UNL     1      -1.499 -12.501  13.586  0.00  0.00    +0.000 A 
ATOM     27  C   UNL     1      -3.256 -11.173  12.595  0.00  0.00    +0.000 A 
ATOM     30  C   UNL     1      -2.212 -12.087  12.462  0.00  0.00    +0.000 A 
ENDBRANCH  15  19
ENDBRANCH   2  15
ENDBRANCH   7   2
BRANCH  10  16
ATOM      6  O   UNL     1      -7.462 -12.607  17.824  0.00  0.00    -0.249 OA
ATOM     16  C   UNL     1      -7.431 -11.521  18.386  0.00  0.00    +0.326 C 
BRANCH  16   5
ATOM      5  O   UNL     1      -8.037 -11.201  19.565  0.00  0.00    -0.467 OA
ATOM     25  C   UNL     1      -9.383 -11.664  19.710  0.00  0.00    +0.280 C 
ENDBRANCH  16   5
ENDBRANCH  10  16
BRANCH   8  17
ATOM     17  C   UNL     1      -8.441 -10.940  12.919  0.00  0.00    +0.158 C 
BRANCH  17  20
ATOM      1 CL   UNL     1      -4.140  -8.900   9.234  0.00  0.00    -0.084 Cl
ATOM     20  C   UNL     1      -7.362 -10.429  11.996  0.00  0.00    -0.028 A 
ATOM     23  C   UNL     1      -6.951 -11.200  10.909  0.00  0.00    +0.007 A 
ATOM     24  C   UNL     1      -6.776  -9.184  12.230  0.00  0.00    +0.007 A 
ATOM     28  C   UNL     1      -5.954 -10.727  10.055  0.00  0.00    +0.020 A 
ATOM     29  C   UNL     1      -5.779  -8.712  11.376  0.00  0.00    +0.020 A 
ATOM     31  C   UNL     1      -5.368  -9.484  10.289  0.00  0.00    +0.041 A 
ENDBRANCH  17  20
ENDBRANCH   8  17
TORSDOF 7
ENDMDL
MODEL 4
REMARK VINA RESULT:      -5.9     24.646     27.145
REMARK  Name = 26745471
REMARK  8 active torsions:
REMARK  status: ('A' for Active; 'I' for Inactive)
REMARK    1  A    between atoms: S_2  and  N_7
REMARK    2  A    between atoms: S_2  and  C_15
REMARK    3  A    between atoms: O_5  and  C_16
REMARK    4  A    between atoms: O_5  and  C_25
REMARK    5  A    between atoms: N_8  and  C_17
REMARK    6  A    between atoms: C_10  and  C_16
REMARK    7  A    between atoms: C_15  and  C_19
REMARK    8  A    between atoms: C_17  and  C_20
REMARK                            x       y       z     vdW  Elec       q    Type
REMARK                         _______ _______ _______ _____ _____    ______ ____
ROOT
ATOM      7  N   UNL     1      -4.213 -10.679  13.978  0.00  0.00    -0.161 NA
ATOM      8  N   UNL     1      -6.660 -10.990  16.789  0.00  0.00    -0.328 N 
ATOM      9  N   UNL     1      -4.867 -10.675  18.085  0.00  0.00    -0.240 NA
ATOM     10  C   UNL     1      -3.028 -11.129  14.794  0.00  0.00    +0.194 C 
ATOM     11  C   UNL     1      -5.572 -11.094  14.486  0.00  0.00    +0.165 C 
ATOM     12  C   UNL     1      -3.116 -10.639  16.255  0.00  0.00    +0.089 C 
ATOM     13  C   UNL     1      -5.584 -10.946  15.954  0.00  0.00    +0.057 A 
ATOM     14  C   UNL     1      -4.498 -10.757  16.771  0.00  0.00    +0.066 A 
ATOM     18  C   UNL     1      -6.177 -10.821  18.064  0.00  0.00    +0.200 A 
ENDROOT
BRANCH   7   2
ATOM      2  S   UNL     1      -4.028 -10.710  12.275  0.00  0.00    +0.037 S 
ATOM      3  O   UNL     1      -4.566 -11.954  11.772  0.00  0.00    -0.158 OA
ATOM      4  O   UNL     1      -2.690 -10.270  11.946  0.00  0.00    -0.158 OA
BRANCH   2  15
ATOM     15  C   UNL     1      -5.155  -9.410  11.844  0.00  0.00    +0.220 C 
BRANCH  15  19
ATOM     19  C   UNL     1      -5.545  -9.600  10.411  0.00  0.00    -0.025 A 
ATOM     21  C   UNL     1      -6.858  -9.939  10.084  0.00  0.00    +0.005 A 
ATOM     22  C   UNL     1      -4.594  -9.441   9.403  0.00  0.00    +0.005 A 
ATOM     26  C   UNL     1      -7.220 -10.116   8.747  0.00  0.00    +0.000 A 
ATOM     27  C   UNL     1      -4.956  -9.618   8.068  0.00  0.00    +0.000 A 
ATOM     30  C   UNL     1      -6.269  -9.956   7.741  0.00  0.00    +0.000 A 
ENDBRANCH  15  19
ENDBRANCH   2  15
ENDBRANCH   7   2
BRANCH  10  16
ATOM      6  O   UNL     1      -3.733 -13.394  15.192  0.00  0.00    -0.249 OA
ATOM     16  C   UNL     1      -2.920 -12.619  14.707  0.00  0.00    +0.326 C 
BRANCH  16   5
ATOM      5  O   UNL     1      -1.795 -12.955  14.014  0.00  0.00    -0.467 OA
ATOM     25  C   UNL     1      -1.835 -14.223  13.352  0.00  0.00    +0.280 C 
ENDBRANCH  16   5
ENDBRANCH  10  16
BRANCH   8  17
ATOM     17  C   UNL     1      -8.042 -11.184  16.425  0.00  0.00    +0.158 C 
BRANCH  17  20
ATOM      1 CL   UNL     1     -11.127  -6.036  15.953  0.00  0.00    -0.084 Cl
ATOM     20  C   UNL     1      -8.816  -9.894  16.307  0.00  0.00    -0.028 A 
ATOM     23  C   UNL     1      -9.094  -9.140  17.447  0.00  0.00    +0.007 A 
ATOM     24  C   UNL     1      -9.254  -9.456  15.056  0.00  0.00    +0.007 A 
ATOM     28  C   UNL     1      -9.808  -7.947  17.337  0.00  0.00    +0.020 A 
ATOM     29  C   UNL     1      -9.970  -8.263  14.947  0.00  0.00    +0.020 A 
ATOM     31  C   UNL     1     -10.247  -7.509  16.088  0.00  0.00    +0.041 A 
ENDBRANCH  17  20
ENDBRANCH   8  17
TORSDOF 7
ENDMDL
MODEL 5
REMARK VINA RESULT:      -5.9     24.544     26.740
REMARK  Name = 26745471
REMARK  8 active torsions:
REMARK  status: ('A' for Active; 'I' for Inactive)
REMARK    1  A    between atoms: S_2  and  N_7
REMARK    2  A    between atoms: S_2  and  C_15
REMARK    3  A    between atoms: O_5  and  C_16
REMARK    4  A    between atoms: O_5  and  C_25
REMARK    5  A    between atoms: N_8  and  C_17
REMARK    6  A    between atoms: C_10  and  C_16
REMARK    7  A    between atoms: C_15  and  C_19
REMARK    8  A    between atoms: C_17  and  C_20
REMARK                            x       y       z     vdW  Elec       q    Type
REMARK                         _______ _______ _______ _____ _____    ______ ____
ROOT
ATOM      7  N   UNL     1      -3.941 -10.312  12.782  0.00  0.00    -0.161 NA
ATOM      8  N   UNL     1      -5.021 -11.501  16.161  0.00  0.00    -0.328 N 
ATOM      9  N   UNL     1      -2.923 -11.013  16.753  0.00  0.00    -0.240 NA
ATOM     10  C   UNL     1      -2.483 -10.622  13.002  0.00  0.00    +0.194 C 
ATOM     11  C   UNL     1      -4.923 -11.061  13.651  0.00  0.00    +0.165 C 
ATOM     12  C   UNL     1      -2.054 -10.368  14.463  0.00  0.00    +0.089 C 
ATOM     13  C   UNL     1      -4.377 -11.124  15.020  0.00  0.00    +0.057 A 
ATOM     14  C   UNL     1      -3.093 -10.834  15.409  0.00  0.00    +0.066 A 
ATOM     18  C   UNL     1      -4.103 -11.417  17.179  0.00  0.00    +0.200 A 
ENDROOT
BRANCH   7   2
ATOM      2  S   UNL     1      -4.439 -10.067  11.162  0.00  0.00    +0.037 S 
ATOM      3  O   UNL     1      -5.180 -11.229  10.723  0.00  0.00    -0.158 OA
ATOM      4  O   UNL     1      -3.319  -9.548  10.407  0.00  0.00    -0.158 OA
BRANCH   2  15
ATOM     15  C   UNL     1      -5.591  -8.743  11.416  0.00  0.00    +0.220 C 
BRANCH  15  19
ATOM     19  C   UNL     1      -6.649  -8.851  10.362  0.00  0.00    -0.025 A 
ATOM     21  C   UNL     1      -6.361  -8.498   9.044  0.00  0.00    +0.005 A 
ATOM     22  C   UNL     1      -7.926  -9.303  10.699  0.00  0.00    +0.005 A 
ATOM     26  C   UNL     1      -7.349  -8.599   8.063  0.00  0.00    +0.000 A 
ATOM     27  C   UNL     1      -8.912  -9.404   9.719  0.00  0.00    +0.000 A 
ATOM     30  C   UNL     1      -8.623  -9.051   8.401  0.00  0.00    +0.000 A 
ENDBRANCH  15  19
ENDBRANCH   2  15
ENDBRANCH   7   2
BRANCH  10  16
ATOM      6  O   UNL     1      -2.650 -12.528  11.543  0.00  0.00    -0.249 OA
ATOM     16  C   UNL     1      -2.220 -12.032  12.576  0.00  0.00    +0.326 C 
BRANCH  16   5
ATOM      5  O   UNL     1      -1.442 -12.652  13.509  0.00  0.00    -0.467 OA
ATOM     25  C   UNL     1      -1.767 -14.020  13.770  0.00  0.00    +0.280 C 
ENDBRANCH  16   5
ENDBRANCH  10  16
BRANCH   8  17
ATOM     17  C   UNL     1      -6.395 -11.918  16.290  0.00  0.00    +0.158 C 
BRANCH  17  20
ATOM      1 CL   UNL     1     -10.293  -7.331  16.359  0.00  0.00    -0.084 Cl
ATOM     20  C   UNL     1      -7.371 -10.767  16.308  0.00  0.00    -0.028 A 
ATOM     23  C   UNL     1      -8.231 -10.565  15.227  0.00  0.00    +0.007 A 
ATOM     24  C   UNL     1      -7.415  -9.906  17.404  0.00  0.00    +0.007 A 
ATOM     28  C   UNL     1      -9.134  -9.503  15.243  0.00  0.00    +0.020 A 
ATOM     29  C   UNL     1      -8.318  -8.842  17.419  0.00  0.00    +0.020 A 
ATOM     31  C   UNL     1      -9.177  -8.641  16.339  0.00  0.00    +0.041 A 
ENDBRANCH  17  20
ENDBRANCH   8  17
TORSDOF 7
ENDMDL
MODEL 6
REMARK VINA RESULT:      -5.8     23.214     25.869
REMARK  Name = 26745471
REMARK  8 active torsions:
REMARK  status: ('A' for Active; 'I' for Inactive)
REMARK    1  A    between atoms: S_2  and  N_7
REMARK    2  A    between atoms: S_2  and  C_15
REMARK    3  A    between atoms: O_5  and  C_16
REMARK    4  A    between atoms: O_5  and  C_25
REMARK    5  A    between atoms: N_8  and  C_17
REMARK    6  A    between atoms: C_10  and  C_16
REMARK    7  A    between atoms: C_15  and  C_19
REMARK    8  A    between atoms: C_17  and  C_20
REMARK                            x       y       z     vdW  Elec       q    Type
REMARK                         _______ _______ _______ _____ _____    ______ ____
ROOT
ATOM      7  N   UNL     1      17.984  -4.146  24.150  0.00  0.00    -0.161 NA
ATOM      8  N   UNL     1      17.694  -7.019  26.528  0.00  0.00    -0.328 N 
ATOM      9  N   UNL     1      19.905  -7.182  26.245  0.00  0.00    -0.240 NA
ATOM     10  C   UNL     1      19.236  -4.660  23.487  0.00  0.00    +0.194 C 
ATOM     11  C   UNL     1      17.135  -5.171  24.862  0.00  0.00    +0.165 C 
ATOM     12  C   UNL     1      20.167  -5.376  24.490  0.00  0.00    +0.089 C 
ATOM     13  C   UNL     1      18.031  -6.095  25.584  0.00  0.00    +0.057 A 
ATOM     14  C   UNL     1      19.389  -6.217  25.426  0.00  0.00    +0.066 A 
ATOM     18  C   UNL     1      18.858  -7.649  26.896  0.00  0.00    +0.200 A 
ENDROOT
BRANCH   7   2
ATOM      2  S   UNL     1      17.114  -2.932  23.312  0.00  0.00    +0.037 S 
ATOM      3  O   UNL     1      15.863  -3.492  22.850  0.00  0.00    -0.158 OA
ATOM      4  O   UNL     1      18.019  -2.248  22.415  0.00  0.00    -0.158 OA
BRANCH   2  15
ATOM     15  C   UNL     1      16.762  -1.847  24.670  0.00  0.00    +0.220 C 
BRANCH  15  19
ATOM     19  C   UNL     1      18.001  -1.744  25.504  0.00  0.00    -0.025 A 
ATOM     21  C   UNL     1      18.068  -2.393  26.737  0.00  0.00    +0.005 A 
ATOM     22  C   UNL     1      19.088  -0.997  25.049  0.00  0.00    +0.005 A 
ATOM     26  C   UNL     1      19.224  -2.296  27.514  0.00  0.00    +0.000 A 
ATOM     27  C   UNL     1      20.242  -0.901  25.826  0.00  0.00    +0.000 A 
ATOM     30  C   UNL     1      20.310  -1.550  27.058  0.00  0.00    +0.000 A 
ENDBRANCH  15  19
ENDBRANCH   2  15
ENDBRANCH   7   2
BRANCH  10  16
ATOM      6  O   UNL     1      18.002  -6.427  22.421  0.00  0.00    -0.249 OA
ATOM     16  C   UNL     1      18.849  -5.548  22.347  0.00  0.00    +0.326 C 
BRANCH  16   5
ATOM      5  O   UNL     1      19.581  -5.219  21.244  0.00  0.00    -0.467 OA
ATOM     25  C   UNL     1      19.848  -6.295  20.340  0.00  0.00    +0.280 C 
ENDBRANCH  16   5
ENDBRANCH  10  16
BRANCH   8  17
ATOM     17  C   UNL     1      16.378  -7.301  27.044  0.00  0.00    +0.158 C 
BRANCH  17  20
ATOM      1 CL   UNL     1      14.953  -4.015  31.882  0.00  0.00    -0.084 Cl
ATOM     20  C   UNL     1      16.020  -6.476  28.255  0.00  0.00    -0.028 A 
ATOM     23  C   UNL     1      14.823  -6.711  28.931  0.00  0.00    +0.007 A 
ATOM     24  C   UNL     1      16.888  -5.479  28.701  0.00  0.00    +0.007 A 
ATOM     28  C   UNL     1      14.493  -5.950  30.052  0.00  0.00    +0.020 A 
ATOM     29  C   UNL     1      16.558  -4.717  29.822  0.00  0.00    +0.020 A 
ATOM     31  C   UNL     1      15.360  -4.953  30.497  0.00  0.00    +0.041 A 
ENDBRANCH  17  20
ENDBRANCH   8  17
TORSDOF 7
ENDMDL
MODEL 7
REMARK VINA RESULT:      -5.7     25.927     28.529
REMARK  Name = 26745471
REMARK  8 active torsions:
REMARK  status: ('A' for Active; 'I' for Inactive)
REMARK    1  A    between atoms: S_2  and  N_7
REMARK    2  A    between atoms: S_2  and  C_15
REMARK    3  A    between atoms: O_5  and  C_16
REMARK    4  A    between atoms: O_5  and  C_25
REMARK    5  A    between atoms: N_8  and  C_17
REMARK    6  A    between atoms: C_10  and  C_16
REMARK    7  A    between atoms: C_15  and  C_19
REMARK    8  A    between atoms: C_17  and  C_20
REMARK                            x       y       z     vdW  Elec       q    Type
REMARK                         _______ _______ _______ _____ _____    ______ ____
ROOT
ATOM      7  N   UNL     1      -5.325 -12.469  16.553  0.00  0.00    -0.161 NA
ATOM      8  N   UNL     1      -2.234 -11.788  14.559  0.00  0.00    -0.328 N 
ATOM      9  N   UNL     1      -1.628 -10.576  16.335  0.00  0.00    -0.240 NA
ATOM     10  C   UNL     1      -5.228 -11.205  17.368  0.00  0.00    +0.194 C 
ATOM     11  C   UNL     1      -4.598 -12.469  15.230  0.00  0.00    +0.165 C 
ATOM     12  C   UNL     1      -3.762 -10.829  17.676  0.00  0.00    +0.089 C 
ATOM     13  C   UNL     1      -3.293 -11.807  15.417  0.00  0.00    +0.057 A 
ATOM     14  C   UNL     1      -2.899 -11.054  16.495  0.00  0.00    +0.066 A 
ATOM     18  C   UNL     1      -1.255 -11.033  15.157  0.00  0.00    +0.200 A 
ENDROOT
BRANCH   7   2
ATOM      2  S   UNL     1      -6.840 -13.268  16.554  0.00  0.00    +0.037 S 
ATOM      3  O   UNL     1      -6.619 -14.681  16.340  0.00  0.00    -0.158 OA
ATOM      4  O   UNL     1      -7.766 -12.511  15.742  0.00  0.00    -0.158 OA
BRANCH   2  15
ATOM     15  C   UNL     1      -7.283 -13.033  18.256  0.00  0.00    +0.220 C 
BRANCH  15  19
ATOM     19  C   UNL     1      -8.776 -13.088  18.350  0.00  0.00    -0.025 A 
ATOM     21  C   UNL     1      -9.498 -11.943  18.686  0.00  0.00    +0.005 A 
ATOM     22  C   UNL     1      -9.446 -14.287  18.104  0.00  0.00    +0.005 A 
ATOM     26  C   UNL     1     -10.890 -11.997  18.774  0.00  0.00    +0.000 A 
ATOM     27  C   UNL     1     -10.837 -14.340  18.192  0.00  0.00    +0.000 A 
ATOM     30  C   UNL     1     -11.558 -13.195  18.527  0.00  0.00    +0.000 A 
ENDBRANCH  15  19
ENDBRANCH   2  15
ENDBRANCH   7   2
BRANCH  10  16
ATOM      6  O   UNL     1      -5.626  -9.685  15.546  0.00  0.00    -0.249 OA
ATOM     16  C   UNL     1      -5.949 -10.109  16.647  0.00  0.00    +0.326 C 
BRANCH  16   5
ATOM      5  O   UNL     1      -6.996  -9.677  17.406  0.00  0.00    -0.467 OA
ATOM     25  C   UNL     1      -8.111  -9.155  16.676  0.00  0.00    +0.280 C 
ENDBRANCH  16   5
ENDBRANCH  10  16
BRANCH   8  17
ATOM     17  C   UNL     1      -2.146 -12.422  13.267  0.00  0.00    +0.158 C 
BRANCH  17  20
ATOM      1 CL   UNL     1      -4.331  -9.045   8.788  0.00  0.00    -0.084 Cl
ATOM     20  C   UNL     1      -2.694 -11.575  12.146  0.00  0.00    -0.028 A 
ATOM     23  C   UNL     1      -2.071 -10.374  11.809  0.00  0.00    +0.007 A 
ATOM     24  C   UNL     1      -3.825 -11.994  11.444  0.00  0.00    +0.007 A 
ATOM     28  C   UNL     1      -2.577  -9.591  10.771  0.00  0.00    +0.020 A 
ATOM     29  C   UNL     1      -4.332 -11.211  10.406  0.00  0.00    +0.020 A 
ATOM     31  C   UNL     1      -3.707 -10.010  10.071  0.00  0.00    +0.041 A 
ENDBRANCH  17  20
ENDBRANCH   8  17
TORSDOF 7
ENDMDL
MODEL 8
REMARK VINA RESULT:      -5.6      3.442      5.506
REMARK  Name = 26745471
REMARK  8 active torsions:
REMARK  status: ('A' for Active; 'I' for Inactive)
REMARK    1  A    between atoms: S_2  and  N_7
REMARK    2  A    between atoms: S_2  and  C_15
REMARK    3  A    between atoms: O_5  and  C_16
REMARK    4  A    between atoms: O_5  and  C_25
REMARK    5  A    between atoms: N_8  and  C_17
REMARK    6  A    between atoms: C_10  and  C_16
REMARK    7  A    between atoms: C_15  and  C_19
REMARK    8  A    between atoms: C_17  and  C_20
REMARK                            x       y       z     vdW  Elec       q    Type
REMARK                         _______ _______ _______ _____ _____    ______ ____
ROOT
ATOM      7  N   UNL     1      13.873   8.856   3.818  0.00  0.00    -0.161 NA
ATOM      8  N   UNL     1      10.361   9.309   5.022  0.00  0.00    -0.328 N 
ATOM      9  N   UNL     1      11.059  11.354   5.590  0.00  0.00    -0.240 NA
ATOM     10  C   UNL     1      14.458   9.882   4.754  0.00  0.00    +0.194 C 
ATOM     11  C   UNL     1      12.544   8.264   4.221  0.00  0.00    +0.165 C 
ATOM     12  C   UNL     1      13.500  11.073   4.975  0.00  0.00    +0.089 C 
ATOM     13  C   UNL     1      11.697   9.347   4.757  0.00  0.00    +0.057 A 
ATOM     14  C   UNL     1      12.102  10.608   5.116  0.00  0.00    +0.066 A 
ATOM     18  C   UNL     1      10.023  10.543   5.522  0.00  0.00    +0.200 A 
ENDROOT
BRANCH   7   2
ATOM      2  S   UNL     1      14.973   7.759   3.097  0.00  0.00    +0.037 S 
ATOM      3  O   UNL     1      15.042   6.567   3.913  0.00  0.00    -0.158 OA
ATOM      4  O   UNL     1      16.162   8.484   2.706  0.00  0.00    -0.158 OA
BRANCH   2  15
ATOM     15  C   UNL     1      14.060   7.368   1.627  0.00  0.00    +0.220 C 
BRANCH  15  19
ATOM     19  C   UNL     1      13.810   5.891   1.625  0.00  0.00    -0.025 A 
ATOM     21  C   UNL     1      12.549   5.396   1.952  0.00  0.00    +0.005 A 
ATOM     22  C   UNL     1      14.841   5.010   1.296  0.00  0.00    +0.005 A 
ATOM     26  C   UNL     1      12.317   4.019   1.950  0.00  0.00    +0.000 A 
ATOM     27  C   UNL     1      14.610   3.635   1.294  0.00  0.00    +0.000 A 
ATOM     30  C   UNL     1      13.348   3.140   1.621  0.00  0.00    +0.000 A 
ENDBRANCH  15  19
ENDBRANCH   2  15
ENDBRANCH   7   2
BRANCH  10  16
ATOM      6  O   UNL     1      14.024   8.938   6.922  0.00  0.00    -0.249 OA
ATOM     16  C   UNL     1      14.825   9.210   6.039  0.00  0.00    +0.326 C 
BRANCH  16   5
ATOM      5  O   UNL     1      16.166   8.961   6.056  0.00  0.00    -0.467 OA
ATOM     25  C   UNL     1      17.007  10.118   6.037  0.00  0.00    +0.280 C 
ENDBRANCH  16   5
ENDBRANCH  10  16
BRANCH   8  17
ATOM     17  C   UNL     1       9.463   8.197   4.830  0.00  0.00    +0.158 C 
BRANCH  17  20
ATOM      1 CL   UNL     1       9.379   4.363   9.471  0.00  0.00    -0.084 Cl
ATOM     20  C   UNL     1       9.443   7.236   5.993  0.00  0.00    -0.028 A 
ATOM     23  C   UNL     1       8.990   7.662   7.242  0.00  0.00    +0.007 A 
ATOM     24  C   UNL     1       9.877   5.922   5.820  0.00  0.00    +0.007 A 
ATOM     28  C   UNL     1       8.970   6.774   8.317  0.00  0.00    +0.020 A 
ATOM     29  C   UNL     1       9.859   5.034   6.896  0.00  0.00    +0.020 A 
ATOM     31  C   UNL     1       9.405   5.460   8.144  0.00  0.00    +0.041 A 
ENDBRANCH  17  20
ENDBRANCH   8  17
TORSDOF 7
ENDMDL
MODEL 9
REMARK VINA RESULT:      -5.6     24.934     26.910
REMARK  Name = 26745471
REMARK  8 active torsions:
REMARK  status: ('A' for Active; 'I' for Inactive)
REMARK    1  A    between atoms: S_2  and  N_7
REMARK    2  A    between atoms: S_2  and  C_15
REMARK    3  A    between atoms: O_5  and  C_16
REMARK    4  A    between atoms: O_5  and  C_25
REMARK    5  A    between atoms: N_8  and  C_17
REMARK    6  A    between atoms: C_10  and  C_16
REMARK    7  A    between atoms: C_15  and  C_19
REMARK    8  A    between atoms: C_17  and  C_20
REMARK                            x       y       z     vdW  Elec       q    Type
REMARK                         _______ _______ _______ _____ _____    ______ ____
ROOT
ATOM      7  N   UNL     1      -3.707 -11.450  12.106  0.00  0.00    -0.161 NA
ATOM      8  N   UNL     1      -3.956 -10.509  15.718  0.00  0.00    -0.328 N 
ATOM      9  N   UNL     1      -1.863 -11.285  15.831  0.00  0.00    -0.240 NA
ATOM     10  C   UNL     1      -2.660 -12.511  12.326  0.00  0.00    +0.194 C 
ATOM     11  C   UNL     1      -4.548 -11.081  13.304  0.00  0.00    +0.165 C 
ATOM     12  C   UNL     1      -1.672 -12.122  13.448  0.00  0.00    +0.089 C 
ATOM     13  C   UNL     1      -3.668 -11.020  14.488  0.00  0.00    +0.057 A 
ATOM     14  C   UNL     1      -2.383 -11.492  14.583  0.00  0.00    +0.066 A 
ATOM     18  C   UNL     1      -2.837 -10.692  16.493  0.00  0.00    +0.200 A 
ENDROOT
BRANCH   7   2
ATOM      2  S   UNL     1      -4.544 -11.495  10.612  0.00  0.00    +0.037 S 
ATOM      3  O   UNL     1      -5.960 -11.615  10.877  0.00  0.00    -0.158 OA
ATOM      4  O   UNL     1      -3.856 -12.405   9.723  0.00  0.00    -0.158 OA
BRANCH   2  15
ATOM     15  C   UNL     1      -4.226  -9.840  10.059  0.00  0.00    +0.220 C 
BRANCH  15  19
ATOM     19  C   UNL     1      -5.253  -9.501   9.023  0.00  0.00    -0.025 A 
ATOM     21  C   UNL     1      -6.299  -8.633   9.334  0.00  0.00    +0.005 A 
ATOM     22  C   UNL     1      -5.163 -10.054   7.745  0.00  0.00    +0.005 A 
ATOM     26  C   UNL     1      -7.255  -8.318   8.367  0.00  0.00    +0.000 A 
ATOM     27  C   UNL     1      -6.118  -9.739   6.780  0.00  0.00    +0.000 A 
ATOM     30  C   UNL     1      -7.164  -8.871   7.091  0.00  0.00    +0.000 A 
ENDBRANCH  15  19
ENDBRANCH   2  15
ENDBRANCH   7   2
BRANCH  10  16
ATOM      6  O   UNL     1      -4.557 -13.952  12.657  0.00  0.00    -0.249 OA
ATOM     16  C   UNL     1      -3.343 -13.813  12.605  0.00  0.00    +0.326 C 
BRANCH  16   5
ATOM      5  O   UNL     1      -2.407 -14.788  12.786  0.00  0.00    -0.467 OA
ATOM     25  C   UNL     1      -2.112 -15.579  11.630  0.00  0.00    +0.280 C 
ENDBRANCH  16   5
ENDBRANCH  10  16
BRANCH   8  17
ATOM     17  C   UNL     1      -5.192  -9.901  16.144  0.00  0.00    +0.158 C 
BRANCH  17  20
ATOM      1 CL   UNL     1      -8.192 -13.189  20.198  0.00  0.00    -0.084 Cl
ATOM     20  C   UNL     1      -5.945 -10.724  17.160  0.00  0.00    -0.028 A 
ATOM     23  C   UNL     1      -6.891 -11.659  16.739  0.00  0.00    +0.007 A 
ATOM     24  C   UNL     1      -5.694 -10.551  18.522  0.00  0.00    +0.007 A 
ATOM     28  C   UNL     1      -7.586 -12.421  17.678  0.00  0.00    +0.020 A 
ATOM     29  C   UNL     1      -6.390 -11.312  19.462  0.00  0.00    +0.020 A 
ATOM     31  C   UNL     1      -7.336 -12.247  19.039  0.00  0.00    +0.041 A 
ENDBRANCH  17  20
ENDBRANCH   8  17
TORSDOF 7
ENDMDL
MODEL 10
REMARK VINA RESULT:      -5.6      4.357      6.505
REMARK  Name = 26745471
REMARK  8 active torsions:
REMARK  status: ('A' for Active; 'I' for Inactive)
REMARK    1  A    between atoms: S_2  and  N_7
REMARK    2  A    between atoms: S_2  and  C_15
REMARK    3  A    between atoms: O_5  and  C_16
REMARK    4  A    between atoms: O_5  and  C_25
REMARK    5  A    between atoms: N_8  and  C_17
REMARK    6  A    between atoms: C_10  and  C_16
REMARK    7  A    between atoms: C_15  and  C_19
REMARK    8  A    between atoms: C_17  and  C_20
REMARK                            x       y       z     vdW  Elec       q    Type
REMARK                         _______ _______ _______ _____ _____    ______ ____
ROOT
ATOM      7  N   UNL     1      13.560   8.556   4.676  0.00  0.00    -0.161 NA
ATOM      8  N   UNL     1       9.873   7.960   4.488  0.00  0.00    -0.328 N 
ATOM      9  N   UNL     1       9.765  10.159   4.106  0.00  0.00    -0.240 NA
ATOM     10  C   UNL     1      13.432  10.002   5.081  0.00  0.00    +0.194 C 
ATOM     11  C   UNL     1      12.364   7.676   4.948  0.00  0.00    +0.165 C 
ATOM     12  C   UNL     1      12.225  10.685   4.402  0.00  0.00    +0.089 C 
ATOM     13  C   UNL     1      11.144   8.434   4.611  0.00  0.00    +0.057 A 
ATOM     14  C   UNL     1      11.052   9.784   4.377  0.00  0.00    +0.066 A 
ATOM     18  C   UNL     1       9.077   9.037   4.182  0.00  0.00    +0.200 A 
ENDROOT
BRANCH   7   2
ATOM      2  S   UNL     1      15.084   7.819   4.937  0.00  0.00    +0.037 S 
ATOM      3  O   UNL     1      15.357   6.916   3.840  0.00  0.00    -0.158 OA
ATOM      4  O   UNL     1      15.162   7.387   6.315  0.00  0.00    -0.158 OA
BRANCH   2  15
ATOM     15  C   UNL     1      16.124   9.243   4.748  0.00  0.00    +0.220 C 
BRANCH  15  19
ATOM     19  C   UNL     1      17.534   8.819   5.024  0.00  0.00    -0.025 A 
ATOM     21  C   UNL     1      18.358   8.410   3.977  0.00  0.00    +0.005 A 
ATOM     22  C   UNL     1      18.022   8.832   6.332  0.00  0.00    +0.005 A 
ATOM     26  C   UNL     1      19.671   8.015   4.237  0.00  0.00    +0.000 A 
ATOM     27  C   UNL     1      19.333   8.438   6.590  0.00  0.00    +0.000 A 
ATOM     30  C   UNL     1      20.158   8.029   5.543  0.00  0.00    +0.000 A 
ENDBRANCH  15  19
ENDBRANCH   2  15
ENDBRANCH   7   2
BRANCH  10  16
ATOM      6  O   UNL     1      12.887   9.200   7.283  0.00  0.00    -0.249 OA
ATOM     16  C   UNL     1      13.355  10.081   6.573  0.00  0.00    +0.326 C 
BRANCH  16   5
ATOM      5  O   UNL     1      13.881  11.266   6.995  0.00  0.00    -0.467 OA
ATOM     25  C   UNL     1      13.153  11.927   8.035  0.00  0.00    +0.280 C 
ENDBRANCH  16   5
ENDBRANCH  10  16
BRANCH   8  17
ATOM     17  C   UNL     1       9.429   6.598   4.651  0.00  0.00    +0.158 C 
BRANCH  17  20
ATOM      1 CL   UNL     1       9.420   4.759  10.384  0.00  0.00    -0.084 Cl
ATOM     20  C   UNL     1       9.428   6.137   6.088  0.00  0.00    -0.028 A 
ATOM     23  C   UNL     1       8.942   6.978   7.090  0.00  0.00    +0.007 A 
ATOM     24  C   UNL     1       9.912   4.870   6.415  0.00  0.00    +0.007 A 
ATOM     28  C   UNL     1       8.940   6.552   8.418  0.00  0.00    +0.020 A 
ATOM     29  C   UNL     1       9.911   4.444   7.744  0.00  0.00    +0.020 A 
ATOM     31  C   UNL     1       9.424   5.286   8.745  0.00  0.00    +0.041 A 
ENDBRANCH  17  20
ENDBRANCH   8  17
TORSDOF 7
ENDMDL
