MODEL 1
REMARK VINA RESULT:      -9.0      0.000      0.000
REMARK  Name = 26744892
REMARK  6 active torsions:
REMARK  status: ('A' for Active; 'I' for Inactive)
REMARK    1  A    between atoms: O_2  and  C_30
REMARK    2  A    between atoms: N_4  and  C_14
REMARK    3  A    between atoms: C_9  and  C_15
REMARK    4  A    between atoms: C_14  and  C_16
REMARK    5  A    between atoms: C_20  and  C_21
REMARK    6  A    between atoms: C_24  and  C_30
REMARK                            x       y       z     vdW  Elec       q    Type
REMARK                         _______ _______ _______ _____ _____    ______ ____
ROOT
ATOM      4  N   UNL     1      12.830   8.479  19.420  0.00  0.00    -0.281 NA
ATOM      5  N   UNL     1      10.716   9.152  16.396  0.00  0.00    -0.347 N 
ATOM      6  N   UNL     1      12.656   9.125  15.284  0.00  0.00    -0.240 NA
ATOM      9  C   UNL     1      13.913   7.791  18.635  0.00  0.00    +0.152 C 
ATOM     10  C   UNL     1      14.141   8.445  17.227  0.00  0.00    +0.086 C 
ATOM     11  C   UNL     1      11.513   8.439  18.720  0.00  0.00    +0.140 C 
ATOM     12  C   UNL     1      11.673   8.789  17.294  0.00  0.00    +0.053 A 
ATOM     13  C   UNL     1      12.848   8.773  16.590  0.00  0.00    +0.065 A 
ATOM     17  C   UNL     1      11.359   9.344  15.197  0.00  0.00    +0.197 A 
ATOM     35  H   UNL     1       9.725   9.257  16.570  0.00  0.00    +0.167 HD
ENDROOT
BRANCH   9  15
ATOM      1  O   UNL     1      15.643   8.877  19.994  0.00  0.00    -0.336 OA
ATOM      7  N   UNL     1      16.118   6.760  19.439  0.00  0.00    -0.190 NA
ATOM      8  N   UNL     1      16.892   8.595  20.564  0.00  0.00    -0.056 NA
ATOM     15  C   UNL     1      15.259   7.743  19.350  0.00  0.00    +0.245 A 
ATOM     20  C   UNL     1      17.102   7.329  20.193  0.00  0.00    +0.202 A 
BRANCH  20  21
ATOM     21  C   UNL     1      18.286   6.604  20.559  0.00  0.00    +0.023 A 
ATOM     25  C   UNL     1      19.025   6.995  21.676  0.00  0.00    +0.020 A 
ATOM     26  C   UNL     1      18.694   5.511  19.800  0.00  0.00    +0.012 A 
ATOM     27  C   UNL     1      20.185   6.296  22.047  0.00  0.00    -0.017 A 
ATOM     28  C   UNL     1      20.600   5.185  21.275  0.00  0.00    -0.018 A 
ATOM     29  C   UNL     1      19.844   4.805  20.154  0.00  0.00    +0.009 A 
ATOM     31  C   UNL     1      20.941   6.675  23.168  0.00  0.00    +0.008 A 
ATOM     32  C   UNL     1      21.761   4.485  21.647  0.00  0.00    +0.008 A 
ATOM     33  C   UNL     1      22.091   5.969  23.522  0.00  0.00    +0.001 A 
ATOM     34  C   UNL     1      22.500   4.876  22.763  0.00  0.00    +0.001 A 
ENDBRANCH  20  21
ENDBRANCH   9  15
BRANCH   4  14
ATOM     14  C   UNL     1      12.655   7.898  20.758  0.00  0.00    +0.120 C 
BRANCH  14  16
ATOM     16  C   UNL     1      12.206   8.927  21.761  0.00  0.00    -0.033 A 
ATOM     18  C   UNL     1      13.011  10.032  22.034  0.00  0.00    +0.006 A 
ATOM     19  C   UNL     1      10.984   8.774  22.418  0.00  0.00    +0.006 A 
ATOM     22  C   UNL     1      12.595  10.986  22.963  0.00  0.00    +0.015 A 
ATOM     23  C   UNL     1      10.568   9.728  23.348  0.00  0.00    +0.015 A 
ATOM     24  C   UNL     1      11.374  10.834  23.620  0.00  0.00    +0.059 A 
BRANCH  24  30
ATOM      3  O   UNL     1      11.482  12.054  25.674  0.00  0.00    -0.245 OA
ATOM     30  C   UNL     1      10.939  11.828  24.589  0.00  0.00    +0.337 C 
BRANCH  30   2
ATOM      2  O   UNL     1       9.839  12.512  24.174  0.00  0.00    -0.477 OA
ATOM     36  H   UNL     1      10.065  13.417  23.868  0.00  0.00    +0.295 HD
ENDBRANCH  30   2
ENDBRANCH  24  30
ENDBRANCH  14  16
ENDBRANCH   4  14
TORSDOF 6
ENDMDL
MODEL 2
REMARK VINA RESULT:      -8.6      3.367      6.232
REMARK  Name = 26744892
REMARK  6 active torsions:
REMARK  status: ('A' for Active; 'I' for Inactive)
REMARK    1  A    between atoms: O_2  and  C_30
REMARK    2  A    between atoms: N_4  and  C_14
REMARK    3  A    between atoms: C_9  and  C_15
REMARK    4  A    between atoms: C_14  and  C_16
REMARK    5  A    between atoms: C_20  and  C_21
REMARK    6  A    between atoms: C_24  and  C_30
REMARK                            x       y       z     vdW  Elec       q    Type
REMARK                         _______ _______ _______ _____ _____    ______ ____
ROOT
ATOM      4  N   UNL     1      12.052  12.165  23.463  0.00  0.00    -0.281 NA
ATOM      5  N   UNL     1      11.653  14.156  26.616  0.00  0.00    -0.347 N 
ATOM      6  N   UNL     1      13.888  14.206  26.627  0.00  0.00    -0.240 NA
ATOM      9  C   UNL     1      13.378  12.785  23.119  0.00  0.00    +0.152 C 
ATOM     10  C   UNL     1      14.256  13.068  24.389  0.00  0.00    +0.086 C 
ATOM     11  C   UNL     1      11.234  13.039  24.353  0.00  0.00    +0.140 C 
ATOM     12  C   UNL     1      12.059  13.578  25.453  0.00  0.00    +0.053 A 
ATOM     13  C   UNL     1      13.428  13.626  25.479  0.00  0.00    +0.065 A 
ATOM     17  C   UNL     1      12.793  14.519  27.291  0.00  0.00    +0.197 A 
ATOM     35  H   UNL     1      10.700  14.298  26.925  0.00  0.00    +0.167 HD
ENDROOT
BRANCH   9  15
ATOM      1  O   UNL     1      14.444  12.505  20.927  0.00  0.00    -0.336 OA
ATOM      7  N   UNL     1      14.755  10.777  22.317  0.00  0.00    -0.190 NA
ATOM      8  N   UNL     1      15.220  11.575  20.224  0.00  0.00    -0.056 NA
ATOM     15  C   UNL     1      14.215  11.957  22.149  0.00  0.00    +0.245 A 
ATOM     20  C   UNL     1      15.362  10.584  21.110  0.00  0.00    +0.202 A 
BRANCH  20  21
ATOM     21  C   UNL     1      16.103   9.390  20.821  0.00  0.00    +0.023 A 
ATOM     25  C   UNL     1      17.390   9.227  21.334  0.00  0.00    +0.020 A 
ATOM     26  C   UNL     1      15.536   8.395  20.029  0.00  0.00    +0.012 A 
ATOM     27  C   UNL     1      18.128   8.064  21.060  0.00  0.00    -0.017 A 
ATOM     28  C   UNL     1      17.552   7.052  20.255  0.00  0.00    -0.018 A 
ATOM     29  C   UNL     1      16.255   7.233  19.747  0.00  0.00    +0.009 A 
ATOM     31  C   UNL     1      19.424   7.883  21.568  0.00  0.00    +0.008 A 
ATOM     32  C   UNL     1      18.290   5.889  19.981  0.00  0.00    +0.008 A 
ATOM     33  C   UNL     1      20.143   6.721  21.286  0.00  0.00    +0.001 A 
ATOM     34  C   UNL     1      19.577   5.726  20.494  0.00  0.00    +0.001 A 
ENDBRANCH  20  21
ENDBRANCH   9  15
BRANCH   4  14
ATOM     14  C   UNL     1      11.255  11.853  22.269  0.00  0.00    +0.120 C 
BRANCH  14  16
ATOM     16  C   UNL     1      11.297  10.387  21.933  0.00  0.00    -0.033 A 
ATOM     18  C   UNL     1      10.905   9.443  22.882  0.00  0.00    +0.006 A 
ATOM     19  C   UNL     1      11.729   9.971  20.673  0.00  0.00    +0.006 A 
ATOM     22  C   UNL     1      10.943   8.084  22.571  0.00  0.00    +0.015 A 
ATOM     23  C   UNL     1      11.768   8.612  20.362  0.00  0.00    +0.015 A 
ATOM     24  C   UNL     1      11.375   7.668  21.312  0.00  0.00    +0.059 A 
BRANCH  24  30
ATOM      3  O   UNL     1      10.941   5.344  21.678  0.00  0.00    -0.245 OA
ATOM     30  C   UNL     1      11.415   6.251  20.987  0.00  0.00    +0.337 C 
BRANCH  30   2
ATOM      2  O   UNL     1      12.046   6.006  19.806  0.00  0.00    -0.477 OA
ATOM     36  H   UNL     1      12.311   5.064  19.722  0.00  0.00    +0.295 HD
ENDBRANCH  30   2
ENDBRANCH  24  30
ENDBRANCH  14  16
ENDBRANCH   4  14
TORSDOF 6
ENDMDL
MODEL 3
REMARK VINA RESULT:      -8.2      2.897      8.404
REMARK  Name = 26744892
REMARK  6 active torsions:
REMARK  status: ('A' for Active; 'I' for Inactive)
REMARK    1  A    between atoms: O_2  and  C_30
REMARK    2  A    between atoms: N_4  and  C_14
REMARK    3  A    between atoms: C_9  and  C_15
REMARK    4  A    between atoms: C_14  and  C_16
REMARK    5  A    between atoms: C_20  and  C_21
REMARK    6  A    between atoms: C_24  and  C_30
REMARK                            x       y       z     vdW  Elec       q    Type
REMARK                         _______ _______ _______ _____ _____    ______ ____
ROOT
ATOM      4  N   UNL     1      16.720   7.066  20.411  0.00  0.00    -0.281 NA
ATOM      5  N   UNL     1      20.296   5.939  20.370  0.00  0.00    -0.347 N 
ATOM      6  N   UNL     1      20.757   8.054  20.927  0.00  0.00    -0.240 NA
ATOM      9  C   UNL     1      16.970   8.162  21.410  0.00  0.00    +0.152 C 
ATOM     10  C   UNL     1      18.365   8.852  21.205  0.00  0.00    +0.086 C 
ATOM     11  C   UNL     1      17.741   5.982  20.494  0.00  0.00    +0.140 C 
ATOM     12  C   UNL     1      19.100   6.555  20.575  0.00  0.00    +0.053 A 
ATOM     13  C   UNL     1      19.407   7.844  20.921  0.00  0.00    +0.065 A 
ATOM     17  C   UNL     1      21.266   6.885  20.594  0.00  0.00    +0.197 A 
ATOM     35  H   UNL     1      20.447   4.973  20.108  0.00  0.00    +0.167 HD
ENDROOT
BRANCH   9  15
ATOM      1  O   UNL     1      15.815  10.012  20.286  0.00  0.00    -0.336 OA
ATOM      7  N   UNL     1      15.050   9.579  22.347  0.00  0.00    -0.190 NA
ATOM      8  N   UNL     1      14.784  10.932  20.521  0.00  0.00    -0.056 NA
ATOM     15  C   UNL     1      15.905   9.254  21.411  0.00  0.00    +0.245 A 
ATOM     20  C   UNL     1      14.384  10.613  21.755  0.00  0.00    +0.202 A 
BRANCH  20  21
ATOM     21  C   UNL     1      13.321  11.306  22.425  0.00  0.00    +0.023 A 
ATOM     25  C   UNL     1      13.571  11.968  23.628  0.00  0.00    +0.020 A 
ATOM     26  C   UNL     1      12.043  11.318  21.874  0.00  0.00    +0.012 A 
ATOM     27  C   UNL     1      12.541  12.651  24.296  0.00  0.00    -0.017 A 
ATOM     28  C   UNL     1      11.241  12.663  23.736  0.00  0.00    -0.018 A 
ATOM     29  C   UNL     1      11.009  11.992  22.524  0.00  0.00    +0.009 A 
ATOM     31  C   UNL     1      12.774  13.323  25.506  0.00  0.00    +0.008 A 
ATOM     32  C   UNL     1      10.212  13.347  24.404  0.00  0.00    +0.008 A 
ATOM     33  C   UNL     1      11.740  13.997  26.156  0.00  0.00    +0.001 A 
ATOM     34  C   UNL     1      10.461  14.009  25.606  0.00  0.00    +0.001 A 
ENDBRANCH  20  21
ENDBRANCH   9  15
BRANCH   4  14
ATOM     14  C   UNL     1      15.392   6.457  20.573  0.00  0.00    +0.120 C 
BRANCH  14  16
ATOM     16  C   UNL     1      14.396   7.014  19.592  0.00  0.00    -0.033 A 
ATOM     18  C   UNL     1      14.802   7.347  18.300  0.00  0.00    +0.006 A 
ATOM     19  C   UNL     1      13.067   7.198  19.974  0.00  0.00    +0.006 A 
ATOM     22  C   UNL     1      13.880   7.863  17.389  0.00  0.00    +0.015 A 
ATOM     23  C   UNL     1      12.144   7.714  19.064  0.00  0.00    +0.015 A 
ATOM     24  C   UNL     1      12.551   8.047  17.772  0.00  0.00    +0.059 A 
BRANCH  24  30
ATOM      3  O   UNL     1      11.858   9.024  15.701  0.00  0.00    -0.245 OA
ATOM     30  C   UNL     1      11.588   8.585  16.823  0.00  0.00    +0.337 C 
BRANCH  30   2
ATOM      2  O   UNL     1      10.315   8.558  17.303  0.00  0.00    -0.477 OA
ATOM     36  H   UNL     1       9.669   8.893  16.644  0.00  0.00    +0.295 HD
ENDBRANCH  30   2
ENDBRANCH  24  30
ENDBRANCH  14  16
ENDBRANCH   4  14
TORSDOF 6
ENDMDL
MODEL 4
REMARK VINA RESULT:      -8.0     14.363     19.431
REMARK  Name = 26744892
REMARK  6 active torsions:
REMARK  status: ('A' for Active; 'I' for Inactive)
REMARK    1  A    between atoms: O_2  and  C_30
REMARK    2  A    between atoms: N_4  and  C_14
REMARK    3  A    between atoms: C_9  and  C_15
REMARK    4  A    between atoms: C_14  and  C_16
REMARK    5  A    between atoms: C_20  and  C_21
REMARK    6  A    between atoms: C_24  and  C_30
REMARK                            x       y       z     vdW  Elec       q    Type
REMARK                         _______ _______ _______ _____ _____    ______ ____
ROOT
ATOM      4  N   UNL     1       9.584   7.232   6.216  0.00  0.00    -0.281 NA
ATOM      5  N   UNL     1       8.744   5.826   9.589  0.00  0.00    -0.347 N 
ATOM      6  N   UNL     1       9.719   3.963   8.831  0.00  0.00    -0.240 NA
ATOM      9  C   UNL     1      10.768   6.326   6.021  0.00  0.00    +0.152 C 
ATOM     10  C   UNL     1      10.531   4.893   6.614  0.00  0.00    +0.086 C 
ATOM     11  C   UNL     1       9.251   7.425   7.657  0.00  0.00    +0.140 C 
ATOM     12  C   UNL     1       9.266   6.131   8.370  0.00  0.00    +0.053 A 
ATOM     13  C   UNL     1       9.863   4.979   7.929  0.00  0.00    +0.065 A 
ATOM     17  C   UNL     1       9.042   4.506   9.823  0.00  0.00    +0.197 A 
ATOM     35  H   UNL     1       8.238   6.447  10.208  0.00  0.00    +0.167 HD
ENDROOT
BRANCH   9  15
ATOM      1  O   UNL     1      12.415   6.648   4.230  0.00  0.00    -0.336 OA
ATOM      7  N   UNL     1      10.538   5.621   3.567  0.00  0.00    -0.190 NA
ATOM      8  N   UNL     1      12.575   6.389   2.863  0.00  0.00    -0.056 NA
ATOM     15  C   UNL     1      11.189   6.164   4.564  0.00  0.00    +0.245 A 
ATOM     20  C   UNL     1      11.428   5.781   2.545  0.00  0.00    +0.202 A 
BRANCH  20  21
ATOM     21  C   UNL     1      11.140   5.323   1.216  0.00  0.00    +0.023 A 
ATOM     25  C   UNL     1      11.916   4.316   0.642  0.00  0.00    +0.020 A 
ATOM     26  C   UNL     1      10.085   5.884   0.501  0.00  0.00    +0.012 A 
ATOM     27  C   UNL     1      11.647   3.857  -0.657  0.00  0.00    -0.017 A 
ATOM     28  C   UNL     1      10.575   4.427  -1.385  0.00  0.00    -0.018 A 
ATOM     29  C   UNL     1       9.803   5.439  -0.792  0.00  0.00    +0.009 A 
ATOM     31  C   UNL     1      12.417   2.844  -1.250  0.00  0.00    +0.008 A 
ATOM     32  C   UNL     1      10.305   3.967  -2.684  0.00  0.00    +0.008 A 
ATOM     33  C   UNL     1      12.136   2.399  -2.542  0.00  0.00    +0.001 A 
ATOM     34  C   UNL     1      11.082   2.960  -3.258  0.00  0.00    +0.001 A 
ENDBRANCH  20  21
ENDBRANCH   9  15
BRANCH   4  14
ATOM     14  C   UNL     1       9.789   8.557   5.613  0.00  0.00    +0.120 C 
BRANCH  14  16
ATOM     16  C   UNL     1       8.685   8.914   4.655  0.00  0.00    -0.033 A 
ATOM     18  C   UNL     1       7.573   9.625   5.105  0.00  0.00    +0.006 A 
ATOM     19  C   UNL     1       8.774   8.533   3.315  0.00  0.00    +0.006 A 
ATOM     22  C   UNL     1       6.550   9.957   4.217  0.00  0.00    +0.015 A 
ATOM     23  C   UNL     1       7.750   8.864   2.426  0.00  0.00    +0.015 A 
ATOM     24  C   UNL     1       6.638   9.576   2.878  0.00  0.00    +0.059 A 
BRANCH  24  30
ATOM      3  O   UNL     1       5.719  10.163   0.749  0.00  0.00    -0.245 OA
ATOM     30  C   UNL     1       5.572   9.921   1.951  0.00  0.00    +0.337 C 
BRANCH  30   2
ATOM      2  O   UNL     1       4.351   9.953   2.551  0.00  0.00    -0.477 OA
ATOM     36  H   UNL     1       3.656  10.294   1.947  0.00  0.00    +0.295 HD
ENDBRANCH  30   2
ENDBRANCH  24  30
ENDBRANCH  14  16
ENDBRANCH   4  14
TORSDOF 6
ENDMDL
MODEL 5
REMARK VINA RESULT:      -7.8     27.315     30.229
REMARK  Name = 26744892
REMARK  6 active torsions:
REMARK  status: ('A' for Active; 'I' for Inactive)
REMARK    1  A    between atoms: O_2  and  C_30
REMARK    2  A    between atoms: N_4  and  C_14
REMARK    3  A    between atoms: C_9  and  C_15
REMARK    4  A    between atoms: C_14  and  C_16
REMARK    5  A    between atoms: C_20  and  C_21
REMARK    6  A    between atoms: C_24  and  C_30
REMARK                            x       y       z     vdW  Elec       q    Type
REMARK                         _______ _______ _______ _____ _____    ______ ____
ROOT
ATOM      4  N   UNL     1      -8.427 -11.618  18.403  0.00  0.00    -0.281 NA
ATOM      5  N   UNL     1     -11.078 -10.401  20.760  0.00  0.00    -0.347 N 
ATOM      6  N   UNL     1     -12.049  -9.578  18.922  0.00  0.00    -0.240 NA
ATOM      9  C   UNL     1      -9.366 -11.708  17.232  0.00  0.00    +0.152 C 
ATOM     10  C   UNL     1     -10.432 -10.555  17.228  0.00  0.00    +0.086 C 
ATOM     11  C   UNL     1      -9.143 -11.704  19.709  0.00  0.00    +0.140 C 
ATOM     12  C   UNL     1     -10.337 -10.834  19.704  0.00  0.00    +0.053 A 
ATOM     13  C   UNL     1     -10.954 -10.325  18.591  0.00  0.00    +0.065 A 
ATOM     17  C   UNL     1     -12.100  -9.646  20.238  0.00  0.00    +0.197 A 
ATOM     35  H   UNL     1     -10.915 -10.596  21.739  0.00  0.00    +0.167 HD
ENDROOT
BRANCH   9  15
ATOM      1  O   UNL     1      -8.716 -12.858  15.165  0.00  0.00    -0.336 OA
ATOM      7  N   UNL     1      -8.013 -10.734  15.284  0.00  0.00    -0.190 NA
ATOM      8  N   UNL     1      -8.016 -12.612  13.976  0.00  0.00    -0.056 NA
ATOM     15  C   UNL     1      -8.667 -11.701  15.877  0.00  0.00    +0.245 A 
ATOM     20  C   UNL     1      -7.633 -11.339  14.122  0.00  0.00    +0.202 A 
BRANCH  20  21
ATOM     21  C   UNL     1      -6.871 -10.644  13.125  0.00  0.00    +0.023 A 
ATOM     25  C   UNL     1      -5.528 -10.967  12.923  0.00  0.00    +0.020 A 
ATOM     26  C   UNL     1      -7.471  -9.648  12.359  0.00  0.00    +0.012 A 
ATOM     27  C   UNL     1      -4.769 -10.295  11.951  0.00  0.00    -0.017 A 
ATOM     28  C   UNL     1      -5.379  -9.283  11.173  0.00  0.00    -0.018 A 
ATOM     29  C   UNL     1      -6.732  -8.971  11.389  0.00  0.00    +0.009 A 
ATOM     31  C   UNL     1      -3.417 -10.608  11.734  0.00  0.00    +0.008 A 
ATOM     32  C   UNL     1      -4.620  -8.612  10.200  0.00  0.00    +0.008 A 
ATOM     33  C   UNL     1      -2.677  -9.930  10.764  0.00  0.00    +0.001 A 
ATOM     34  C   UNL     1      -3.277  -8.935   9.999  0.00  0.00    +0.001 A 
ENDBRANCH  20  21
ENDBRANCH   9  15
BRANCH   4  14
ATOM     14  C   UNL     1      -7.399 -12.668  18.376  0.00  0.00    +0.120 C 
BRANCH  14  16
ATOM     16  C   UNL     1      -6.120 -12.184  17.746  0.00  0.00    -0.033 A 
ATOM     18  C   UNL     1      -5.472 -12.969  16.793  0.00  0.00    +0.006 A 
ATOM     19  C   UNL     1      -5.584 -10.949  18.116  0.00  0.00    +0.006 A 
ATOM     22  C   UNL     1      -4.287 -12.520  16.209  0.00  0.00    +0.015 A 
ATOM     23  C   UNL     1      -4.399 -10.501  17.531  0.00  0.00    +0.015 A 
ATOM     24  C   UNL     1      -3.751 -11.287  16.578  0.00  0.00    +0.059 A 
BRANCH  24  30
ATOM      3  O   UNL     1      -2.421 -10.296  14.855  0.00  0.00    -0.245 OA
ATOM     30  C   UNL     1      -2.516 -10.818  15.969  0.00  0.00    +0.337 C 
BRANCH  30   2
ATOM      2  O   UNL     1      -1.434 -11.014  16.771  0.00  0.00    -0.477 OA
ATOM     36  H   UNL     1      -0.961 -10.174  16.958  0.00  0.00    +0.295 HD
ENDBRANCH  30   2
ENDBRANCH  24  30
ENDBRANCH  14  16
ENDBRANCH   4  14
TORSDOF 6
ENDMDL
MODEL 6
REMARK VINA RESULT:      -7.7     31.163     33.124
REMARK  Name = 26744892
REMARK  6 active torsions:
REMARK  status: ('A' for Active; 'I' for Inactive)
REMARK    1  A    between atoms: O_2  and  C_30
REMARK    2  A    between atoms: N_4  and  C_14
REMARK    3  A    between atoms: C_9  and  C_15
REMARK    4  A    between atoms: C_14  and  C_16
REMARK    5  A    between atoms: C_20  and  C_21
REMARK    6  A    between atoms: C_24  and  C_30
REMARK                            x       y       z     vdW  Elec       q    Type
REMARK                         _______ _______ _______ _____ _____    ______ ____
ROOT
ATOM      4  N   UNL     1     -14.096   5.643  33.396  0.00  0.00    -0.281 NA
ATOM      5  N   UNL     1     -12.697   8.984  34.369  0.00  0.00    -0.347 N 
ATOM      6  N   UNL     1     -13.952   9.771  32.695  0.00  0.00    -0.240 NA
ATOM      9  C   UNL     1     -15.364   6.225  32.833  0.00  0.00    +0.152 C 
ATOM     10  C   UNL     1     -15.125   7.598  32.111  0.00  0.00    +0.086 C 
ATOM     11  C   UNL     1     -13.461   6.542  34.403  0.00  0.00    +0.140 C 
ATOM     12  C   UNL     1     -13.432   7.934  33.910  0.00  0.00    +0.053 A 
ATOM     13  C   UNL     1     -14.196   8.441  32.892  0.00  0.00    +0.065 A 
ATOM     17  C   UNL     1     -13.046  10.070  33.603  0.00  0.00    +0.197 A 
ATOM     35  H   UNL     1     -12.027   8.973  35.127  0.00  0.00    +0.167 HD
ENDROOT
BRANCH   9  15
ATOM      1  O   UNL     1     -17.261   4.768  32.283  0.00  0.00    -0.336 OA
ATOM      7  N   UNL     1     -15.741   4.940  30.646  0.00  0.00    -0.190 NA
ATOM      8  N   UNL     1     -17.729   3.970  31.231  0.00  0.00    -0.056 NA
ATOM     15  C   UNL     1     -16.086   5.303  31.856  0.00  0.00    +0.245 A 
ATOM     20  C   UNL     1     -16.779   4.124  30.303  0.00  0.00    +0.202 A 
BRANCH  20  21
ATOM     21  C   UNL     1     -16.837   3.475  29.024  0.00  0.00    +0.023 A 
ATOM     25  C   UNL     1     -16.650   4.218  27.858  0.00  0.00    +0.020 A 
ATOM     26  C   UNL     1     -17.080   2.107  28.949  0.00  0.00    +0.012 A 
ATOM     27  C   UNL     1     -16.704   3.598  26.599  0.00  0.00    -0.017 A 
ATOM     28  C   UNL     1     -16.951   2.206  26.522  0.00  0.00    -0.018 A 
ATOM     29  C   UNL     1     -17.136   1.475  27.707  0.00  0.00    +0.009 A 
ATOM     31  C   UNL     1     -16.517   4.329  25.415  0.00  0.00    +0.008 A 
ATOM     32  C   UNL     1     -17.004   1.586  25.263  0.00  0.00    +0.008 A 
ATOM     33  C   UNL     1     -16.574   3.697  24.172  0.00  0.00    +0.001 A 
ATOM     34  C   UNL     1     -16.817   2.329  24.096  0.00  0.00    +0.001 A 
ENDBRANCH  20  21
ENDBRANCH   9  15
BRANCH   4  14
ATOM     14  C   UNL     1     -14.314   4.333  34.025  0.00  0.00    +0.120 C 
BRANCH  14  16
ATOM     16  C   UNL     1     -14.230   3.211  33.027  0.00  0.00    -0.033 A 
ATOM     18  C   UNL     1     -13.347   3.299  31.952  0.00  0.00    +0.006 A 
ATOM     19  C   UNL     1     -15.036   2.081  33.177  0.00  0.00    +0.006 A 
ATOM     22  C   UNL     1     -13.268   2.258  31.026  0.00  0.00    +0.015 A 
ATOM     23  C   UNL     1     -14.957   1.040  32.251  0.00  0.00    +0.015 A 
ATOM     24  C   UNL     1     -14.073   1.129  31.175  0.00  0.00    +0.059 A 
BRANCH  24  30
ATOM      3  O   UNL     1     -14.956  -0.548  29.717  0.00  0.00    -0.245 OA
ATOM     30  C   UNL     1     -13.992   0.044  30.211  0.00  0.00    +0.337 C 
BRANCH  30   2
ATOM      2  O   UNL     1     -12.707  -0.272  29.890  0.00  0.00    -0.477 OA
ATOM     36  H   UNL     1     -12.550  -0.223  28.923  0.00  0.00    +0.295 HD
ENDBRANCH  30   2
ENDBRANCH  24  30
ENDBRANCH  14  16
ENDBRANCH   4  14
TORSDOF 6
ENDMDL
MODEL 7
REMARK VINA RESULT:      -7.6     27.164     30.131
REMARK  Name = 26744892
REMARK  6 active torsions:
REMARK  status: ('A' for Active; 'I' for Inactive)
REMARK    1  A    between atoms: O_2  and  C_30
REMARK    2  A    between atoms: N_4  and  C_14
REMARK    3  A    between atoms: C_9  and  C_15
REMARK    4  A    between atoms: C_14  and  C_16
REMARK    5  A    between atoms: C_20  and  C_21
REMARK    6  A    between atoms: C_24  and  C_30
REMARK                            x       y       z     vdW  Elec       q    Type
REMARK                         _______ _______ _______ _____ _____    ______ ____
ROOT
ATOM      4  N   UNL     1      -7.441 -10.247   6.984  0.00  0.00    -0.281 NA
ATOM      5  N   UNL     1      -7.949 -11.608   3.527  0.00  0.00    -0.347 N 
ATOM      6  N   UNL     1      -5.727 -11.855   3.517  0.00  0.00    -0.240 NA
ATOM      9  C   UNL     1      -6.181 -11.034   7.219  0.00  0.00    +0.152 C 
ATOM     10  C   UNL     1      -5.306 -11.166   5.922  0.00  0.00    +0.086 C 
ATOM     11  C   UNL     1      -8.314 -10.874   5.950  0.00  0.00    +0.140 C 
ATOM     12  C   UNL     1      -7.517 -11.282   4.776  0.00  0.00    +0.053 A 
ATOM     13  C   UNL     1      -6.157 -11.447   4.747  0.00  0.00    +0.065 A 
ATOM     17  C   UNL     1      -6.831 -11.946   2.803  0.00  0.00    +0.197 A 
ATOM     35  H   UNL     1      -8.903 -11.607   3.193  0.00  0.00    +0.167 HD
ENDROOT
BRANCH   9  15
ATOM      1  O   UNL     1      -4.771  -9.233   8.106  0.00  0.00    -0.336 OA
ATOM      7  N   UNL     1      -4.954 -11.001   9.470  0.00  0.00    -0.190 NA
ATOM      8  N   UNL     1      -4.005  -8.932   9.240  0.00  0.00    -0.056 NA
ATOM     15  C   UNL     1      -5.295 -10.469   8.324  0.00  0.00    +0.245 A 
ATOM     20  C   UNL     1      -4.163 -10.022   9.997  0.00  0.00    +0.202 A 
BRANCH  20  21
ATOM     21  C   UNL     1      -3.545 -10.164  11.284  0.00  0.00    +0.023 A 
ATOM     25  C   UNL     1      -4.336 -10.342  12.420  0.00  0.00    +0.020 A 
ATOM     26  C   UNL     1      -2.159 -10.125  11.398  0.00  0.00    +0.012 A 
ATOM     27  C   UNL     1      -3.746 -10.483  13.687  0.00  0.00    -0.017 A 
ATOM     28  C   UNL     1      -2.336 -10.443  13.803  0.00  0.00    -0.018 A 
ATOM     29  C   UNL     1      -1.556 -10.263  12.649  0.00  0.00    +0.009 A 
ATOM     31  C   UNL     1      -4.525 -10.664  14.841  0.00  0.00    +0.008 A 
ATOM     32  C   UNL     1      -1.747 -10.584  15.071  0.00  0.00    +0.008 A 
ATOM     33  C   UNL     1      -3.923 -10.802  16.092  0.00  0.00    +0.001 A 
ATOM     34  C   UNL     1      -2.537 -10.762  16.207  0.00  0.00    +0.001 A 
ENDBRANCH  20  21
ENDBRANCH   9  15
BRANCH   4  14
ATOM     14  C   UNL     1      -8.232 -10.081   8.211  0.00  0.00    +0.120 C 
BRANCH  14  16
ATOM     16  C   UNL     1      -8.744  -8.673   8.362  0.00  0.00    -0.033 A 
ATOM     18  C   UNL     1      -7.982  -7.601   7.899  0.00  0.00    +0.006 A 
ATOM     19  C   UNL     1      -9.981  -8.442   8.964  0.00  0.00    +0.006 A 
ATOM     22  C   UNL     1      -8.456  -6.297   8.037  0.00  0.00    +0.015 A 
ATOM     23  C   UNL     1     -10.456  -7.137   9.102  0.00  0.00    +0.015 A 
ATOM     24  C   UNL     1      -9.693  -6.065   8.639  0.00  0.00    +0.059 A 
BRANCH  24  30
ATOM      3  O   UNL     1     -11.377  -4.383   8.876  0.00  0.00    -0.245 OA
ATOM     30  C   UNL     1     -10.188  -4.705   8.784  0.00  0.00    +0.337 C 
BRANCH  30   2
ATOM      2  O   UNL     1      -9.185  -3.785   8.811  0.00  0.00    -0.477 OA
ATOM     36  H   UNL     1      -9.093  -3.371   9.695  0.00  0.00    +0.295 HD
ENDBRANCH  30   2
ENDBRANCH  24  30
ENDBRANCH  14  16
ENDBRANCH   4  14
TORSDOF 6
ENDMDL
MODEL 8
REMARK VINA RESULT:      -7.6     28.274     31.358
REMARK  Name = 26744892
REMARK  6 active torsions:
REMARK  status: ('A' for Active; 'I' for Inactive)
REMARK    1  A    between atoms: O_2  and  C_30
REMARK    2  A    between atoms: N_4  and  C_14
REMARK    3  A    between atoms: C_9  and  C_15
REMARK    4  A    between atoms: C_14  and  C_16
REMARK    5  A    between atoms: C_20  and  C_21
REMARK    6  A    between atoms: C_24  and  C_30
REMARK                            x       y       z     vdW  Elec       q    Type
REMARK                         _______ _______ _______ _____ _____    ______ ____
ROOT
ATOM      4  N   UNL     1     -13.577   7.375  33.964  0.00  0.00    -0.281 NA
ATOM      5  N   UNL     1     -11.856   7.104  37.285  0.00  0.00    -0.347 N 
ATOM      6  N   UNL     1     -10.845   9.007  36.688  0.00  0.00    -0.240 NA
ATOM      9  C   UNL     1     -13.468   8.874  33.915  0.00  0.00    +0.152 C 
ATOM     10  C   UNL     1     -12.123   9.398  34.531  0.00  0.00    +0.086 C 
ATOM     11  C   UNL     1     -13.521   6.849  35.359  0.00  0.00    +0.140 C 
ATOM     12  C   UNL     1     -12.427   7.495  36.112  0.00  0.00    +0.053 A 
ATOM     13  C   UNL     1     -11.798   8.663  35.771  0.00  0.00    +0.065 A 
ATOM     17  C   UNL     1     -10.907   8.049  37.591  0.00  0.00    +0.197 A 
ATOM     35  H   UNL     1     -12.085   6.283  37.830  0.00  0.00    +0.167 HD
ENDROOT
BRANCH   9  15
ATOM      1  O   UNL     1     -14.730  10.166  32.254  0.00  0.00    -0.336 OA
ATOM      7  N   UNL     1     -12.771   9.381  31.501  0.00  0.00    -0.190 NA
ATOM      8  N   UNL     1     -14.623  10.594  30.924  0.00  0.00    -0.056 NA
ATOM     15  C   UNL     1     -13.598   9.459  32.513  0.00  0.00    +0.245 A 
ATOM     20  C   UNL     1     -13.443  10.092  30.549  0.00  0.00    +0.202 A 
BRANCH  20  21
ATOM     21  C   UNL     1     -12.905  10.284  29.233  0.00  0.00    +0.023 A 
ATOM     25  C   UNL     1     -13.765  10.446  28.146  0.00  0.00    +0.020 A 
ATOM     26  C   UNL     1     -11.526  10.310  29.042  0.00  0.00    +0.012 A 
ATOM     27  C   UNL     1     -13.254  10.634  26.851  0.00  0.00    -0.017 A 
ATOM     28  C   UNL     1     -11.853  10.660  26.657  0.00  0.00    -0.018 A 
ATOM     29  C   UNL     1     -11.002  10.496  27.762  0.00  0.00    +0.009 A 
ATOM     31  C   UNL     1     -14.104  10.799  25.746  0.00  0.00    +0.008 A 
ATOM     32  C   UNL     1     -11.342  10.849  25.362  0.00  0.00    +0.008 A 
ATOM     33  C   UNL     1     -13.580  10.985  24.466  0.00  0.00    +0.001 A 
ATOM     34  C   UNL     1     -12.202  11.010  24.275  0.00  0.00    +0.001 A 
ENDBRANCH  20  21
ENDBRANCH   9  15
BRANCH   4  14
ATOM     14  C   UNL     1     -14.813   6.884  33.340  0.00  0.00    +0.120 C 
BRANCH  14  16
ATOM     16  C   UNL     1     -14.622   5.534  32.702  0.00  0.00    -0.033 A 
ATOM     18  C   UNL     1     -13.338   5.016  32.539  0.00  0.00    +0.006 A 
ATOM     19  C   UNL     1     -15.730   4.801  32.274  0.00  0.00    +0.006 A 
ATOM     22  C   UNL     1     -13.160   3.764  31.949  0.00  0.00    +0.015 A 
ATOM     23  C   UNL     1     -15.552   3.549  31.684  0.00  0.00    +0.015 A 
ATOM     24  C   UNL     1     -14.266   3.032  31.522  0.00  0.00    +0.059 A 
BRANCH  24  30
ATOM      3  O   UNL     1     -14.686   0.696  31.220  0.00  0.00    -0.245 OA
ATOM     30  C   UNL     1     -14.082   1.727  30.907  0.00  0.00    +0.337 C 
BRANCH  30   2
ATOM      2  O   UNL     1     -13.149   1.745  29.916  0.00  0.00    -0.477 OA
ATOM     36  H   UNL     1     -12.440   2.400  30.094  0.00  0.00    +0.295 HD
ENDBRANCH  30   2
ENDBRANCH  24  30
ENDBRANCH  14  16
ENDBRANCH   4  14
TORSDOF 6
ENDMDL
MODEL 9
REMARK VINA RESULT:      -7.6     33.674     36.675
REMARK  Name = 26744892
REMARK  6 active torsions:
REMARK  status: ('A' for Active; 'I' for Inactive)
REMARK    1  A    between atoms: O_2  and  C_30
REMARK    2  A    between atoms: N_4  and  C_14
REMARK    3  A    between atoms: C_9  and  C_15
REMARK    4  A    between atoms: C_14  and  C_16
REMARK    5  A    between atoms: C_20  and  C_21
REMARK    6  A    between atoms: C_24  and  C_30
REMARK                            x       y       z     vdW  Elec       q    Type
REMARK                         _______ _______ _______ _____ _____    ______ ____
ROOT
ATOM      4  N   UNL     1      -8.152 -10.471  38.298  0.00  0.00    -0.281 NA
ATOM      5  N   UNL     1      -7.262  -7.098  39.676  0.00  0.00    -0.347 N 
ATOM      6  N   UNL     1      -9.390  -6.579  39.229  0.00  0.00    -0.240 NA
ATOM      9  C   UNL     1      -9.605 -10.350  38.666  0.00  0.00    +0.152 C 
ATOM     10  C   UNL     1     -10.147  -8.887  38.495  0.00  0.00    +0.086 C 
ATOM     11  C   UNL     1      -7.282  -9.600  39.141  0.00  0.00    +0.140 C 
ATOM     12  C   UNL     1      -7.862  -8.247  39.260  0.00  0.00    +0.053 A 
ATOM     13  C   UNL     1      -9.163  -7.906  38.999  0.00  0.00    +0.065 A 
ATOM     17  C   UNL     1      -8.225  -6.119  39.639  0.00  0.00    +0.197 A 
ATOM     35  H   UNL     1      -6.298  -6.983  39.961  0.00  0.00    +0.167 HD
ENDROOT
BRANCH   9  15
ATOM      1  O   UNL     1     -11.254 -12.166  38.606  0.00  0.00    -0.336 OA
ATOM      7  N   UNL     1     -10.712 -11.362  36.586  0.00  0.00    -0.190 NA
ATOM      8  N   UNL     1     -12.005 -12.901  37.679  0.00  0.00    -0.056 NA
ATOM     15  C   UNL     1     -10.522 -11.281  37.879  0.00  0.00    +0.245 A 
ATOM     20  C   UNL     1     -11.631 -12.368  36.512  0.00  0.00    +0.202 A 
BRANCH  20  21
ATOM     21  C   UNL     1     -12.155 -12.819  35.254  0.00  0.00    +0.023 A 
ATOM     25  C   UNL     1     -13.264 -12.183  34.694  0.00  0.00    +0.020 A 
ATOM     26  C   UNL     1     -11.556 -13.888  34.595  0.00  0.00    +0.012 A 
ATOM     27  C   UNL     1     -13.788 -12.612  33.464  0.00  0.00    -0.017 A 
ATOM     28  C   UNL     1     -13.180 -13.700  32.793  0.00  0.00    -0.018 A 
ATOM     29  C   UNL     1     -12.065 -14.327  33.372  0.00  0.00    +0.009 A 
ATOM     31  C   UNL     1     -14.903 -11.985  32.885  0.00  0.00    +0.008 A 
ATOM     32  C   UNL     1     -13.705 -14.128  31.562  0.00  0.00    +0.008 A 
ATOM     33  C   UNL     1     -15.411 -12.424  31.662  0.00  0.00    +0.001 A 
ATOM     34  C   UNL     1     -14.813 -13.493  31.002  0.00  0.00    +0.001 A 
ENDBRANCH  20  21
ENDBRANCH   9  15
BRANCH   4  14
ATOM     14  C   UNL     1      -7.661 -11.852  38.409  0.00  0.00    +0.120 C 
BRANCH  14  16
ATOM     16  C   UNL     1      -7.630 -12.544  37.073  0.00  0.00    -0.033 A 
ATOM     18  C   UNL     1      -8.113 -13.847  36.952  0.00  0.00    +0.006 A 
ATOM     19  C   UNL     1      -7.119 -11.883  35.955  0.00  0.00    +0.006 A 
ATOM     22  C   UNL     1      -8.086 -14.489  35.714  0.00  0.00    +0.015 A 
ATOM     23  C   UNL     1      -7.092 -12.525  34.717  0.00  0.00    +0.015 A 
ATOM     24  C   UNL     1      -7.575 -13.828  34.597  0.00  0.00    +0.059 A 
BRANCH  24  30
ATOM      3  O   UNL     1      -8.533 -14.753  32.610  0.00  0.00    -0.245 OA
ATOM     30  C   UNL     1      -7.546 -14.497  33.305  0.00  0.00    +0.337 C 
BRANCH  30   2
ATOM      2  O   UNL     1      -6.283 -14.826  32.918  0.00  0.00    -0.477 OA
ATOM     36  H   UNL     1      -6.210 -14.910  31.943  0.00  0.00    +0.295 HD
ENDBRANCH  30   2
ENDBRANCH  24  30
ENDBRANCH  14  16
ENDBRANCH   4  14
TORSDOF 6
ENDMDL
MODEL 10
REMARK VINA RESULT:      -7.5     28.358     30.786
REMARK  Name = 26744892
REMARK  6 active torsions:
REMARK  status: ('A' for Active; 'I' for Inactive)
REMARK    1  A    between atoms: O_2  and  C_30
REMARK    2  A    between atoms: N_4  and  C_14
REMARK    3  A    between atoms: C_9  and  C_15
REMARK    4  A    between atoms: C_14  and  C_16
REMARK    5  A    between atoms: C_20  and  C_21
REMARK    6  A    between atoms: C_24  and  C_30
REMARK                            x       y       z     vdW  Elec       q    Type
REMARK                         _______ _______ _______ _____ _____    ______ ____
ROOT
ATOM      4  N   UNL     1     -10.519 -11.945  19.513  0.00  0.00    -0.281 NA
ATOM      5  N   UNL     1     -12.823 -14.829  20.174  0.00  0.00    -0.347 N 
ATOM      6  N   UNL     1     -11.060 -16.097  19.643  0.00  0.00    -0.240 NA
ATOM      9  C   UNL     1      -9.279 -12.725  19.856  0.00  0.00    +0.152 C 
ATOM     10  C   UNL     1      -9.367 -14.223  19.396  0.00  0.00    +0.086 C 
ATOM     11  C   UNL     1     -11.739 -12.512  20.157  0.00  0.00    +0.140 C 
ATOM     12  C   UNL     1     -11.773 -13.980  20.003  0.00  0.00    +0.053 A 
ATOM     13  C   UNL     1     -10.705 -14.779  19.685  0.00  0.00    +0.065 A 
ATOM     17  C   UNL     1     -12.343 -16.096  19.946  0.00  0.00    +0.197 A 
ATOM     35  H   UNL     1     -13.771 -14.582  20.425  0.00  0.00    +0.167 HD
ENDROOT
BRANCH   9  15
ATOM      1  O   UNL     1      -7.163 -11.522  20.160  0.00  0.00    -0.336 OA
ATOM      7  N   UNL     1      -7.571 -12.125  18.041  0.00  0.00    -0.190 NA
ATOM      8  N   UNL     1      -6.072 -11.066  19.407  0.00  0.00    -0.056 NA
ATOM     15  C   UNL     1      -7.997 -12.134  19.279  0.00  0.00    +0.245 A 
ATOM     20  C   UNL     1      -6.387 -11.459  18.170  0.00  0.00    +0.202 A 
BRANCH  20  21
ATOM     21  C   UNL     1      -5.539 -11.203  17.040  0.00  0.00    +0.023 A 
ATOM     25  C   UNL     1      -4.164 -11.054  17.220  0.00  0.00    +0.020 A 
ATOM     26  C   UNL     1      -6.091 -11.105  15.766  0.00  0.00    +0.012 A 
ATOM     27  C   UNL     1      -3.322 -10.804  16.125  0.00  0.00    -0.017 A 
ATOM     28  C   UNL     1      -3.883 -10.703  14.829  0.00  0.00    -0.018 A 
ATOM     29  C   UNL     1      -5.269 -10.857  14.666  0.00  0.00    +0.009 A 
ATOM     31  C   UNL     1      -1.936 -10.652  16.287  0.00  0.00    +0.008 A 
ATOM     32  C   UNL     1      -3.040 -10.454  13.733  0.00  0.00    +0.008 A 
ATOM     33  C   UNL     1      -1.113 -10.403  15.187  0.00  0.00    +0.001 A 
ATOM     34  C   UNL     1      -1.664 -10.304  13.913  0.00  0.00    +0.001 A 
ENDBRANCH  20  21
ENDBRANCH   9  15
BRANCH   4  14
ATOM     14  C   UNL     1     -10.413 -10.531  19.898  0.00  0.00    +0.120 C 
BRANCH  14  16
ATOM     16  C   UNL     1     -10.563  -9.615  18.713  0.00  0.00    -0.033 A 
ATOM     18  C   UNL     1      -9.436  -9.023  18.143  0.00  0.00    +0.006 A 
ATOM     19  C   UNL     1     -11.829  -9.358  18.185  0.00  0.00    +0.006 A 
ATOM     22  C   UNL     1      -9.575  -8.175  17.044  0.00  0.00    +0.015 A 
ATOM     23  C   UNL     1     -11.967  -8.509  17.087  0.00  0.00    +0.015 A 
ATOM     24  C   UNL     1     -10.840  -7.917  16.517  0.00  0.00    +0.059 A 
BRANCH  24  30
ATOM      3  O   UNL     1     -11.664  -7.269  14.367  0.00  0.00    -0.245 OA
ATOM     30  C   UNL     1     -10.985  -7.033  15.371  0.00  0.00    +0.337 C 
BRANCH  30   2
ATOM      2  O   UNL     1     -10.280  -5.878  15.513  0.00  0.00    -0.477 OA
ATOM     36  H   UNL     1      -9.730  -5.686  14.723  0.00  0.00    +0.295 HD
ENDBRANCH  30   2
ENDBRANCH  24  30
ENDBRANCH  14  16
ENDBRANCH   4  14
TORSDOF 6
ENDMDL
