REMARK  Name = 75537134
REMARK  3 active torsions:
REMARK  status: ('A' for Active; 'I' for Inactive)
REMARK    1  A    between atoms: N_4  and  C_8
REMARK    2  A    between atoms: N_6  and  C_19
REMARK    3  A    between atoms: C_19  and  C_20
REMARK                            x       y       z     vdW  Elec       q    Type
REMARK                         _______ _______ _______ _____ _____    ______ ____
ROOT
ATOM      1  O   UNL     1       4.220   2.456  -0.139  0.00  0.00    -0.252 OA
ATOM      4  N   UNL     1       3.449   0.227  -0.199  0.00  0.00    -0.281 N 
ATOM      5  N   UNL     1       1.944   1.892  -0.275  0.00  0.00    -0.278 N 
ATOM      6  N   UNL     1      -0.815   1.962   0.269  0.00  0.00    -0.295 NA
ATOM      7  C   UNL     1       1.162   0.686  -0.455  0.00  0.00    +0.109 C 
ATOM      9  C   UNL     1       2.157  -0.437  -0.172  0.00  0.00    +0.133 C 
ATOM     10  C   UNL     1      -0.063   0.705   0.460  0.00  0.00    +0.109 C 
ATOM     13  C   UNL     1       3.318   1.631  -0.201  0.00  0.00    +0.305 C 
ATOM     14  C   UNL     1       1.278   3.178  -0.295  0.00  0.00    +0.125 C 
ATOM     15  C   UNL     1       0.027   3.133   0.585  0.00  0.00    +0.104 C 
ENDROOT
BRANCH   4   8
ATOM      8  C   UNL     1       4.688  -0.504  -0.082  0.00  0.00    +0.078 C 
ATOM     11  C   UNL     1       4.934  -1.346  -1.336  0.00  0.00    +0.022 C 
ATOM     12  C   UNL     1       4.688  -1.371   1.180  0.00  0.00    +0.022 C 
ATOM     16  C   UNL     1       6.213  -2.171  -1.217  0.00  0.00    +0.002 C 
ATOM     17  C   UNL     1       5.967  -2.195   1.296  0.00  0.00    +0.002 C 
ATOM     18  C   UNL     1       6.212  -3.032   0.044  0.00  0.00    +0.000 C 
ENDBRANCH   4   8
BRANCH   6  19
ATOM     19  C   UNL     1      -2.022   1.963   1.095  0.00  0.00    +0.119 C 
BRANCH  19  20
ATOM      2  O   UNL     1      -4.576  -2.185   1.036  0.00  0.00    -0.485 OA
ATOM      3  O   UNL     1      -6.152  -1.187  -1.161  0.00  0.00    -0.485 OA
ATOM     20  C   UNL     1      -3.109   1.107   0.502  0.00  0.00    -0.030 A 
ATOM     21  C   UNL     1      -3.374  -0.154   1.038  0.00  0.00    +0.054 A 
ATOM     22  C   UNL     1      -3.846   1.574  -0.586  0.00  0.00    +0.009 A 
ATOM     23  C   UNL     1      -4.376  -0.948   0.480  0.00  0.00    +0.162 A 
ATOM     24  C   UNL     1      -4.858   0.786  -1.136  0.00  0.00    +0.050 A 
ATOM     25  C   UNL     1      -5.133  -0.469  -0.592  0.00  0.00    +0.162 A 
ATOM     26  C   UNL     1      -5.362  -3.029   0.191  0.00  0.00    +0.270 C 
ATOM     27  C   UNL     1      -6.569  -2.273  -0.330  0.00  0.00    +0.270 C 
ENDBRANCH  19  20
ENDBRANCH   6  19
TORSDOF 3
