MODEL 1
REMARK VINA RESULT:      -6.7      0.000      0.000
REMARK  Name = 11943580
REMARK  5 active torsions:
REMARK  status: ('A' for Active; 'I' for Inactive)
REMARK    1  A    between atoms: N_4  and  C_12
REMARK    2  A    between atoms: N_4  and  C_15
REMARK    3  A    between atoms: C_6  and  C_12
REMARK    4  A    between atoms: C_7  and  C_13
REMARK    5  A    between atoms: C_15  and  C_16
REMARK                            x       y       z     vdW  Elec       q    Type
REMARK                         _______ _______ _______ _____ _____    ______ ____
ROOT
ATOM      4  N   UNL     1      14.908   6.142  20.185  0.00  0.00    -0.311 NA
ATOM     23  H   UNL     1      14.788   5.132  20.261  0.00  0.00    +0.122 HD
ENDROOT
BRANCH   4  12
ATOM     12  C   UNL     1      13.676   6.739  19.697  0.00  0.00    +0.100 C 
BRANCH  12   6
ATOM      3  N   UNL     1      11.369   7.422  20.404  0.00  0.00    -0.298 NA
ATOM      5  C   UNL     1      12.204   9.223  22.084  0.00  0.00    -0.000 C 
ATOM      6  C   UNL     1      12.746   7.092  20.860  0.00  0.00    +0.071 C 
ATOM      7  C   UNL     1      11.697   9.884  20.780  0.00  0.00    +0.028 C 
ATOM      8  C   UNL     1      13.326   8.225  21.734  0.00  0.00    +0.024 C 
ATOM      9  C   UNL     1      11.032   8.415  22.669  0.00  0.00    +0.019 C 
ATOM     10  C   UNL     1      11.342   8.765  19.772  0.00  0.00    +0.092 C 
ATOM     11  C   UNL     1      10.489   7.457  21.597  0.00  0.00    +0.085 C 
BRANCH   7  13
ATOM     13  C   UNL     1      12.673  10.864  20.203  0.00  0.00    -0.030 C 
ATOM     14  C   UNL     1      13.478  10.599  19.169  0.00  0.00    +0.004 C 
ENDBRANCH   7  13
ENDBRANCH  12   6
ENDBRANCH   4  12
BRANCH   4  15
ATOM     15  C   UNL     1      16.022   6.436  19.292  0.00  0.00    +0.116 C 
BRANCH  15  16
ATOM      1  O   UNL     1      20.711   5.492  20.515  0.00  0.00    -0.453 OA
ATOM      2  O   UNL     1      20.806   7.347  22.049  0.00  0.00    -0.453 OA
ATOM     16  C   UNL     1      17.293   6.710  20.051  0.00  0.00    -0.030 A 
ATOM     17  C   UNL     1      18.394   5.887  19.852  0.00  0.00    +0.054 A 
ATOM     18  C   UNL     1      17.337   7.791  20.939  0.00  0.00    +0.009 A 
ATOM     19  C   UNL     1      19.537   6.178  20.569  0.00  0.00    +0.167 A 
ATOM     20  C   UNL     1      18.506   8.064  21.654  0.00  0.00    +0.050 A 
ATOM     21  C   UNL     1      19.590   7.237  21.446  0.00  0.00    +0.166 A 
ATOM     22  C   UNL     1      21.510   6.239  21.455  0.00  0.00    +0.466 C 
ENDBRANCH  15  16
ENDBRANCH   4  15
TORSDOF 5
ENDMDL
MODEL 2
REMARK VINA RESULT:      -6.4      1.296      1.733
REMARK  Name = 11943580
REMARK  5 active torsions:
REMARK  status: ('A' for Active; 'I' for Inactive)
REMARK    1  A    between atoms: N_4  and  C_12
REMARK    2  A    between atoms: N_4  and  C_15
REMARK    3  A    between atoms: C_6  and  C_12
REMARK    4  A    between atoms: C_7  and  C_13
REMARK    5  A    between atoms: C_15  and  C_16
REMARK                            x       y       z     vdW  Elec       q    Type
REMARK                         _______ _______ _______ _____ _____    ______ ____
ROOT
ATOM      4  N   UNL     1      15.516   8.561  21.166  0.00  0.00    -0.311 NA
ATOM     23  H   UNL     1      16.159   9.053  21.786  0.00  0.00    +0.122 HD
ENDROOT
BRANCH   4  12
ATOM     12  C   UNL     1      14.766   7.577  21.930  0.00  0.00    +0.100 C 
BRANCH  12   6
ATOM      3  N   UNL     1      12.520   6.768  21.160  0.00  0.00    -0.298 NA
ATOM      5  C   UNL     1      11.796   9.078  20.209  0.00  0.00    -0.000 C 
ATOM      6  C   UNL     1      13.263   7.858  21.848  0.00  0.00    +0.071 C 
ATOM      7  C   UNL     1      12.219   8.124  19.066  0.00  0.00    +0.028 C 
ATOM      8  C   UNL     1      12.970   9.227  21.197  0.00  0.00    +0.024 C 
ATOM      9  C   UNL     1      10.639   8.397  20.963  0.00  0.00    +0.019 C 
ATOM     10  C   UNL     1      12.766   6.821  19.697  0.00  0.00    +0.092 C 
ATOM     11  C   UNL     1      11.072   6.986  21.392  0.00  0.00    +0.085 C 
BRANCH   7  13
ATOM     13  C   UNL     1      13.205   8.744  18.124  0.00  0.00    -0.030 C 
ATOM     14  C   UNL     1      12.969   9.854  17.416  0.00  0.00    +0.004 C 
ENDBRANCH   7  13
ENDBRANCH  12   6
ENDBRANCH   4  12
BRANCH   4  15
ATOM     15  C   UNL     1      16.263   7.928  20.086  0.00  0.00    +0.116 C 
BRANCH  15  16
ATOM      1  O   UNL     1      19.975   4.673  20.094  0.00  0.00    -0.453 OA
ATOM      2  O   UNL     1      21.221   5.923  21.735  0.00  0.00    -0.453 OA
ATOM     16  C   UNL     1      17.600   7.418  20.553  0.00  0.00    -0.030 A 
ATOM     17  C   UNL     1      18.096   6.231  20.026  0.00  0.00    +0.054 A 
ATOM     18  C   UNL     1      18.315   8.152  21.506  0.00  0.00    +0.009 A 
ATOM     19  C   UNL     1      19.326   5.804  20.484  0.00  0.00    +0.167 A 
ATOM     20  C   UNL     1      19.558   7.697  21.953  0.00  0.00    +0.050 A 
ATOM     21  C   UNL     1      20.037   6.518  21.421  0.00  0.00    +0.166 A 
ATOM     22  C   UNL     1      21.175   4.756  20.890  0.00  0.00    +0.466 C 
ENDBRANCH  15  16
ENDBRANCH   4  15
TORSDOF 5
ENDMDL
MODEL 3
REMARK VINA RESULT:      -6.4     16.720     18.138
REMARK  Name = 11943580
REMARK  5 active torsions:
REMARK  status: ('A' for Active; 'I' for Inactive)
REMARK    1  A    between atoms: N_4  and  C_12
REMARK    2  A    between atoms: N_4  and  C_15
REMARK    3  A    between atoms: C_6  and  C_12
REMARK    4  A    between atoms: C_7  and  C_13
REMARK    5  A    between atoms: C_15  and  C_16
REMARK                            x       y       z     vdW  Elec       q    Type
REMARK                         _______ _______ _______ _____ _____    ______ ____
ROOT
ATOM      4  N   UNL     1      11.380   4.898   3.464  0.00  0.00    -0.311 NA
ATOM     23  H   UNL     1      12.311   5.061   3.849  0.00  0.00    +0.122 HD
ENDROOT
BRANCH   4  12
ATOM     12  C   UNL     1      10.426   4.753   4.551  0.00  0.00    +0.100 C 
BRANCH  12   6
ATOM      3  N   UNL     1      11.089   6.715   5.966  0.00  0.00    -0.298 NA
ATOM      5  C   UNL     1       8.785   6.881   7.162  0.00  0.00    -0.000 C 
ATOM      6  C   UNL     1      10.027   6.122   5.110  0.00  0.00    +0.071 C 
ATOM      7  C   UNL     1       9.835   6.217   8.085  0.00  0.00    +0.028 C 
ATOM      8  C   UNL     1       8.678   6.064   5.859  0.00  0.00    +0.024 C 
ATOM      9  C   UNL     1       9.323   8.275   6.791  0.00  0.00    +0.019 C 
ATOM     10  C   UNL     1      11.140   6.023   7.278  0.00  0.00    +0.092 C 
ATOM     11  C   UNL     1      10.739   8.136   6.209  0.00  0.00    +0.085 C 
BRANCH   7  13
ATOM     13  C   UNL     1       9.354   4.932   8.687  0.00  0.00    -0.030 C 
ATOM     14  C   UNL     1       9.396   4.655   9.995  0.00  0.00    +0.004 C 
ENDBRANCH   7  13
ENDBRANCH  12   6
ENDBRANCH   4  12
BRANCH   4  15
ATOM     15  C   UNL     1      11.400   3.708   2.622  0.00  0.00    +0.116 C 
BRANCH  15  16
ATOM      1  O   UNL     1      15.933   3.786   0.669  0.00  0.00    -0.453 OA
ATOM      2  O   UNL     1      15.095   4.202  -1.551  0.00  0.00    -0.453 OA
ATOM     16  C   UNL     1      12.365   3.847   1.476  0.00  0.00    -0.030 A 
ATOM     17  C   UNL     1      13.729   3.731   1.718  0.00  0.00    +0.054 A 
ATOM     18  C   UNL     1      11.867   4.088   0.190  0.00  0.00    +0.009 A 
ATOM     19  C   UNL     1      14.575   3.864   0.636  0.00  0.00    +0.167 A 
ATOM     20  C   UNL     1      12.745   4.220  -0.888  0.00  0.00    +0.050 A 
ATOM     21  C   UNL     1      14.096   4.102  -0.631  0.00  0.00    +0.166 A 
ATOM     22  C   UNL     1      16.255   3.999  -0.720  0.00  0.00    +0.466 C 
ENDBRANCH  15  16
ENDBRANCH   4  15
TORSDOF 5
ENDMDL
MODEL 4
REMARK VINA RESULT:      -6.2     16.883     18.434
REMARK  Name = 11943580
REMARK  5 active torsions:
REMARK  status: ('A' for Active; 'I' for Inactive)
REMARK    1  A    between atoms: N_4  and  C_12
REMARK    2  A    between atoms: N_4  and  C_15
REMARK    3  A    between atoms: C_6  and  C_12
REMARK    4  A    between atoms: C_7  and  C_13
REMARK    5  A    between atoms: C_15  and  C_16
REMARK                            x       y       z     vdW  Elec       q    Type
REMARK                         _______ _______ _______ _____ _____    ______ ____
ROOT
ATOM      4  N   UNL     1      11.870   5.745   4.025  0.00  0.00    -0.311 NA
ATOM     23  H   UNL     1      12.333   4.874   3.766  0.00  0.00    +0.122 HD
ENDROOT
BRANCH   4  12
ATOM     12  C   UNL     1      10.597   5.445   4.659  0.00  0.00    +0.100 C 
BRANCH  12   6
ATOM      3  N   UNL     1      11.107   7.205   6.371  0.00  0.00    -0.298 NA
ATOM      5  C   UNL     1       8.837   6.934   7.612  0.00  0.00    -0.000 C 
ATOM      6  C   UNL     1      10.082   6.654   5.443  0.00  0.00    +0.071 C 
ATOM      7  C   UNL     1       9.975   6.238   8.396  0.00  0.00    +0.028 C 
ATOM      8  C   UNL     1       8.770   6.336   6.192  0.00  0.00    +0.024 C 
ATOM      9  C   UNL     1       9.222   8.417   7.471  0.00  0.00    +0.019 C 
ATOM     10  C   UNL     1      11.268   6.315   7.548  0.00  0.00    +0.092 C 
ATOM     11  C   UNL     1      10.626   8.522   6.853  0.00  0.00    +0.085 C 
BRANCH   7  13
ATOM     13  C   UNL     1       9.644   4.829   8.781  0.00  0.00    -0.030 C 
ATOM     14  C   UNL     1       9.060   4.485   9.935  0.00  0.00    +0.004 C 
ENDBRANCH   7  13
ENDBRANCH  12   6
ENDBRANCH   4  12
BRANCH   4  15
ATOM     15  C   UNL     1      11.683   6.573   2.840  0.00  0.00    +0.116 C 
BRANCH  15  16
ATOM      1  O   UNL     1      12.936   3.184  -0.524  0.00  0.00    -0.453 OA
ATOM      2  O   UNL     1      10.857   3.430  -1.716  0.00  0.00    -0.453 OA
ATOM     16  C   UNL     1      11.428   5.744   1.610  0.00  0.00    -0.030 A 
ATOM     17  C   UNL     1      12.398   4.846   1.182  0.00  0.00    +0.054 A 
ATOM     18  C   UNL     1      10.216   5.895   0.925  0.00  0.00    +0.009 A 
ATOM     19  C   UNL     1      12.118   4.107   0.050  0.00  0.00    +0.167 A 
ATOM     20  C   UNL     1       9.958   5.136  -0.218  0.00  0.00    +0.050 A 
ATOM     21  C   UNL     1      10.931   4.249  -0.630  0.00  0.00    +0.166 A 
ATOM     22  C   UNL     1      12.130   2.758  -1.642  0.00  0.00    +0.466 C 
ENDBRANCH  15  16
ENDBRANCH   4  15
TORSDOF 5
ENDMDL
MODEL 5
REMARK VINA RESULT:      -6.2      4.759      7.571
REMARK  Name = 11943580
REMARK  5 active torsions:
REMARK  status: ('A' for Active; 'I' for Inactive)
REMARK    1  A    between atoms: N_4  and  C_12
REMARK    2  A    between atoms: N_4  and  C_15
REMARK    3  A    between atoms: C_6  and  C_12
REMARK    4  A    between atoms: C_7  and  C_13
REMARK    5  A    between atoms: C_15  and  C_16
REMARK                            x       y       z     vdW  Elec       q    Type
REMARK                         _______ _______ _______ _____ _____    ______ ____
ROOT
ATOM      4  N   UNL     1      10.724   8.658  21.354  0.00  0.00    -0.311 NA
ATOM     23  H   UNL     1       9.727   8.638  21.140  0.00  0.00    +0.122 HD
ENDROOT
BRANCH   4  12
ATOM     12  C   UNL     1      11.313   7.367  21.038  0.00  0.00    +0.100 C 
BRANCH  12   6
ATOM      3  N   UNL     1      13.724   6.810  20.632  0.00  0.00    -0.298 NA
ATOM      5  C   UNL     1      14.374   9.237  19.957  0.00  0.00    -0.000 C 
ATOM      6  C   UNL     1      12.528   7.535  20.123  0.00  0.00    +0.071 C 
ATOM      7  C   UNL     1      14.837   8.927  21.401  0.00  0.00    +0.028 C 
ATOM      8  C   UNL     1      12.850   9.023  19.864  0.00  0.00    +0.024 C 
ATOM      9  C   UNL     1      15.044   8.202  19.035  0.00  0.00    +0.019 C 
ATOM     10  C   UNL     1      14.306   7.527  21.793  0.00  0.00    +0.092 C 
ATOM     11  C   UNL     1      14.738   6.787  19.550  0.00  0.00    +0.085 C 
BRANCH   7  13
ATOM     13  C   UNL     1      14.420   9.977  22.386  0.00  0.00    -0.030 C 
ATOM     14  C   UNL     1      15.207  10.982  22.787  0.00  0.00    +0.004 C 
ENDBRANCH   7  13
ENDBRANCH  12   6
ENDBRANCH   4  12
BRANCH   4  15
ATOM     15  C   UNL     1      10.915   8.991  22.760  0.00  0.00    +0.116 C 
BRANCH  15  16
ATOM      1  O   UNL     1      10.702  13.021  25.604  0.00  0.00    -0.453 OA
ATOM      2  O   UNL     1      11.035  14.501  23.732  0.00  0.00    -0.453 OA
ATOM     16  C   UNL     1      10.953  10.479  22.985  0.00  0.00    -0.030 A 
ATOM     17  C   UNL     1      10.795  10.976  24.273  0.00  0.00    +0.054 A 
ATOM     18  C   UNL     1      11.147  11.329  21.891  0.00  0.00    +0.009 A 
ATOM     19  C   UNL     1      10.838  12.346  24.430  0.00  0.00    +0.167 A 
ATOM     20  C   UNL     1      11.186  12.713  22.076  0.00  0.00    +0.050 A 
ATOM     21  C   UNL     1      11.027  13.191  23.361  0.00  0.00    +0.166 A 
ATOM     22  C   UNL     1      10.829  14.385  25.154  0.00  0.00    +0.466 C 
ENDBRANCH  15  16
ENDBRANCH   4  15
TORSDOF 5
ENDMDL
MODEL 6
REMARK VINA RESULT:      -5.9     17.105     19.008
REMARK  Name = 11943580
REMARK  5 active torsions:
REMARK  status: ('A' for Active; 'I' for Inactive)
REMARK    1  A    between atoms: N_4  and  C_12
REMARK    2  A    between atoms: N_4  and  C_15
REMARK    3  A    between atoms: C_6  and  C_12
REMARK    4  A    between atoms: C_7  and  C_13
REMARK    5  A    between atoms: C_15  and  C_16
REMARK                            x       y       z     vdW  Elec       q    Type
REMARK                         _______ _______ _______ _____ _____    ______ ____
ROOT
ATOM      4  N   UNL     1      10.154   6.229   2.723  0.00  0.00    -0.311 NA
ATOM     23  H   UNL     1       9.622   5.386   2.938  0.00  0.00    +0.122 HD
ENDROOT
BRANCH   4  12
ATOM     12  C   UNL     1      10.958   6.003   1.534  0.00  0.00    +0.100 C 
BRANCH  12   6
ATOM      3  N   UNL     1      13.409   5.757   1.063  0.00  0.00    -0.298 NA
ATOM      5  C   UNL     1      13.360   3.157   1.120  0.00  0.00    -0.000 C 
ATOM      6  C   UNL     1      12.265   5.288   1.889  0.00  0.00    +0.071 C 
ATOM      7  C   UNL     1      13.417   3.672  -0.338  0.00  0.00    +0.028 C 
ATOM      8  C   UNL     1      12.117   3.753   1.812  0.00  0.00    +0.024 C 
ATOM      9  C   UNL     1      14.601   3.708   1.845  0.00  0.00    +0.019 C 
ATOM     10  C   UNL     1      13.307   5.215  -0.315  0.00  0.00    +0.092 C 
ATOM     11  C   UNL     1      14.656   5.235   1.672  0.00  0.00    +0.085 C 
BRANCH   7  13
ATOM     13  C   UNL     1      12.374   3.052  -1.218  0.00  0.00    -0.030 C 
ATOM     14  C   UNL     1      11.364   3.731  -1.775  0.00  0.00    +0.004 C 
ENDBRANCH   7  13
ENDBRANCH  12   6
ENDBRANCH   4  12
BRANCH   4  15
ATOM     15  C   UNL     1      10.992   6.582   3.863  0.00  0.00    +0.116 C 
BRANCH  15  16
ATOM      1  O   UNL     1      10.281   6.212   8.734  0.00  0.00    -0.453 OA
ATOM      2  O   UNL     1       9.525   3.931   8.567  0.00  0.00    -0.453 OA
ATOM     16  C   UNL     1      10.590   5.839   5.108  0.00  0.00    -0.030 A 
ATOM     17  C   UNL     1      10.660   6.483   6.337  0.00  0.00    +0.054 A 
ATOM     18  C   UNL     1      10.152   4.513   5.000  0.00  0.00    +0.009 A 
ATOM     19  C   UNL     1      10.280   5.761   7.450  0.00  0.00    +0.167 A 
ATOM     20  C   UNL     1       9.774   3.804   6.142  0.00  0.00    +0.050 A 
ATOM     21  C   UNL     1       9.850   4.458   7.355  0.00  0.00    +0.166 A 
ATOM     22  C   UNL     1       9.801   5.048   9.436  0.00  0.00    +0.466 C 
ENDBRANCH  15  16
ENDBRANCH   4  15
TORSDOF 5
ENDMDL
MODEL 7
REMARK VINA RESULT:      -5.9     26.806     28.370
REMARK  Name = 11943580
REMARK  5 active torsions:
REMARK  status: ('A' for Active; 'I' for Inactive)
REMARK    1  A    between atoms: N_4  and  C_12
REMARK    2  A    between atoms: N_4  and  C_15
REMARK    3  A    between atoms: C_6  and  C_12
REMARK    4  A    between atoms: C_7  and  C_13
REMARK    5  A    between atoms: C_15  and  C_16
REMARK                            x       y       z     vdW  Elec       q    Type
REMARK                         _______ _______ _______ _____ _____    ______ ____
ROOT
ATOM      4  N   UNL     1      -3.087 -10.287  15.496  0.00  0.00    -0.311 NA
ATOM     23  H   UNL     1      -2.226  -9.802  15.747  0.00  0.00    +0.122 HD
ENDROOT
BRANCH   4  12
ATOM     12  C   UNL     1      -3.615 -10.971  16.665  0.00  0.00    +0.100 C 
BRANCH  12   6
ATOM      3  N   UNL     1      -5.764 -11.216  17.935  0.00  0.00    -0.298 NA
ATOM      5  C   UNL     1      -7.180  -9.928  16.174  0.00  0.00    -0.000 C 
ATOM      6  C   UNL     1      -4.894 -10.290  17.161  0.00  0.00    +0.071 C 
ATOM      7  C   UNL     1      -7.406 -11.454  16.048  0.00  0.00    +0.028 C 
ATOM      8  C   UNL     1      -5.677  -9.630  16.005  0.00  0.00    +0.024 C 
ATOM      9  C   UNL     1      -7.573  -9.527  17.607  0.00  0.00    +0.019 C 
ATOM     10  C   UNL     1      -6.442 -12.171  17.023  0.00  0.00    +0.092 C 
ATOM     11  C   UNL     1      -6.806 -10.405  18.610  0.00  0.00    +0.085 C 
BRANCH   7  13
ATOM     13  C   UNL     1      -7.253 -11.954  14.644  0.00  0.00    -0.030 C 
ATOM     14  C   UNL     1      -6.375 -12.893  14.275  0.00  0.00    +0.004 C 
ENDBRANCH   7  13
ENDBRANCH  12   6
ENDBRANCH   4  12
BRANCH   4  15
ATOM     15  C   UNL     1      -2.821 -11.228  14.415  0.00  0.00    +0.116 C 
BRANCH  15  16
ATOM      1  O   UNL     1      -5.622  -9.393  10.787  0.00  0.00    -0.453 OA
ATOM      2  O   UNL     1      -3.712  -8.896   9.407  0.00  0.00    -0.453 OA
ATOM     16  C   UNL     1      -3.024 -10.601  13.062  0.00  0.00    -0.030 A 
ATOM     17  C   UNL     1      -4.314 -10.317  12.630  0.00  0.00    +0.054 A 
ATOM     18  C   UNL     1      -1.906 -10.316  12.268  0.00  0.00    +0.009 A 
ATOM     19  C   UNL     1      -4.450  -9.741  11.384  0.00  0.00    +0.167 A 
ATOM     20  C   UNL     1      -2.071  -9.734  11.009  0.00  0.00    +0.050 A 
ATOM     21  C   UNL     1      -3.358  -9.458  10.595  0.00  0.00    +0.166 A 
ATOM     22  C   UNL     1      -5.147  -8.857   9.536  0.00  0.00    +0.466 C 
ENDBRANCH  15  16
ENDBRANCH   4  15
TORSDOF 5
ENDMDL
MODEL 8
REMARK VINA RESULT:      -5.9     26.703     28.720
REMARK  Name = 11943580
REMARK  5 active torsions:
REMARK  status: ('A' for Active; 'I' for Inactive)
REMARK    1  A    between atoms: N_4  and  C_12
REMARK    2  A    between atoms: N_4  and  C_15
REMARK    3  A    between atoms: C_6  and  C_12
REMARK    4  A    between atoms: C_7  and  C_13
REMARK    5  A    between atoms: C_15  and  C_16
REMARK                            x       y       z     vdW  Elec       q    Type
REMARK                         _______ _______ _______ _____ _____    ______ ____
ROOT
ATOM      4  N   UNL     1      -3.040 -10.368  14.796  0.00  0.00    -0.311 NA
ATOM     23  H   UNL     1      -3.896  -9.848  14.606  0.00  0.00    +0.122 HD
ENDROOT
BRANCH   4  12
ATOM     12  C   UNL     1      -3.039 -11.598  14.021  0.00  0.00    +0.100 C 
BRANCH  12   6
ATOM      3  N   UNL     1      -4.043 -12.511  11.912  0.00  0.00    -0.298 NA
ATOM      5  C   UNL     1      -5.149 -10.257  11.230  0.00  0.00    -0.000 C 
ATOM      6  C   UNL     1      -4.273 -11.672  13.118  0.00  0.00    +0.071 C 
ATOM      7  C   UNL     1      -3.868 -10.512  10.399  0.00  0.00    +0.028 C 
ATOM      8  C   UNL     1      -4.782 -10.267  12.728  0.00  0.00    +0.024 C 
ATOM      9  C   UNL     1      -6.097 -11.443  10.978  0.00  0.00    +0.019 C 
ATOM     10  C   UNL     1      -3.184 -11.791  10.939  0.00  0.00    +0.092 C 
ATOM     11  C   UNL     1      -5.357 -12.758  11.271  0.00  0.00    +0.085 C 
BRANCH   7  13
ATOM     13  C   UNL     1      -2.934  -9.341  10.391  0.00  0.00    -0.030 C 
ATOM     14  C   UNL     1      -1.742  -9.329  10.998  0.00  0.00    +0.004 C 
ENDBRANCH   7  13
ENDBRANCH  12   6
ENDBRANCH   4  12
BRANCH   4  15
ATOM     15  C   UNL     1      -2.943 -10.648  16.223  0.00  0.00    +0.116 C 
BRANCH  15  16
ATOM      1  O   UNL     1      -7.647  -9.189  16.568  0.00  0.00    -0.453 OA
ATOM      2  O   UNL     1      -7.991 -10.393  18.626  0.00  0.00    -0.453 OA
ATOM     16  C   UNL     1      -4.288 -10.601  16.897  0.00  0.00    -0.030 A 
ATOM     17  C   UNL     1      -5.313  -9.863  16.318  0.00  0.00    +0.054 A 
ATOM     18  C   UNL     1      -4.477 -11.305  18.092  0.00  0.00    +0.009 A 
ATOM     19  C   UNL     1      -6.529  -9.851  16.972  0.00  0.00    +0.167 A 
ATOM     20  C   UNL     1      -5.717 -11.276  18.734  0.00  0.00    +0.050 A 
ATOM     21  C   UNL     1      -6.724 -10.538  18.147  0.00  0.00    +0.166 A 
ATOM     22  C   UNL     1      -8.569  -9.538  17.620  0.00  0.00    +0.466 C 
ENDBRANCH  15  16
ENDBRANCH   4  15
TORSDOF 5
ENDMDL
MODEL 9
REMARK VINA RESULT:      -5.8     27.013     28.603
REMARK  Name = 11943580
REMARK  5 active torsions:
REMARK  status: ('A' for Active; 'I' for Inactive)
REMARK    1  A    between atoms: N_4  and  C_12
REMARK    2  A    between atoms: N_4  and  C_15
REMARK    3  A    between atoms: C_6  and  C_12
REMARK    4  A    between atoms: C_7  and  C_13
REMARK    5  A    between atoms: C_15  and  C_16
REMARK                            x       y       z     vdW  Elec       q    Type
REMARK                         _______ _______ _______ _____ _____    ______ ____
ROOT
ATOM      4  N   UNL     1      -3.835 -13.286  15.877  0.00  0.00    -0.311 NA
ATOM     23  H   UNL     1      -2.997 -13.593  16.370  0.00  0.00    +0.122 HD
ENDROOT
BRANCH   4  12
ATOM     12  C   UNL     1      -5.011 -13.827  16.537  0.00  0.00    +0.100 C 
BRANCH  12   6
ATOM      3  N   UNL     1      -6.740 -12.683  17.948  0.00  0.00    -0.298 NA
ATOM      5  C   UNL     1      -5.228 -10.636  18.488  0.00  0.00    -0.000 C 
ATOM      6  C   UNL     1      -5.307 -13.064  17.831  0.00  0.00    +0.071 C 
ATOM      7  C   UNL     1      -6.274 -10.274  17.407  0.00  0.00    +0.028 C 
ATOM      8  C   UNL     1      -4.390 -11.831  17.991  0.00  0.00    +0.024 C 
ATOM      9  C   UNL     1      -6.004 -11.101  19.734  0.00  0.00    +0.019 C 
ATOM     10  C   UNL     1      -7.051 -11.558  17.031  0.00  0.00    +0.092 C 
ATOM     11  C   UNL     1      -6.978 -12.223  19.337  0.00  0.00    +0.085 C 
BRANCH   7  13
ATOM     13  C   UNL     1      -5.669  -9.616  16.205  0.00  0.00    -0.030 C 
ATOM     14  C   UNL     1      -5.820 -10.060  14.952  0.00  0.00    +0.004 C 
ENDBRANCH   7  13
ENDBRANCH  12   6
ENDBRANCH   4  12
BRANCH   4  15
ATOM     15  C   UNL     1      -3.770 -13.718  14.485  0.00  0.00    +0.116 C 
BRANCH  15  16
ATOM      1  O   UNL     1      -4.307 -11.206  10.269  0.00  0.00    -0.453 OA
ATOM      2  O   UNL     1      -2.723  -9.518  10.938  0.00  0.00    -0.453 OA
ATOM     16  C   UNL     1      -3.464 -12.574  13.556  0.00  0.00    -0.030 A 
ATOM     17  C   UNL     1      -4.104 -12.510  12.324  0.00  0.00    +0.054 A 
ATOM     18  C   UNL     1      -2.542 -11.599  13.955  0.00  0.00    +0.009 A 
ATOM     19  C   UNL     1      -3.792 -11.443  11.506  0.00  0.00    +0.167 A 
ATOM     20  C   UNL     1      -2.244 -10.529  13.108  0.00  0.00    +0.050 A 
ATOM     21  C   UNL     1      -2.887 -10.479  11.888  0.00  0.00    +0.166 A 
ATOM     22  C   UNL     1      -3.626  -9.985   9.916  0.00  0.00    +0.466 C 
ENDBRANCH  15  16
ENDBRANCH   4  15
TORSDOF 5
ENDMDL
MODEL 10
REMARK VINA RESULT:      -5.7     27.414     28.750
REMARK  Name = 11943580
REMARK  5 active torsions:
REMARK  status: ('A' for Active; 'I' for Inactive)
REMARK    1  A    between atoms: N_4  and  C_12
REMARK    2  A    between atoms: N_4  and  C_15
REMARK    3  A    between atoms: C_6  and  C_12
REMARK    4  A    between atoms: C_7  and  C_13
REMARK    5  A    between atoms: C_15  and  C_16
REMARK                            x       y       z     vdW  Elec       q    Type
REMARK                         _______ _______ _______ _____ _____    ______ ____
ROOT
ATOM      4  N   UNL     1      -2.488 -12.381  13.762  0.00  0.00    -0.311 NA
ATOM     23  H   UNL     1      -1.514 -12.404  14.064  0.00  0.00    +0.122 HD
ENDROOT
BRANCH   4  12
ATOM     12  C   UNL     1      -3.291 -13.199  14.655  0.00  0.00    +0.100 C 
BRANCH  12   6
ATOM      3  N   UNL     1      -5.504 -12.634  15.691  0.00  0.00    -0.298 NA
ATOM      5  C   UNL     1      -5.145 -10.063  15.527  0.00  0.00    -0.000 C 
ATOM      6  C   UNL     1      -4.050 -12.324  15.657  0.00  0.00    +0.071 C 
ATOM      7  C   UNL     1      -6.106 -10.553  14.417  0.00  0.00    +0.028 C 
ATOM      8  C   UNL     1      -3.809 -10.820  15.402  0.00  0.00    +0.024 C 
ATOM      9  C   UNL     1      -5.774 -10.454  16.877  0.00  0.00    +0.019 C 
ATOM     10  C   UNL     1      -6.174 -12.097  14.479  0.00  0.00    +0.092 C 
ATOM     11  C   UNL     1      -6.087 -11.959  16.876  0.00  0.00    +0.085 C 
BRANCH   7  13
ATOM     13  C   UNL     1      -5.720 -10.066  13.054  0.00  0.00    -0.030 C 
ATOM     14  C   UNL     1      -6.422  -9.168  12.353  0.00  0.00    +0.004 C 
ENDBRANCH   7  13
ENDBRANCH  12   6
ENDBRANCH   4  12
BRANCH   4  15
ATOM     15  C   UNL     1      -2.585 -12.858  12.387  0.00  0.00    +0.116 C 
BRANCH  15  16
ATOM      1  O   UNL     1      -5.109 -11.067   8.541  0.00  0.00    -0.453 OA
ATOM      2  O   UNL     1      -4.166  -8.865   8.799  0.00  0.00    -0.453 OA
ATOM     16  C   UNL     1      -2.988 -11.760  11.439  0.00  0.00    -0.030 A 
ATOM     17  C   UNL     1      -3.901 -12.035  10.429  0.00  0.00    +0.054 A 
ATOM     18  C   UNL     1      -2.434 -10.484  11.599  0.00  0.00    +0.009 A 
ATOM     19  C   UNL     1      -4.240 -10.997   9.585  0.00  0.00    +0.167 A 
ATOM     20  C   UNL     1      -2.793  -9.450  10.731  0.00  0.00    +0.050 A 
ATOM     21  C   UNL     1      -3.701  -9.740   9.733  0.00  0.00    +0.166 A 
ATOM     22  C   UNL     1      -5.058  -9.713   8.048  0.00  0.00    +0.466 C 
ENDBRANCH  15  16
ENDBRANCH   4  15
TORSDOF 5
ENDMDL
