REMARK  Name = 7673684
REMARK  7 active torsions:
REMARK  status: ('A' for Active; 'I' for Inactive)
REMARK    1  A    between atoms: O_4  and  C_29
REMARK    2  A    between atoms: O_4  and  C_35
REMARK    3  A    between atoms: O_5  and  C_31
REMARK    4  A    between atoms: O_5  and  C_37
REMARK    5  A    between atoms: N_8  and  C_23
REMARK    6  A    between atoms: N_9  and  C_21
REMARK    7  A    between atoms: N_10  and  C_30
REMARK                            x       y       z     vdW  Elec       q    Type
REMARK                         _______ _______ _______ _____ _____    ______ ____
ROOT
ATOM      1  O   UNL     1       0.167  -1.445   2.349  0.00  0.00    -0.266 OA
ATOM      2  O   UNL     1       3.477   0.383  -2.204  0.00  0.00    -0.252 OA
ATOM      6  N   UNL     1       4.226  -1.133  -0.624  0.00  0.00    -0.284 N 
ATOM      7  N   UNL     1       1.666  -2.410   0.838  0.00  0.00    -0.310 N 
ATOM      8  N   UNL     1       4.207   1.178  -0.151  0.00  0.00    -0.269 N 
ATOM     11  C   UNL     1       4.158  -2.689   1.345  0.00  0.00    +0.027 C 
ATOM     12  C   UNL     1       3.267  -3.427  -0.821  0.00  0.00    +0.054 C 
ATOM     13  C   UNL     1       4.084  -3.871   0.389  0.00  0.00    +0.018 C 
ATOM     14  C   UNL     1       4.829  -1.474   0.675  0.00  0.00    +0.114 C 
ATOM     15  C   UNL     1       2.742  -2.362   1.836  0.00  0.00    +0.130 C 
ATOM     16  C   UNL     1       3.995  -2.269  -1.525  0.00  0.00    +0.119 C 
ATOM     17  C   UNL     1       1.871  -2.990  -0.418  0.00  0.00    +0.027 A 
ATOM     18  C   UNL     1       0.844  -3.131  -1.272  0.00  0.00    +0.024 A 
ATOM     19  C   UNL     1       0.400  -1.945   1.247  0.00  0.00    +0.273 A 
ATOM     20  C   UNL     1       3.926   0.172  -1.075  0.00  0.00    +0.306 C 
ATOM     21  C   UNL     1      -0.712  -2.097   0.256  0.00  0.00    +0.100 A 
ATOM     22  C   UNL     1      -0.472  -2.673  -0.926  0.00  0.00    +0.030 A 
ATOM     38  H   UNL     1       4.955   1.023   0.515  0.00  0.00    +0.156 HD
ENDROOT
BRANCH  21   9
ATOM      3  O   UNL     1      -2.703  -1.110  -1.519  0.00  0.00    -0.252 OA
ATOM      9  N   UNL     1      -1.950  -1.644   0.608  0.00  0.00    -0.265 N 
ATOM     10  N   UNL     1      -4.061  -0.778   0.366  0.00  0.00    -0.266 N 
ATOM     24  C   UNL     1      -2.897  -1.166  -0.307  0.00  0.00    +0.308 C 
ATOM     39  H   UNL     1      -2.095  -1.415   1.588  0.00  0.00    +0.157 HD
ATOM     40  H   UNL     1      -4.066  -0.896   1.376  0.00  0.00    +0.156 HD
BRANCH  10  30
ATOM     30  C   UNL     1      -5.248  -0.244  -0.189  0.00  0.00    +0.077 A 
ATOM     31  C   UNL     1      -6.325   0.095   0.630  0.00  0.00    +0.141 A 
ATOM     32  C   UNL     1      -5.335  -0.058  -1.568  0.00  0.00    +0.027 A 
ATOM     33  C   UNL     1      -7.489   0.620   0.069  0.00  0.00    +0.047 A 
ATOM     34  C   UNL     1      -6.499   0.468  -2.129  0.00  0.00    +0.002 A 
ATOM     36  C   UNL     1      -7.576   0.807  -1.311  0.00  0.00    +0.004 A 
BRANCH  31   5
ATOM      5  O   UNL     1      -6.261  -0.081   1.980  0.00  0.00    -0.493 OA
ATOM     37  C   UNL     1      -5.763   1.010   2.752  0.00  0.00    +0.277 C 
ENDBRANCH  31   5
ENDBRANCH  10  30
ENDBRANCH  21   9
BRANCH   8  23
ATOM     23  C   UNL     1       3.541   2.421  -0.008  0.00  0.00    +0.035 A 
ATOM     25  C   UNL     1       3.950   3.322   0.975  0.00  0.00    +0.027 A 
ATOM     26  C   UNL     1       2.479   2.744  -0.852  0.00  0.00    +0.027 A 
ATOM     27  C   UNL     1       3.296   4.546   1.114  0.00  0.00    +0.047 A 
ATOM     28  C   UNL     1       1.825   3.968  -0.713  0.00  0.00    +0.047 A 
ATOM     29  C   UNL     1       2.233   4.869   0.270  0.00  0.00    +0.120 A 
BRANCH  29   4
ATOM      4  O   UNL     1       1.596   6.064   0.405  0.00  0.00    -0.495 OA
ATOM     35  C   UNL     1       0.518   6.330  -0.491  0.00  0.00    +0.277 C 
ENDBRANCH  29   4
ENDBRANCH   8  23
TORSDOF 5
