MODEL 1
REMARK VINA RESULT:      -8.3      0.000      0.000
REMARK  Name = 40778188
REMARK  9 active torsions:
REMARK  status: ('A' for Active; 'I' for Inactive)
REMARK    1  A    between atoms: O_3  and  C_11
REMARK    2  A    between atoms: O_4  and  C_12
REMARK    3  A    between atoms: N_8  and  C_21
REMARK    4  A    between atoms: N_9  and  C_15
REMARK    5  A    between atoms: C_10  and  C_14
REMARK    6  A    between atoms: C_13  and  C_15
REMARK    7  A    between atoms: C_14  and  C_16
REMARK    8  A    between atoms: C_22  and  C_25
REMARK    9  A    between atoms: C_33  and  C_34
REMARK                            x       y       z     vdW  Elec       q    Type
REMARK                         _______ _______ _______ _____ _____    ______ ____
ROOT
ATOM      2  O   UNL     1     -15.858   2.246  26.389  0.00  0.00    -0.366 OA
ATOM     10  C   UNL     1     -16.505   1.048  26.873  0.00  0.00    +0.159 C 
ATOM     11  C   UNL     1     -17.685   0.791  25.943  0.00  0.00    +0.175 C 
ATOM     12  C   UNL     1     -18.033   2.191  25.481  0.00  0.00    +0.176 C 
ATOM     13  C   UNL     1     -16.656   2.814  25.335  0.00  0.00    +0.167 C 
ENDROOT
BRANCH  11   3
ATOM      3  O   UNL     1     -17.221   0.008  24.843  0.00  0.00    -0.387 OA
ATOM     35  H   UNL     1     -16.445   0.461  24.471  0.00  0.00    +0.210 HD
ENDBRANCH  11   3
BRANCH  12   4
ATOM      4  O   UNL     1     -18.758   2.216  24.270  0.00  0.00    -0.387 OA
ATOM     36  H   UNL     1     -18.717   1.324  23.886  0.00  0.00    +0.210 HD
ENDBRANCH  12   4
BRANCH  10  14
ATOM     14  C   UNL     1     -16.925   1.295  28.315  0.00  0.00    +0.130 C 
BRANCH  14  16
ATOM      5  O   UNL     1     -15.156  -0.074  29.110  0.00  0.00    -0.276 OA
ATOM      7  N   UNL     1     -15.501   1.935  30.225  0.00  0.00    -0.298 N 
ATOM      8  N   UNL     1     -14.700   3.941  32.152  0.00  0.00    -0.327 N 
ATOM     16  C   UNL     1     -15.780   0.981  29.246  0.00  0.00    +0.218 C 
ATOM     17  C   UNL     1     -16.242   3.189  30.383  0.00  0.00    +0.126 C 
ATOM     18  C   UNL     1     -14.402   1.708  31.160  0.00  0.00    +0.126 C 
ATOM     19  C   UNL     1     -16.109   3.782  31.786  0.00  0.00    +0.124 C 
ATOM     20  C   UNL     1     -13.725   3.012  31.574  0.00  0.00    +0.124 C 
BRANCH   8  21
ATOM      1  F   UNL     1     -13.105   7.843  35.719  0.00  0.00    -0.205 F 
ATOM     21  C   UNL     1     -14.297   4.925  33.052  0.00  0.00    +0.030 A 
ATOM     23  C   UNL     1     -13.901   6.178  32.583  0.00  0.00    +0.026 A 
ATOM     24  C   UNL     1     -14.290   4.658  34.421  0.00  0.00    +0.026 A 
ATOM     26  C   UNL     1     -13.499   7.164  33.484  0.00  0.00    +0.040 A 
ATOM     27  C   UNL     1     -13.887   5.645  35.322  0.00  0.00    +0.040 A 
ATOM     28  C   UNL     1     -13.492   6.897  34.853  0.00  0.00    +0.124 A 
ENDBRANCH   8  21
ENDBRANCH  14  16
ENDBRANCH  10  14
BRANCH  13  15
ATOM     15  C   UNL     1     -16.664   4.328  25.460  0.00  0.00    +0.138 C 
BRANCH  15   9
ATOM      6  O   UNL     1     -16.980   5.193  22.740  0.00  0.00    -0.270 OA
ATOM      9  N   UNL     1     -15.660   4.923  24.629  0.00  0.00    -0.309 N 
ATOM     22  C   UNL     1     -15.901   5.314  23.315  0.00  0.00    +0.244 C 
ATOM     37  H   UNL     1     -14.758   5.101  25.060  0.00  0.00    +0.149 HD
BRANCH  22  25
ATOM     25  C   UNL     1     -14.747   5.890  22.578  0.00  0.00    +0.037 A 
ATOM     29  C   UNL     1     -14.781   7.219  22.156  0.00  0.00    +0.013 A 
ATOM     30  C   UNL     1     -13.628   5.101  22.309  0.00  0.00    +0.013 A 
ATOM     31  C   UNL     1     -13.697   7.758  21.464  0.00  0.00    +0.004 A 
ATOM     32  C   UNL     1     -12.544   5.641  21.615  0.00  0.00    +0.004 A 
ATOM     33  C   UNL     1     -12.579   6.970  21.194  0.00  0.00    -0.050 A 
ATOM     34  C   UNL     1     -11.420   7.548  20.453  0.00  0.00    +0.044 C 
ENDBRANCH  22  25
ENDBRANCH  15   9
ENDBRANCH  13  15
TORSDOF 8
ENDMDL
MODEL 2
REMARK VINA RESULT:      -8.1      1.681      2.628
REMARK  Name = 40778188
REMARK  9 active torsions:
REMARK  status: ('A' for Active; 'I' for Inactive)
REMARK    1  A    between atoms: O_3  and  C_11
REMARK    2  A    between atoms: O_4  and  C_12
REMARK    3  A    between atoms: N_8  and  C_21
REMARK    4  A    between atoms: N_9  and  C_15
REMARK    5  A    between atoms: C_10  and  C_14
REMARK    6  A    between atoms: C_13  and  C_15
REMARK    7  A    between atoms: C_14  and  C_16
REMARK    8  A    between atoms: C_22  and  C_25
REMARK    9  A    between atoms: C_33  and  C_34
REMARK                            x       y       z     vdW  Elec       q    Type
REMARK                         _______ _______ _______ _____ _____    ______ ____
ROOT
ATOM      2  O   UNL     1     -15.708   2.834  24.583  0.00  0.00    -0.366 OA
ATOM     10  C   UNL     1     -16.907   2.028  24.603  0.00  0.00    +0.159 C 
ATOM     11  C   UNL     1     -17.649   2.328  23.305  0.00  0.00    +0.175 C 
ATOM     12  C   UNL     1     -17.212   3.748  23.013  0.00  0.00    +0.176 C 
ATOM     13  C   UNL     1     -15.755   3.713  23.444  0.00  0.00    +0.167 C 
ENDROOT
BRANCH  11   3
ATOM      3  O   UNL     1     -17.158   1.442  22.299  0.00  0.00    -0.387 OA
ATOM     35  H   UNL     1     -16.215   1.290  22.481  0.00  0.00    +0.210 HD
ENDBRANCH  11   3
BRANCH  12   4
ATOM      4  O   UNL     1     -17.354   4.110  21.656  0.00  0.00    -0.387 OA
ATOM     36  H   UNL     1     -17.650   3.320  21.173  0.00  0.00    +0.210 HD
ENDBRANCH  12   4
BRANCH  10  14
ATOM     14  C   UNL     1     -17.701   2.406  25.845  0.00  0.00    +0.130 C 
BRANCH  14  16
ATOM      5  O   UNL     1     -17.497   0.241  26.797  0.00  0.00    -0.276 OA
ATOM      7  N   UNL     1     -16.958   2.038  28.168  0.00  0.00    -0.298 N 
ATOM      8  N   UNL     1     -15.871   3.125  30.622  0.00  0.00    -0.327 N 
ATOM     16  C   UNL     1     -17.378   1.456  26.972  0.00  0.00    +0.218 C 
ATOM     17  C   UNL     1     -16.816   3.482  28.373  0.00  0.00    +0.126 C 
ATOM     18  C   UNL     1     -16.620   1.184  29.305  0.00  0.00    +0.126 C 
ATOM     19  C   UNL     1     -16.863   3.877  29.850  0.00  0.00    +0.124 C 
ATOM     20  C   UNL     1     -15.504   1.784  30.157  0.00  0.00    +0.124 C 
BRANCH   8  21
ATOM      1  F   UNL     1     -13.668   5.215  35.233  0.00  0.00    -0.205 F 
ATOM     21  C   UNL     1     -15.315   3.652  31.784  0.00  0.00    +0.030 A 
ATOM     23  C   UNL     1     -14.856   4.969  31.803  0.00  0.00    +0.026 A 
ATOM     24  C   UNL     1     -15.218   2.863  32.931  0.00  0.00    +0.026 A 
ATOM     26  C   UNL     1     -14.300   5.497  32.968  0.00  0.00    +0.040 A 
ATOM     27  C   UNL     1     -14.661   3.392  34.096  0.00  0.00    +0.040 A 
ATOM     28  C   UNL     1     -14.203   4.709  34.114  0.00  0.00    +0.124 A 
ENDBRANCH   8  21
ENDBRANCH  14  16
ENDBRANCH  10  14
BRANCH  13  15
ATOM     15  C   UNL     1     -15.208   5.076  23.828  0.00  0.00    +0.138 C 
BRANCH  15   9
ATOM      6  O   UNL     1     -15.953   6.910  21.747  0.00  0.00    -0.270 OA
ATOM      9  N   UNL     1     -14.355   5.601  22.803  0.00  0.00    -0.309 N 
ATOM     22  C   UNL     1     -14.802   6.489  21.829  0.00  0.00    +0.244 C 
ATOM     37  H   UNL     1     -13.376   5.335  22.844  0.00  0.00    +0.149 HD
BRANCH  22  25
ATOM     25  C   UNL     1     -13.800   6.918  20.820  0.00  0.00    +0.037 A 
ATOM     29  C   UNL     1     -12.442   6.690  21.043  0.00  0.00    +0.013 A 
ATOM     30  C   UNL     1     -14.217   7.548  19.648  0.00  0.00    +0.013 A 
ATOM     31  C   UNL     1     -11.502   7.094  20.096  0.00  0.00    +0.004 A 
ATOM     32  C   UNL     1     -13.277   7.953  18.699  0.00  0.00    +0.004 A 
ATOM     33  C   UNL     1     -11.919   7.724  18.924  0.00  0.00    -0.050 A 
ATOM     34  C   UNL     1     -10.913   8.156  17.911  0.00  0.00    +0.044 C 
ENDBRANCH  22  25
ENDBRANCH  15   9
ENDBRANCH  13  15
TORSDOF 8
ENDMDL
MODEL 3
REMARK VINA RESULT:      -8.0     18.414     21.076
REMARK  Name = 40778188
REMARK  9 active torsions:
REMARK  status: ('A' for Active; 'I' for Inactive)
REMARK    1  A    between atoms: O_3  and  C_11
REMARK    2  A    between atoms: O_4  and  C_12
REMARK    3  A    between atoms: N_8  and  C_21
REMARK    4  A    between atoms: N_9  and  C_15
REMARK    5  A    between atoms: C_10  and  C_14
REMARK    6  A    between atoms: C_13  and  C_15
REMARK    7  A    between atoms: C_14  and  C_16
REMARK    8  A    between atoms: C_22  and  C_25
REMARK    9  A    between atoms: C_33  and  C_34
REMARK                            x       y       z     vdW  Elec       q    Type
REMARK                         _______ _______ _______ _____ _____    ______ ____
ROOT
ATOM      2  O   UNL     1      -4.317 -11.696  18.586  0.00  0.00    -0.366 OA
ATOM     10  C   UNL     1      -5.684 -12.069  18.875  0.00  0.00    +0.159 C 
ATOM     11  C   UNL     1      -6.246 -12.670  17.591  0.00  0.00    +0.175 C 
ATOM     12  C   UNL     1      -5.440 -11.954  16.529  0.00  0.00    +0.176 C 
ATOM     13  C   UNL     1      -4.070 -11.883  17.181  0.00  0.00    +0.167 C 
ENDROOT
BRANCH  11   3
ATOM      3  O   UNL     1      -5.943 -14.066  17.586  0.00  0.00    -0.387 OA
ATOM     35  H   UNL     1      -6.581 -14.504  18.175  0.00  0.00    +0.210 HD
ENDBRANCH  11   3
BRANCH  12   4
ATOM      4  O   UNL     1      -5.405 -12.640  15.295  0.00  0.00    -0.387 OA
ATOM     36  H   UNL     1      -4.473 -12.714  15.029  0.00  0.00    +0.210 HD
ENDBRANCH  12   4
BRANCH  10  14
ATOM     14  C   UNL     1      -6.424 -10.816  19.321  0.00  0.00    +0.130 C 
BRANCH  14  16
ATOM      5  O   UNL     1      -8.353 -11.960  20.100  0.00  0.00    -0.276 OA
ATOM      7  N   UNL     1      -8.697 -10.292  18.519  0.00  0.00    -0.298 N 
ATOM      8  N   UNL     1     -10.444  -8.567  16.984  0.00  0.00    -0.327 N 
ATOM     16  C   UNL     1      -7.909 -11.082  19.357  0.00  0.00    +0.218 C 
ATOM     17  C   UNL     1      -8.167  -9.248  17.638  0.00  0.00    +0.126 C 
ATOM     18  C   UNL     1     -10.146 -10.483  18.501  0.00  0.00    +0.126 C 
ATOM     19  C   UNL     1      -9.112  -8.913  16.483  0.00  0.00    +0.124 C 
ATOM     20  C   UNL     1     -10.891  -9.177  18.240  0.00  0.00    +0.124 C 
BRANCH   8  21
ATOM      1  F   UNL     1     -13.761  -5.173  14.162  0.00  0.00    -0.205 F 
ATOM     21  C   UNL     1     -11.280  -7.712  16.272  0.00  0.00    +0.030 A 
ATOM     23  C   UNL     1     -12.657  -7.937  16.254  0.00  0.00    +0.026 A 
ATOM     24  C   UNL     1     -10.742  -6.628  15.577  0.00  0.00    +0.026 A 
ATOM     26  C   UNL     1     -13.495  -7.080  15.541  0.00  0.00    +0.040 A 
ATOM     27  C   UNL     1     -11.581  -5.771  14.864  0.00  0.00    +0.040 A 
ATOM     28  C   UNL     1     -12.957  -5.997  14.847  0.00  0.00    +0.124 A 
ENDBRANCH   8  21
ENDBRANCH  14  16
ENDBRANCH  10  14
BRANCH  13  15
ATOM     15  C   UNL     1      -3.212 -10.745  16.658  0.00  0.00    +0.138 C 
BRANCH  15   9
ATOM      6  O   UNL     1      -1.595 -11.362  14.367  0.00  0.00    -0.270 OA
ATOM      9  N   UNL     1      -3.519 -10.451  15.289  0.00  0.00    -0.309 N 
ATOM     22  C   UNL     1      -2.673 -10.787  14.237  0.00  0.00    +0.244 C 
ATOM     37  H   UNL     1      -4.422 -10.025  15.105  0.00  0.00    +0.149 HD
BRANCH  22  25
ATOM     25  C   UNL     1      -3.122 -10.389  12.878  0.00  0.00    +0.037 A 
ATOM     29  C   UNL     1      -2.184 -10.061  11.900  0.00  0.00    +0.013 A 
ATOM     30  C   UNL     1      -4.484 -10.344  12.580  0.00  0.00    +0.013 A 
ATOM     31  C   UNL     1      -2.607  -9.687  10.625  0.00  0.00    +0.004 A 
ATOM     32  C   UNL     1      -4.908  -9.969  11.305  0.00  0.00    +0.004 A 
ATOM     33  C   UNL     1      -3.968  -9.641  10.327  0.00  0.00    -0.050 A 
ATOM     34  C   UNL     1      -4.421  -9.240   8.963  0.00  0.00    +0.044 C 
ENDBRANCH  22  25
ENDBRANCH  15   9
ENDBRANCH  13  15
TORSDOF 8
ENDMDL
MODEL 4
REMARK VINA RESULT:      -7.9     27.899     31.662
REMARK  Name = 40778188
REMARK  9 active torsions:
REMARK  status: ('A' for Active; 'I' for Inactive)
REMARK    1  A    between atoms: O_3  and  C_11
REMARK    2  A    between atoms: O_4  and  C_12
REMARK    3  A    between atoms: N_8  and  C_21
REMARK    4  A    between atoms: N_9  and  C_15
REMARK    5  A    between atoms: C_10  and  C_14
REMARK    6  A    between atoms: C_13  and  C_15
REMARK    7  A    between atoms: C_14  and  C_16
REMARK    8  A    between atoms: C_22  and  C_25
REMARK    9  A    between atoms: C_33  and  C_34
REMARK                            x       y       z     vdW  Elec       q    Type
REMARK                         _______ _______ _______ _____ _____    ______ ____
ROOT
ATOM      2  O   UNL     1      13.086  11.347  24.291  0.00  0.00    -0.366 OA
ATOM     10  C   UNL     1      13.833  12.550  24.578  0.00  0.00    +0.159 C 
ATOM     11  C   UNL     1      12.955  13.393  25.497  0.00  0.00    +0.175 C 
ATOM     12  C   UNL     1      11.563  12.965  25.083  0.00  0.00    +0.176 C 
ATOM     13  C   UNL     1      11.762  11.478  24.840  0.00  0.00    +0.167 C 
ENDROOT
BRANCH  11   3
ATOM      3  O   UNL     1      13.215  12.997  26.844  0.00  0.00    -0.387 OA
ATOM     35  H   UNL     1      13.039  13.767  27.412  0.00  0.00    +0.210 HD
ENDBRANCH  11   3
BRANCH  12   4
ATOM      4  O   UNL     1      10.585  13.214  26.069  0.00  0.00    -0.387 OA
ATOM     36  H   UNL     1      10.995  13.053  26.935  0.00  0.00    +0.210 HD
ENDBRANCH  12   4
BRANCH  10  14
ATOM     14  C   UNL     1      14.141  13.236  23.254  0.00  0.00    +0.130 C 
BRANCH  14  16
ATOM      5  O   UNL     1      16.355  14.092  23.227  0.00  0.00    -0.276 OA
ATOM      7  N   UNL     1      16.055  11.951  22.376  0.00  0.00    -0.298 N 
ATOM      8  N   UNL     1      17.103   9.445  21.373  0.00  0.00    -0.327 N 
ATOM     16  C   UNL     1      15.617  13.142  22.956  0.00  0.00    +0.218 C 
ATOM     17  C   UNL     1      15.176  10.822  22.057  0.00  0.00    +0.126 C 
ATOM     18  C   UNL     1      17.471  11.780  22.064  0.00  0.00    +0.126 C 
ATOM     19  C   UNL     1      15.764   9.898  20.990  0.00  0.00    +0.124 C 
ATOM     20  C   UNL     1      17.918  10.328  22.214  0.00  0.00    +0.124 C 
BRANCH   8  21
ATOM      1  F   UNL     1      19.095   4.612  19.597  0.00  0.00    -0.205 F 
ATOM     21  C   UNL     1      17.605   8.226  20.926  0.00  0.00    +0.030 A 
ATOM     23  C   UNL     1      16.831   7.416  20.095  0.00  0.00    +0.026 A 
ATOM     24  C   UNL     1      18.883   7.815  21.307  0.00  0.00    +0.026 A 
ATOM     26  C   UNL     1      17.334   6.195  19.646  0.00  0.00    +0.040 A 
ATOM     27  C   UNL     1      19.386   6.594  20.858  0.00  0.00    +0.040 A 
ATOM     28  C   UNL     1      18.611   5.784  20.027  0.00  0.00    +0.124 A 
ENDBRANCH   8  21
ENDBRANCH  14  16
ENDBRANCH  10  14
BRANCH  13  15
ATOM     15  C   UNL     1      10.749  10.885  23.877  0.00  0.00    +0.138 C 
BRANCH  15   9
ATOM      6  O   UNL     1      10.576   8.225  22.810  0.00  0.00    -0.270 OA
ATOM      9  N   UNL     1      11.385  10.396  22.690  0.00  0.00    -0.309 N 
ATOM     22  C   UNL     1      11.246   9.085  22.244  0.00  0.00    +0.244 C 
ATOM     37  H   UNL     1      11.911  11.070  22.143  0.00  0.00    +0.149 HD
BRANCH  22  25
ATOM     25  C   UNL     1      11.993   8.727  21.010  0.00  0.00    +0.037 A 
ATOM     29  C   UNL     1      12.546   7.454  20.874  0.00  0.00    +0.013 A 
ATOM     30  C   UNL     1      12.138   9.664  19.988  0.00  0.00    +0.013 A 
ATOM     31  C   UNL     1      13.247   7.120  19.716  0.00  0.00    +0.004 A 
ATOM     32  C   UNL     1      12.840   9.330  18.829  0.00  0.00    +0.004 A 
ATOM     33  C   UNL     1      13.393   8.057  18.693  0.00  0.00    -0.050 A 
ATOM     34  C   UNL     1      14.144   7.698  17.455  0.00  0.00    +0.044 C 
ENDBRANCH  22  25
ENDBRANCH  15   9
ENDBRANCH  13  15
TORSDOF 8
ENDMDL
MODEL 5
REMARK VINA RESULT:      -7.8     29.045     32.641
REMARK  Name = 40778188
REMARK  9 active torsions:
REMARK  status: ('A' for Active; 'I' for Inactive)
REMARK    1  A    between atoms: O_3  and  C_11
REMARK    2  A    between atoms: O_4  and  C_12
REMARK    3  A    between atoms: N_8  and  C_21
REMARK    4  A    between atoms: N_9  and  C_15
REMARK    5  A    between atoms: C_10  and  C_14
REMARK    6  A    between atoms: C_13  and  C_15
REMARK    7  A    between atoms: C_14  and  C_16
REMARK    8  A    between atoms: C_22  and  C_25
REMARK    9  A    between atoms: C_33  and  C_34
REMARK                            x       y       z     vdW  Elec       q    Type
REMARK                         _______ _______ _______ _____ _____    ______ ____
ROOT
ATOM      2  O   UNL     1      14.199   8.291  19.512  0.00  0.00    -0.366 OA
ATOM     10  C   UNL     1      13.903   7.143  20.338  0.00  0.00    +0.159 C 
ATOM     11  C   UNL     1      12.387   6.975  20.314  0.00  0.00    +0.175 C 
ATOM     12  C   UNL     1      11.917   8.398  20.094  0.00  0.00    +0.176 C 
ATOM     13  C   UNL     1      12.964   8.918  19.124  0.00  0.00    +0.167 C 
ENDROOT
BRANCH  11   3
ATOM      3  O   UNL     1      12.049   6.162  19.190  0.00  0.00    -0.387 OA
ATOM     35  H   UNL     1      12.795   6.203  18.567  0.00  0.00    +0.210 HD
ENDBRANCH  11   3
BRANCH  12   4
ATOM      4  O   UNL     1      10.613   8.479  19.560  0.00  0.00    -0.387 OA
ATOM     36  H   UNL     1       9.989   8.308  20.286  0.00  0.00    +0.210 HD
ENDBRANCH  12   4
BRANCH  10  14
ATOM     14  C   UNL     1      14.450   7.417  21.732  0.00  0.00    +0.130 C 
BRANCH  14  16
ATOM      5  O   UNL     1      15.326   9.621  21.840  0.00  0.00    -0.276 OA
ATOM      7  N   UNL     1      16.838   7.921  21.371  0.00  0.00    -0.298 N 
ATOM      8  N   UNL     1      19.543   6.956  21.001  0.00  0.00    -0.327 N 
ATOM     16  C   UNL     1      15.570   8.427  21.656  0.00  0.00    +0.218 C 
ATOM     17  C   UNL     1      17.125   6.500  21.154  0.00  0.00    +0.126 C 
ATOM     18  C   UNL     1      17.975   8.834  21.287  0.00  0.00    +0.126 C 
ATOM     19  C   UNL     1      18.415   6.272  20.365  0.00  0.00    +0.124 C 
ATOM     20  C   UNL     1      19.270   8.178  21.763  0.00  0.00    +0.124 C 
BRANCH   8  21
ATOM      1  F   UNL     1      24.703   5.076  20.436  0.00  0.00    -0.205 F 
ATOM     21  C   UNL     1      20.844   6.482  20.859  0.00  0.00    +0.030 A 
ATOM     23  C   UNL     1      21.099   5.113  20.930  0.00  0.00    +0.026 A 
ATOM     24  C   UNL     1      21.893   7.377  20.644  0.00  0.00    +0.026 A 
ATOM     26  C   UNL     1      22.403   4.638  20.787  0.00  0.00    +0.040 A 
ATOM     27  C   UNL     1      23.197   6.901  20.501  0.00  0.00    +0.040 A 
ATOM     28  C   UNL     1      23.451   5.531  20.573  0.00  0.00    +0.124 A 
ENDBRANCH   8  21
ENDBRANCH  14  16
ENDBRANCH  10  14
BRANCH  13  15
ATOM     15  C   UNL     1      13.123  10.428  19.164  0.00  0.00    +0.138 C 
BRANCH  15   9
ATOM      6  O   UNL     1      12.482  13.171  19.717  0.00  0.00    -0.270 OA
ATOM      9  N   UNL     1      12.663  10.965  20.411  0.00  0.00    -0.309 N 
ATOM     22  C   UNL     1      12.375  12.315  20.591  0.00  0.00    +0.244 C 
ATOM     37  H   UNL     1      12.501  10.302  21.162  0.00  0.00    +0.149 HD
BRANCH  22  25
ATOM     25  C   UNL     1      11.935  12.718  21.951  0.00  0.00    +0.037 A 
ATOM     29  C   UNL     1      11.057  11.907  22.670  0.00  0.00    +0.013 A 
ATOM     30  C   UNL     1      12.402  13.907  22.510  0.00  0.00    +0.013 A 
ATOM     31  C   UNL     1      10.644  12.287  23.946  0.00  0.00    +0.004 A 
ATOM     32  C   UNL     1      11.988  14.288  23.788  0.00  0.00    +0.004 A 
ATOM     33  C   UNL     1      11.110  13.476  24.506  0.00  0.00    -0.050 A 
ATOM     34  C   UNL     1      10.668  13.882  25.872  0.00  0.00    +0.044 C 
ENDBRANCH  22  25
ENDBRANCH  15   9
ENDBRANCH  13  15
TORSDOF 8
ENDMDL
MODEL 6
REMARK VINA RESULT:      -7.7     20.148     23.638
REMARK  Name = 40778188
REMARK  9 active torsions:
REMARK  status: ('A' for Active; 'I' for Inactive)
REMARK    1  A    between atoms: O_3  and  C_11
REMARK    2  A    between atoms: O_4  and  C_12
REMARK    3  A    between atoms: N_8  and  C_21
REMARK    4  A    between atoms: N_9  and  C_15
REMARK    5  A    between atoms: C_10  and  C_14
REMARK    6  A    between atoms: C_13  and  C_15
REMARK    7  A    between atoms: C_14  and  C_16
REMARK    8  A    between atoms: C_22  and  C_25
REMARK    9  A    between atoms: C_33  and  C_34
REMARK                            x       y       z     vdW  Elec       q    Type
REMARK                         _______ _______ _______ _____ _____    ______ ____
ROOT
ATOM      2  O   UNL     1      -5.007 -12.725  17.227  0.00  0.00    -0.366 OA
ATOM     10  C   UNL     1      -4.067 -11.690  17.595  0.00  0.00    +0.159 C 
ATOM     11  C   UNL     1      -4.456 -11.234  18.997  0.00  0.00    +0.175 C 
ATOM     12  C   UNL     1      -5.946 -11.506  19.014  0.00  0.00    +0.176 C 
ATOM     13  C   UNL     1      -6.026 -12.810  18.239  0.00  0.00    +0.167 C 
ENDROOT
BRANCH  11   3
ATOM      3  O   UNL     1      -3.788 -12.074  19.938  0.00  0.00    -0.387 OA
ATOM     35  H   UNL     1      -3.032 -12.479  19.480  0.00  0.00    +0.210 HD
ENDBRANCH  11   3
BRANCH  12   4
ATOM      4  O   UNL     1      -6.476 -11.630  20.317  0.00  0.00    -0.387 OA
ATOM     36  H   UNL     1      -6.203 -12.496  20.662  0.00  0.00    +0.210 HD
ENDBRANCH  12   4
BRANCH  10  14
ATOM     14  C   UNL     1      -4.166 -10.581  16.557  0.00  0.00    +0.130 C 
BRANCH  14  16
ATOM      5  O   UNL     1      -1.862 -10.778  16.022  0.00  0.00    -0.276 OA
ATOM      7  N   UNL     1      -3.339 -10.639  14.234  0.00  0.00    -0.298 N 
ATOM      8  N   UNL     1      -3.923 -10.791  11.402  0.00  0.00    -0.327 N 
ATOM     16  C   UNL     1      -3.012 -10.676  15.590  0.00  0.00    +0.218 C 
ATOM     17  C   UNL     1      -4.708 -10.521  13.723  0.00  0.00    +0.126 C 
ATOM     18  C   UNL     1      -2.279 -10.734  13.234  0.00  0.00    +0.126 C 
ATOM     19  C   UNL     1      -4.760  -9.984  12.292  0.00  0.00    +0.124 C 
ATOM     20  C   UNL     1      -2.746 -11.454  11.972  0.00  0.00    +0.124 C 
BRANCH   8  21
ATOM      1  F   UNL     1      -5.075 -11.223   6.019  0.00  0.00    -0.205 F 
ATOM     21  C   UNL     1      -4.213 -10.899  10.045  0.00  0.00    +0.030 A 
ATOM     23  C   UNL     1      -4.121 -12.138   9.409  0.00  0.00    +0.026 A 
ATOM     24  C   UNL     1      -4.596  -9.770   9.320  0.00  0.00    +0.026 A 
ATOM     26  C   UNL     1      -4.412 -12.247   8.049  0.00  0.00    +0.040 A 
ATOM     27  C   UNL     1      -4.887  -9.880   7.960  0.00  0.00    +0.040 A 
ATOM     28  C   UNL     1      -4.795 -11.119   7.326  0.00  0.00    +0.124 A 
ENDBRANCH   8  21
ENDBRANCH  14  16
ENDBRANCH  10  14
BRANCH  13  15
ATOM     15  C   UNL     1      -7.378 -13.039  17.586  0.00  0.00    +0.138 C 
BRANCH  15   9
ATOM      6  O   UNL     1      -7.779 -11.596  15.136  0.00  0.00    -0.270 OA
ATOM      9  N   UNL     1      -8.092 -11.807  17.426  0.00  0.00    -0.309 N 
ATOM     22  C   UNL     1      -8.237 -11.174  16.195  0.00  0.00    +0.244 C 
ATOM     37  H   UNL     1      -8.543 -11.430  18.253  0.00  0.00    +0.149 HD
BRANCH  22  25
ATOM     25  C   UNL     1      -8.983  -9.888  16.201  0.00  0.00    +0.037 A 
ATOM     29  C   UNL     1      -9.594  -9.430  15.034  0.00  0.00    +0.013 A 
ATOM     30  C   UNL     1      -9.072  -9.141  17.374  0.00  0.00    +0.013 A 
ATOM     31  C   UNL     1     -10.292  -8.223  15.040  0.00  0.00    +0.004 A 
ATOM     32  C   UNL     1      -9.771  -7.932  17.381  0.00  0.00    +0.004 A 
ATOM     33  C   UNL     1     -10.381  -7.475  16.213  0.00  0.00    -0.050 A 
ATOM     34  C   UNL     1     -11.129  -6.184  16.220  0.00  0.00    +0.044 C 
ENDBRANCH  22  25
ENDBRANCH  15   9
ENDBRANCH  13  15
TORSDOF 8
ENDMDL
MODEL 7
REMARK VINA RESULT:      -7.5     21.215     23.732
REMARK  Name = 40778188
REMARK  9 active torsions:
REMARK  status: ('A' for Active; 'I' for Inactive)
REMARK    1  A    between atoms: O_3  and  C_11
REMARK    2  A    between atoms: O_4  and  C_12
REMARK    3  A    between atoms: N_8  and  C_21
REMARK    4  A    between atoms: N_9  and  C_15
REMARK    5  A    between atoms: C_10  and  C_14
REMARK    6  A    between atoms: C_13  and  C_15
REMARK    7  A    between atoms: C_14  and  C_16
REMARK    8  A    between atoms: C_22  and  C_25
REMARK    9  A    between atoms: C_33  and  C_34
REMARK                            x       y       z     vdW  Elec       q    Type
REMARK                         _______ _______ _______ _____ _____    ______ ____
ROOT
ATOM      2  O   UNL     1      -9.163  -9.251   7.156  0.00  0.00    -0.366 OA
ATOM     10  C   UNL     1      -9.835  -8.947   8.399  0.00  0.00    +0.159 C 
ATOM     11  C   UNL     1      -9.276  -7.610   8.873  0.00  0.00    +0.175 C 
ATOM     12  C   UNL     1      -7.882  -7.624   8.283  0.00  0.00    +0.176 C 
ATOM     13  C   UNL     1      -8.130  -8.276   6.933  0.00  0.00    +0.167 C 
ENDROOT
BRANCH  11   3
ATOM      3  O   UNL     1     -10.054  -6.569   8.282  0.00  0.00    -0.387 OA
ATOM     35  H   UNL     1      -9.709  -5.723   8.615  0.00  0.00    +0.210 HD
ENDBRANCH  11   3
BRANCH  12   4
ATOM      4  O   UNL     1      -7.316  -6.337   8.154  0.00  0.00    -0.387 OA
ATOM     36  H   UNL     1      -6.988  -6.252   7.243  0.00  0.00    +0.210 HD
ENDBRANCH  12   4
BRANCH  10  14
ATOM     14  C   UNL     1      -9.560 -10.087   9.369  0.00  0.00    +0.130 C 
BRANCH  14  16
ATOM      5  O   UNL     1     -10.983  -9.229  11.064  0.00  0.00    -0.276 OA
ATOM      7  N   UNL     1      -8.804  -9.737  11.691  0.00  0.00    -0.298 N 
ATOM      8  N   UNL     1      -6.757 -10.091  13.707  0.00  0.00    -0.327 N 
ATOM     16  C   UNL     1      -9.857  -9.644  10.781  0.00  0.00    +0.218 C 
ATOM     17  C   UNL     1      -7.467 -10.232  11.351  0.00  0.00    +0.126 C 
ATOM     18  C   UNL     1      -9.014  -9.335  13.079  0.00  0.00    +0.126 C 
ATOM     19  C   UNL     1      -6.393  -9.754  12.329  0.00  0.00    +0.124 C 
ATOM     20  C   UNL     1      -8.180 -10.169  14.048  0.00  0.00    +0.124 C 
BRANCH   8  21
ATOM      1  F   UNL     1      -2.885 -10.908  17.558  0.00  0.00    -0.205 F 
ATOM     21  C   UNL     1      -5.781 -10.297  14.678  0.00  0.00    +0.030 A 
ATOM     23  C   UNL     1      -4.490 -10.669  14.301  0.00  0.00    +0.026 A 
ATOM     24  C   UNL     1      -6.092 -10.131  16.028  0.00  0.00    +0.026 A 
ATOM     26  C   UNL     1      -3.512 -10.875  15.274  0.00  0.00    +0.040 A 
ATOM     27  C   UNL     1      -5.113 -10.338  17.001  0.00  0.00    +0.040 A 
ATOM     28  C   UNL     1      -3.823 -10.709  16.623  0.00  0.00    +0.124 A 
ENDBRANCH   8  21
ENDBRANCH  14  16
ENDBRANCH  10  14
BRANCH  13  15
ATOM     15  C   UNL     1      -6.900  -8.956   6.359  0.00  0.00    +0.138 C 
BRANCH  15   9
ATOM      6  O   UNL     1      -6.439 -11.338   7.894  0.00  0.00    -0.270 OA
ATOM      9  N   UNL     1      -5.896  -9.146   7.363  0.00  0.00    -0.309 N 
ATOM     22  C   UNL     1      -5.743 -10.339   8.062  0.00  0.00    +0.244 C 
ATOM     37  H   UNL     1      -5.250  -8.377   7.513  0.00  0.00    +0.149 HD
BRANCH  22  25
ATOM     25  C   UNL     1      -4.671 -10.367   9.091  0.00  0.00    +0.037 A 
ATOM     29  C   UNL     1      -3.999  -9.193   9.430  0.00  0.00    +0.013 A 
ATOM     30  C   UNL     1      -4.340 -11.567   9.719  0.00  0.00    +0.013 A 
ATOM     31  C   UNL     1      -2.993  -9.220  10.396  0.00  0.00    +0.004 A 
ATOM     32  C   UNL     1      -3.333 -11.595  10.685  0.00  0.00    +0.004 A 
ATOM     33  C   UNL     1      -2.660 -10.420  11.023  0.00  0.00    -0.050 A 
ATOM     34  C   UNL     1      -1.584 -10.449  12.056  0.00  0.00    +0.044 C 
ENDBRANCH  22  25
ENDBRANCH  15   9
ENDBRANCH  13  15
TORSDOF 8
ENDMDL
MODEL 8
REMARK VINA RESULT:      -7.5     29.043     33.156
REMARK  Name = 40778188
REMARK  9 active torsions:
REMARK  status: ('A' for Active; 'I' for Inactive)
REMARK    1  A    between atoms: O_3  and  C_11
REMARK    2  A    between atoms: O_4  and  C_12
REMARK    3  A    between atoms: N_8  and  C_21
REMARK    4  A    between atoms: N_9  and  C_15
REMARK    5  A    between atoms: C_10  and  C_14
REMARK    6  A    between atoms: C_13  and  C_15
REMARK    7  A    between atoms: C_14  and  C_16
REMARK    8  A    between atoms: C_22  and  C_25
REMARK    9  A    between atoms: C_33  and  C_34
REMARK                            x       y       z     vdW  Elec       q    Type
REMARK                         _______ _______ _______ _____ _____    ______ ____
ROOT
ATOM      2  O   UNL     1      13.833   7.742  21.579  0.00  0.00    -0.366 OA
ATOM     10  C   UNL     1      12.461   7.964  21.977  0.00  0.00    +0.159 C 
ATOM     11  C   UNL     1      11.605   7.065  21.091  0.00  0.00    +0.175 C 
ATOM     12  C   UNL     1      12.447   6.967  19.836  0.00  0.00    +0.176 C 
ATOM     13  C   UNL     1      13.850   6.897  20.415  0.00  0.00    +0.167 C 
ENDROOT
BRANCH  11   3
ATOM      3  O   UNL     1      11.505   5.788  21.721  0.00  0.00    -0.387 OA
ATOM     35  H   UNL     1      11.753   5.118  21.062  0.00  0.00    +0.210 HD
ENDBRANCH  11   3
BRANCH  12   4
ATOM      4  O   UNL     1      12.143   5.837  19.046  0.00  0.00    -0.387 OA
ATOM     36  H   UNL     1      12.137   6.123  18.117  0.00  0.00    +0.210 HD
ENDBRANCH  12   4
BRANCH  10  14
ATOM     14  C   UNL     1      12.156   9.444  21.795  0.00  0.00    +0.130 C 
BRANCH  14  16
ATOM      5  O   UNL     1      14.018  10.434  22.886  0.00  0.00    -0.276 OA
ATOM      7  N   UNL     1      13.888  10.717  20.583  0.00  0.00    -0.298 N 
ATOM      8  N   UNL     1      15.023  11.567  18.059  0.00  0.00    -0.327 N 
ATOM     16  C   UNL     1      13.438  10.240  21.815  0.00  0.00    +0.218 C 
ATOM     17  C   UNL     1      13.197  10.484  19.312  0.00  0.00    +0.126 C 
ATOM     18  C   UNL     1      15.125  11.490  20.518  0.00  0.00    +0.126 C 
ATOM     19  C   UNL     1      13.571  11.509  18.240  0.00  0.00    +0.124 C 
ATOM     20  C   UNL     1      15.877  11.256  19.210  0.00  0.00    +0.124 C 
BRANCH   8  21
ATOM      1  F   UNL     1      17.240  13.050  13.225  0.00  0.00    -0.205 F 
ATOM     21  C   UNL     1      15.582  11.941  16.840  0.00  0.00    +0.030 A 
ATOM     23  C   UNL     1      16.556  12.939  16.796  0.00  0.00    +0.026 A 
ATOM     24  C   UNL     1      15.169  11.318  15.662  0.00  0.00    +0.026 A 
ATOM     26  C   UNL     1      17.116  13.313  15.575  0.00  0.00    +0.040 A 
ATOM     27  C   UNL     1      15.729  11.694  14.441  0.00  0.00    +0.040 A 
ATOM     28  C   UNL     1      16.703  12.691  14.398  0.00  0.00    +0.124 A 
ENDBRANCH   8  21
ENDBRANCH  14  16
ENDBRANCH  10  14
BRANCH  13  15
ATOM     15  C   UNL     1      14.922   7.376  19.452  0.00  0.00    +0.138 C 
BRANCH  15   9
ATOM      6  O   UNL     1      16.980   8.538  21.082  0.00  0.00    -0.270 OA
ATOM      9  N   UNL     1      16.196   6.798  19.764  0.00  0.00    -0.309 N 
ATOM     22  C   UNL     1      17.138   7.435  20.566  0.00  0.00    +0.244 C 
ATOM     37  H   UNL     1      16.370   5.861  19.414  0.00  0.00    +0.149 HD
BRANCH  22  25
ATOM     25  C   UNL     1      18.421   6.715  20.772  0.00  0.00    +0.037 A 
ATOM     29  C   UNL     1      18.747   5.624  19.966  0.00  0.00    +0.013 A 
ATOM     30  C   UNL     1      19.301   7.131  21.770  0.00  0.00    +0.013 A 
ATOM     31  C   UNL     1      19.951   4.948  20.161  0.00  0.00    +0.004 A 
ATOM     32  C   UNL     1      20.506   6.455  21.966  0.00  0.00    +0.004 A 
ATOM     33  C   UNL     1      20.831   5.364  21.160  0.00  0.00    -0.050 A 
ATOM     34  C   UNL     1      22.119   4.641  21.368  0.00  0.00    +0.044 C 
ENDBRANCH  22  25
ENDBRANCH  15   9
ENDBRANCH  13  15
TORSDOF 8
ENDMDL
MODEL 9
REMARK VINA RESULT:      -7.4     32.158     35.588
REMARK  Name = 40778188
REMARK  9 active torsions:
REMARK  status: ('A' for Active; 'I' for Inactive)
REMARK    1  A    between atoms: O_3  and  C_11
REMARK    2  A    between atoms: O_4  and  C_12
REMARK    3  A    between atoms: N_8  and  C_21
REMARK    4  A    between atoms: N_9  and  C_15
REMARK    5  A    between atoms: C_10  and  C_14
REMARK    6  A    between atoms: C_13  and  C_15
REMARK    7  A    between atoms: C_14  and  C_16
REMARK    8  A    between atoms: C_22  and  C_25
REMARK    9  A    between atoms: C_33  and  C_34
REMARK                            x       y       z     vdW  Elec       q    Type
REMARK                         _______ _______ _______ _____ _____    ______ ____
ROOT
ATOM      2  O   UNL     1      11.111   6.894   7.359  0.00  0.00    -0.366 OA
ATOM     10  C   UNL     1      10.025   6.351   8.142  0.00  0.00    +0.159 C 
ATOM     11  C   UNL     1       9.673   5.007   7.514  0.00  0.00    +0.175 C 
ATOM     12  C   UNL     1      10.063   5.224   6.067  0.00  0.00    +0.176 C 
ATOM     13  C   UNL     1      11.329   6.051   6.214  0.00  0.00    +0.167 C 
ENDROOT
BRANCH  11   3
ATOM      3  O   UNL     1      10.503   4.009   8.107  0.00  0.00    -0.387 OA
ATOM     35  H   UNL     1      10.008   3.172   8.091  0.00  0.00    +0.210 HD
ENDBRANCH  11   3
BRANCH  12   4
ATOM      4  O   UNL     1      10.295   4.021   5.364  0.00  0.00    -0.387 OA
ATOM     36  H   UNL     1      11.177   3.701   5.615  0.00  0.00    +0.210 HD
ENDBRANCH  12   4
BRANCH  10  14
ATOM     14  C   UNL     1       8.876   7.348   8.100  0.00  0.00    +0.130 C 
BRANCH  14  16
ATOM      5  O   UNL     1      10.056   9.395   8.330  0.00  0.00    -0.276 OA
ATOM      7  N   UNL     1       9.000   9.023   6.294  0.00  0.00    -0.298 N 
ATOM      8  N   UNL     1       8.475   9.733   3.536  0.00  0.00    -0.327 N 
ATOM     16  C   UNL     1       9.369   8.682   7.595  0.00  0.00    +0.218 C 
ATOM     17  C   UNL     1       8.185   8.172   5.422  0.00  0.00    +0.126 C 
ATOM     18  C   UNL     1       9.444  10.295   5.729  0.00  0.00    +0.126 C 
ATOM     19  C   UNL     1       7.498   8.957   4.304  0.00  0.00    +0.124 C 
ATOM     20  C   UNL     1       9.683  10.199   4.224  0.00  0.00    +0.124 C 
BRANCH   8  21
ATOM      1  F   UNL     1       7.580  10.996  -1.764  0.00  0.00    -0.205 F 
ATOM     21  C   UNL     1       8.249  10.051   2.200  0.00  0.00    +0.030 A 
ATOM     23  C   UNL     1       7.118   9.561   1.547  0.00  0.00    +0.026 A 
ATOM     24  C   UNL     1       9.154  10.861   1.513  0.00  0.00    +0.026 A 
ATOM     26  C   UNL     1       6.892   9.880   0.208  0.00  0.00    +0.040 A 
ATOM     27  C   UNL     1       8.928  11.180   0.173  0.00  0.00    +0.040 A 
ATOM     28  C   UNL     1       7.796  10.690  -0.478  0.00  0.00    +0.124 A 
ENDBRANCH   8  21
ENDBRANCH  14  16
ENDBRANCH  10  14
BRANCH  13  15
ATOM     15  C   UNL     1      11.632   6.908   4.998  0.00  0.00    +0.138 C 
BRANCH  15   9
ATOM      6  O   UNL     1      10.074   6.887   2.586  0.00  0.00    -0.270 OA
ATOM      9  N   UNL     1      11.862   6.100   3.837  0.00  0.00    -0.309 N 
ATOM     22  C   UNL     1      11.052   6.154   2.706  0.00  0.00    +0.244 C 
ATOM     37  H   UNL     1      12.687   5.509   3.848  0.00  0.00    +0.149 HD
BRANCH  22  25
ATOM     25  C   UNL     1      11.408   5.231   1.597  0.00  0.00    +0.037 A 
ATOM     29  C   UNL     1      12.482   4.353   1.738  0.00  0.00    +0.013 A 
ATOM     30  C   UNL     1      10.667   5.243   0.416  0.00  0.00    +0.013 A 
ATOM     31  C   UNL     1      12.816   3.488   0.696  0.00  0.00    +0.004 A 
ATOM     32  C   UNL     1      11.001   4.378  -0.627  0.00  0.00    +0.004 A 
ATOM     33  C   UNL     1      12.075   3.500  -0.486  0.00  0.00    -0.050 A 
ATOM     34  C   UNL     1      12.433   2.575  -1.600  0.00  0.00    +0.044 C 
ENDBRANCH  22  25
ENDBRANCH  15   9
ENDBRANCH  13  15
TORSDOF 8
ENDMDL
MODEL 10
REMARK VINA RESULT:      -7.4     34.271     37.687
REMARK  Name = 40778188
REMARK  9 active torsions:
REMARK  status: ('A' for Active; 'I' for Inactive)
REMARK    1  A    between atoms: O_3  and  C_11
REMARK    2  A    between atoms: O_4  and  C_12
REMARK    3  A    between atoms: N_8  and  C_21
REMARK    4  A    between atoms: N_9  and  C_15
REMARK    5  A    between atoms: C_10  and  C_14
REMARK    6  A    between atoms: C_13  and  C_15
REMARK    7  A    between atoms: C_14  and  C_16
REMARK    8  A    between atoms: C_22  and  C_25
REMARK    9  A    between atoms: C_33  and  C_34
REMARK                            x       y       z     vdW  Elec       q    Type
REMARK                         _______ _______ _______ _____ _____    ______ ____
ROOT
ATOM      2  O   UNL     1      13.564   3.511  -0.212  0.00  0.00    -0.366 OA
ATOM     10  C   UNL     1      14.639   4.277  -0.799  0.00  0.00    +0.159 C 
ATOM     11  C   UNL     1      15.604   4.603   0.337  0.00  0.00    +0.175 C 
ATOM     12  C   UNL     1      14.680   4.632   1.536  0.00  0.00    +0.176 C 
ATOM     13  C   UNL     1      13.730   3.489   1.216  0.00  0.00    +0.167 C 
ENDROOT
BRANCH  11   3
ATOM      3  O   UNL     1      16.533   3.526   0.453  0.00  0.00    -0.387 OA
ATOM     35  H   UNL     1      16.571   3.081  -0.411  0.00  0.00    +0.210 HD
ENDBRANCH  11   3
BRANCH  12   4
ATOM      4  O   UNL     1      15.350   4.437   2.763  0.00  0.00    -0.387 OA
ATOM     36  H   UNL     1      15.966   5.180   2.880  0.00  0.00    +0.210 HD
ENDBRANCH  12   4
BRANCH  10  14
ATOM     14  C   UNL     1      14.032   5.517  -1.440  0.00  0.00    +0.130 C 
BRANCH  14  16
ATOM      5  O   UNL     1      11.967   4.608  -2.179  0.00  0.00    -0.276 OA
ATOM      7  N   UNL     1      11.855   6.270  -0.559  0.00  0.00    -0.298 N 
ATOM      8  N   UNL     1      10.375   7.842   1.370  0.00  0.00    -0.327 N 
ATOM     16  C   UNL     1      12.527   5.415  -1.433  0.00  0.00    +0.218 C 
ATOM     17  C   UNL     1      12.522   7.228   0.327  0.00  0.00    +0.126 C 
ATOM     18  C   UNL     1      10.396   6.227  -0.489  0.00  0.00    +0.126 C 
ATOM     19  C   UNL     1      11.602   8.367   0.767  0.00  0.00    +0.124 C 
ATOM     20  C   UNL     1       9.883   6.538   0.915  0.00  0.00    +0.124 C 
BRANCH   8  21
ATOM      1  F   UNL     1       7.591  10.741   5.156  0.00  0.00    -0.205 F 
ATOM     21  C   UNL     1       9.673   8.573   2.324  0.00  0.00    +0.030 A 
ATOM     23  C   UNL     1       8.471   8.082   2.834  0.00  0.00    +0.026 A 
ATOM     24  C   UNL     1      10.171   9.797   2.772  0.00  0.00    +0.026 A 
ATOM     26  C   UNL     1       7.767   8.814   3.790  0.00  0.00    +0.040 A 
ATOM     27  C   UNL     1       9.467  10.529   3.728  0.00  0.00    +0.040 A 
ATOM     28  C   UNL     1       8.266  10.037   4.237  0.00  0.00    +0.124 A 
ENDBRANCH   8  21
ENDBRANCH  14  16
ENDBRANCH  10  14
BRANCH  13  15
ATOM     15  C   UNL     1      12.377   3.625   1.891  0.00  0.00    +0.138 C 
BRANCH  15   9
ATOM      6  O   UNL     1      10.265   4.329   3.705  0.00  0.00    -0.270 OA
ATOM      9  N   UNL     1      12.351   4.749   2.780  0.00  0.00    -0.309 N 
ATOM     22  C   UNL     1      11.281   5.016   3.629  0.00  0.00    +0.244 C 
ATOM     37  H   UNL     1      13.184   5.329   2.808  0.00  0.00    +0.149 HD
BRANCH  22  25
ATOM     25  C   UNL     1      11.395   6.236   4.469  0.00  0.00    +0.037 A 
ATOM     29  C   UNL     1      10.431   6.509   5.438  0.00  0.00    +0.013 A 
ATOM     30  C   UNL     1      12.470   7.107   4.289  0.00  0.00    +0.013 A 
ATOM     31  C   UNL     1      10.539   7.655   6.225  0.00  0.00    +0.004 A 
ATOM     32  C   UNL     1      12.578   8.254   5.077  0.00  0.00    +0.004 A 
ATOM     33  C   UNL     1      11.613   8.527   6.046  0.00  0.00    -0.050 A 
ATOM     34  C   UNL     1      11.728   9.752   6.889  0.00  0.00    +0.044 C 
ENDBRANCH  22  25
ENDBRANCH  15   9
ENDBRANCH  13  15
TORSDOF 8
ENDMDL
