MODEL 1
REMARK VINA RESULT:      -6.7      0.000      0.000
REMARK  Name = 11885135
REMARK  5 active torsions:
REMARK  status: ('A' for Active; 'I' for Inactive)
REMARK    1  A    between atoms: S_1  and  N_6
REMARK    2  A    between atoms: S_1  and  C_19
REMARK    3  A    between atoms: O_5  and  C_30
REMARK    4  A    between atoms: O_5  and  C_31
REMARK    5  A    between atoms: C_17  and  C_20
REMARK                            x       y       z     vdW  Elec       q    Type
REMARK                         _______ _______ _______ _____ _____    ______ ____
ROOT
ATOM      4  O   UNL     1      12.164   7.810   2.423  0.00  0.00    -0.267 OA
ATOM      6  N   UNL     1      13.407   4.214  -0.797  0.00  0.00    -0.176 NA
ATOM      7  N   UNL     1      12.742   5.598   1.964  0.00  0.00    -0.311 N 
ATOM      8  C   UNL     1      15.011   4.943   0.972  0.00  0.00    +0.025 C 
ATOM      9  C   UNL     1      13.351   3.204   1.474  0.00  0.00    +0.052 C 
ATOM     10  C   UNL     1      14.798   3.630   1.714  0.00  0.00    +0.017 C 
ATOM     11  C   UNL     1      14.770   4.758  -0.535  0.00  0.00    +0.114 C 
ATOM     12  C   UNL     1      13.127   2.963  -0.030  0.00  0.00    +0.119 C 
ATOM     13  C   UNL     1      14.099   6.014   1.584  0.00  0.00    +0.130 C 
ATOM     14  C   UNL     1      12.381   4.249   1.992  0.00  0.00    +0.026 A 
ATOM     15  C   UNL     1      11.175   3.884   2.454  0.00  0.00    +0.022 A 
ATOM     16  C   UNL     1      11.868   6.614   2.399  0.00  0.00    +0.259 A 
ATOM     17  C   UNL     1      10.510   6.178   2.877  0.00  0.00    +0.047 A 
ATOM     18  C   UNL     1      10.226   4.866   2.896  0.00  0.00    +0.015 A 
ENDROOT
BRANCH  17  20
ATOM     20  C   UNL     1       9.501   7.159   3.310  0.00  0.00    -0.012 A 
ATOM     23  C   UNL     1       9.174   7.277   4.661  0.00  0.00    +0.012 A 
ATOM     24  C   UNL     1       8.870   7.974   2.369  0.00  0.00    +0.012 A 
ATOM     28  C   UNL     1       8.219   8.207   5.071  0.00  0.00    +0.046 A 
ATOM     29  C   UNL     1       7.915   8.904   2.778  0.00  0.00    +0.046 A 
ATOM     30  C   UNL     1       7.588   9.020   4.129  0.00  0.00    +0.120 A 
BRANCH  30   5
ATOM      5  O   UNL     1       6.655   9.927   4.529  0.00  0.00    -0.495 OA
ATOM     31  C   UNL     1       5.684  10.328   3.563  0.00  0.00    +0.277 C 
ENDBRANCH  30   5
ENDBRANCH  17  20
BRANCH   6   1
ATOM      1  S   UNL     1      12.917   4.201  -2.436  0.00  0.00    +0.061 S 
ATOM      2  O   UNL     1      12.792   2.829  -2.882  0.00  0.00    -0.153 OA
ATOM      3  O   UNL     1      13.718   5.155  -3.176  0.00  0.00    -0.153 OA
BRANCH   1  19
ATOM     19  C   UNL     1      11.289   4.866  -2.278  0.00  0.00    +0.105 A 
ATOM     21  C   UNL     1      10.333   4.553  -3.230  0.00  0.00    +0.028 A 
ATOM     22  C   UNL     1      10.995   5.691  -1.205  0.00  0.00    +0.028 A 
ATOM     25  C   UNL     1       9.048   5.080  -3.106  0.00  0.00    +0.002 A 
ATOM     26  C   UNL     1       9.710   6.218  -1.080  0.00  0.00    +0.002 A 
ATOM     27  C   UNL     1       8.736   5.913  -2.031  0.00  0.00    +0.000 A 
ENDBRANCH   1  19
ENDBRANCH   6   1
TORSDOF 4
ENDMDL
MODEL 2
REMARK VINA RESULT:      -6.7     26.745     28.380
REMARK  Name = 11885135
REMARK  5 active torsions:
REMARK  status: ('A' for Active; 'I' for Inactive)
REMARK    1  A    between atoms: S_1  and  N_6
REMARK    2  A    between atoms: S_1  and  C_19
REMARK    3  A    between atoms: O_5  and  C_30
REMARK    4  A    between atoms: O_5  and  C_31
REMARK    5  A    between atoms: C_17  and  C_20
REMARK                            x       y       z     vdW  Elec       q    Type
REMARK                         _______ _______ _______ _____ _____    ______ ____
ROOT
ATOM      4  O   UNL     1      -6.712 -11.160  14.653  0.00  0.00    -0.267 OA
ATOM      6  N   UNL     1      -2.464 -13.203  13.033  0.00  0.00    -0.176 NA
ATOM      7  N   UNL     1      -4.423 -11.031  14.227  0.00  0.00    -0.311 N 
ATOM      8  C   UNL     1      -3.447 -11.226  11.867  0.00  0.00    +0.025 C 
ATOM      9  C   UNL     1      -1.948 -10.890  13.784  0.00  0.00    +0.052 C 
ATOM     10  C   UNL     1      -2.329 -10.345  12.409  0.00  0.00    +0.017 C 
ATOM     11  C   UNL     1      -2.970 -12.682  11.731  0.00  0.00    +0.114 C 
ATOM     12  C   UNL     1      -1.416 -12.327  13.638  0.00  0.00    +0.119 C 
ATOM     13  C   UNL     1      -4.672 -11.094  12.780  0.00  0.00    +0.130 C 
ATOM     14  C   UNL     1      -3.132 -10.858  14.731  0.00  0.00    +0.026 A 
ATOM     15  C   UNL     1      -2.941 -10.686  16.049  0.00  0.00    +0.022 A 
ATOM     16  C   UNL     1      -5.556 -11.046  15.064  0.00  0.00    +0.259 A 
ATOM     17  C   UNL     1      -5.308 -10.887  16.540  0.00  0.00    +0.047 A 
ATOM     18  C   UNL     1      -4.047 -10.707  16.963  0.00  0.00    +0.015 A 
ENDROOT
BRANCH  17  20
ATOM     20  C   UNL     1      -6.414 -10.934  17.510  0.00  0.00    -0.012 A 
ATOM     23  C   UNL     1      -6.495 -11.981  18.428  0.00  0.00    +0.012 A 
ATOM     24  C   UNL     1      -7.384  -9.931  17.513  0.00  0.00    +0.012 A 
ATOM     28  C   UNL     1      -7.544 -12.025  19.347  0.00  0.00    +0.046 A 
ATOM     29  C   UNL     1      -8.433  -9.974  18.431  0.00  0.00    +0.046 A 
ATOM     30  C   UNL     1      -8.513 -11.022  19.347  0.00  0.00    +0.120 A 
BRANCH  30   5
ATOM      5  O   UNL     1      -9.537 -11.066  20.244  0.00  0.00    -0.495 OA
ATOM     31  C   UNL     1     -10.686 -10.269  19.957  0.00  0.00    +0.277 C 
ENDBRANCH  30   5
ENDBRANCH  17  20
BRANCH   6   1
ATOM      1  S   UNL     1      -2.143 -14.883  13.083  0.00  0.00    +0.061 S 
ATOM      2  O   UNL     1      -0.727 -15.088  13.313  0.00  0.00    -0.153 OA
ATOM      3  O   UNL     1      -2.818 -15.526  11.975  0.00  0.00    -0.153 OA
BRANCH   1  19
ATOM     19  C   UNL     1      -2.998 -15.317  14.566  0.00  0.00    +0.105 A 
ATOM     21  C   UNL     1      -2.630 -16.466  15.248  0.00  0.00    +0.028 A 
ATOM     22  C   UNL     1      -4.021 -14.503  15.021  0.00  0.00    +0.028 A 
ATOM     25  C   UNL     1      -3.307 -16.810  16.419  0.00  0.00    +0.002 A 
ATOM     26  C   UNL     1      -4.697 -14.847  16.192  0.00  0.00    +0.002 A 
ATOM     27  C   UNL     1      -4.340 -16.001  16.890  0.00  0.00    +0.000 A 
ENDBRANCH   1  19
ENDBRANCH   6   1
TORSDOF 4
ENDMDL
MODEL 3
REMARK VINA RESULT:      -6.6     27.049     30.451
REMARK  Name = 11885135
REMARK  5 active torsions:
REMARK  status: ('A' for Active; 'I' for Inactive)
REMARK    1  A    between atoms: S_1  and  N_6
REMARK    2  A    between atoms: S_1  and  C_19
REMARK    3  A    between atoms: O_5  and  C_30
REMARK    4  A    between atoms: O_5  and  C_31
REMARK    5  A    between atoms: C_17  and  C_20
REMARK                            x       y       z     vdW  Elec       q    Type
REMARK                         _______ _______ _______ _____ _____    ______ ____
ROOT
ATOM      4  O   UNL     1     -14.864   9.210  19.954  0.00  0.00    -0.267 OA
ATOM      6  N   UNL     1     -11.423   9.615  16.371  0.00  0.00    -0.176 NA
ATOM      7  N   UNL     1     -12.647   9.468  19.280  0.00  0.00    -0.311 N 
ATOM      8  C   UNL     1     -11.837  11.503  17.952  0.00  0.00    +0.025 C 
ATOM      9  C   UNL     1     -10.248   9.731  18.559  0.00  0.00    +0.052 C 
ATOM     10  C   UNL     1     -10.499  11.235  18.629  0.00  0.00    +0.017 C 
ATOM     11  C   UNL     1     -11.798  11.053  16.482  0.00  0.00    +0.114 C 
ATOM     12  C   UNL     1     -10.152   9.293  17.087  0.00  0.00    +0.119 C 
ATOM     13  C   UNL     1     -12.946  10.805  18.748  0.00  0.00    +0.130 C 
ATOM     14  C   UNL     1     -11.346   8.961  19.269  0.00  0.00    +0.026 A 
ATOM     15  C   UNL     1     -11.075   7.789  19.864  0.00  0.00    +0.022 A 
ATOM     16  C   UNL     1     -13.712   8.779  19.893  0.00  0.00    +0.259 A 
ATOM     17  C   UNL     1     -13.385   7.450  20.520  0.00  0.00    +0.047 A 
ATOM     18  C   UNL     1     -12.113   7.023  20.493  0.00  0.00    +0.015 A 
ENDROOT
BRANCH  17  20
ATOM     20  C   UNL     1     -14.430   6.624  21.148  0.00  0.00    -0.012 A 
ATOM     23  C   UNL     1     -15.513   6.176  20.392  0.00  0.00    +0.012 A 
ATOM     24  C   UNL     1     -14.338   6.288  22.499  0.00  0.00    +0.012 A 
ATOM     28  C   UNL     1     -16.503   5.393  20.987  0.00  0.00    +0.046 A 
ATOM     29  C   UNL     1     -15.327   5.506  23.093  0.00  0.00    +0.046 A 
ATOM     30  C   UNL     1     -16.410   5.059  22.338  0.00  0.00    +0.120 A 
BRANCH  30   5
ATOM      5  O   UNL     1     -17.377   4.296  22.918  0.00  0.00    -0.495 OA
ATOM     31  C   UNL     1     -16.963   3.068  23.516  0.00  0.00    +0.277 C 
ENDBRANCH  30   5
ENDBRANCH  17  20
BRANCH   6   1
ATOM      1  S   UNL     1     -11.591   8.923  14.815  0.00  0.00    +0.061 S 
ATOM      2  O   UNL     1     -10.641   7.840  14.673  0.00  0.00    -0.153 OA
ATOM      3  O   UNL     1     -11.664   9.985  13.832  0.00  0.00    -0.153 OA
BRANCH   1  19
ATOM     19  C   UNL     1     -13.201   8.212  14.965  0.00  0.00    +0.105 A 
ATOM     21  C   UNL     1     -13.858   8.274  16.183  0.00  0.00    +0.028 A 
ATOM     22  C   UNL     1     -13.777   7.604  13.864  0.00  0.00    +0.028 A 
ATOM     25  C   UNL     1     -15.128   7.710  16.302  0.00  0.00    +0.002 A 
ATOM     26  C   UNL     1     -15.048   7.040  13.982  0.00  0.00    +0.002 A 
ATOM     27  C   UNL     1     -15.723   7.093  15.202  0.00  0.00    +0.000 A 
ENDBRANCH   1  19
ENDBRANCH   6   1
TORSDOF 4
ENDMDL
MODEL 4
REMARK VINA RESULT:      -6.4      3.073      7.699
REMARK  Name = 11885135
REMARK  5 active torsions:
REMARK  status: ('A' for Active; 'I' for Inactive)
REMARK    1  A    between atoms: S_1  and  N_6
REMARK    2  A    between atoms: S_1  and  C_19
REMARK    3  A    between atoms: O_5  and  C_30
REMARK    4  A    between atoms: O_5  and  C_31
REMARK    5  A    between atoms: C_17  and  C_20
REMARK                            x       y       z     vdW  Elec       q    Type
REMARK                         _______ _______ _______ _____ _____    ______ ____
ROOT
ATOM      4  O   UNL     1      10.562   6.868   1.026  0.00  0.00    -0.267 OA
ATOM      6  N   UNL     1      11.239   7.070   5.961  0.00  0.00    -0.176 NA
ATOM      7  N   UNL     1      10.084   6.112   3.180  0.00  0.00    -0.311 N 
ATOM      8  C   UNL     1       9.014   7.610   4.962  0.00  0.00    +0.025 C 
ATOM      9  C   UNL     1       9.575   5.280   5.502  0.00  0.00    +0.052 C 
ATOM     10  C   UNL     1       8.446   6.308   5.513  0.00  0.00    +0.017 C 
ATOM     11  C   UNL     1      10.174   8.107   5.840  0.00  0.00    +0.114 C 
ATOM     12  C   UNL     1      10.711   5.753   6.428  0.00  0.00    +0.119 C 
ATOM     13  C   UNL     1       9.436   7.391   3.504  0.00  0.00    +0.130 C 
ATOM     14  C   UNL     1      10.098   5.057   4.095  0.00  0.00    +0.026 A 
ATOM     15  C   UNL     1      10.591   3.861   3.737  0.00  0.00    +0.022 A 
ATOM     16  C   UNL     1      10.589   5.972   1.872  0.00  0.00    +0.259 A 
ATOM     17  C   UNL     1      11.169   4.631   1.511  0.00  0.00    +0.047 A 
ATOM     18  C   UNL     1      11.139   3.651   2.428  0.00  0.00    +0.015 A 
ENDROOT
BRANCH  17  20
ATOM     20  C   UNL     1      11.766   4.388   0.187  0.00  0.00    -0.012 A 
ATOM     23  C   UNL     1      10.948   4.267  -0.936  0.00  0.00    +0.012 A 
ATOM     24  C   UNL     1      13.151   4.280   0.055  0.00  0.00    +0.012 A 
ATOM     28  C   UNL     1      11.515   4.037  -2.191  0.00  0.00    +0.046 A 
ATOM     29  C   UNL     1      13.717   4.051  -1.198  0.00  0.00    +0.046 A 
ATOM     30  C   UNL     1      12.899   3.928  -2.321  0.00  0.00    +0.120 A 
BRANCH  30   5
ATOM      5  O   UNL     1      13.451   3.703  -3.545  0.00  0.00    -0.495 OA
ATOM     31  C   UNL     1      12.674   2.958  -4.481  0.00  0.00    +0.277 C 
ENDBRANCH  30   5
ENDBRANCH  17  20
BRANCH   6   1
ATOM      1  S   UNL     1      12.695   7.586   6.695  0.00  0.00    +0.061 S 
ATOM      2  O   UNL     1      13.121   6.588   7.654  0.00  0.00    -0.153 OA
ATOM      3  O   UNL     1      12.565   8.977   7.077  0.00  0.00    -0.153 OA
BRANCH   1  19
ATOM     19  C   UNL     1      13.787   7.503   5.310  0.00  0.00    +0.105 A 
ATOM     21  C   UNL     1      13.270   7.219   4.057  0.00  0.00    +0.028 A 
ATOM     22  C   UNL     1      15.141   7.722   5.501  0.00  0.00    +0.028 A 
ATOM     25  C   UNL     1      14.133   7.153   2.962  0.00  0.00    +0.002 A 
ATOM     26  C   UNL     1      16.003   7.655   4.406  0.00  0.00    +0.002 A 
ATOM     27  C   UNL     1      15.499   7.370   3.137  0.00  0.00    +0.000 A 
ENDBRANCH   1  19
ENDBRANCH   6   1
TORSDOF 4
ENDMDL
MODEL 5
REMARK VINA RESULT:      -6.4     27.230     29.955
REMARK  Name = 11885135
REMARK  5 active torsions:
REMARK  status: ('A' for Active; 'I' for Inactive)
REMARK    1  A    between atoms: S_1  and  N_6
REMARK    2  A    between atoms: S_1  and  C_19
REMARK    3  A    between atoms: O_5  and  C_30
REMARK    4  A    between atoms: O_5  and  C_31
REMARK    5  A    between atoms: C_17  and  C_20
REMARK                            x       y       z     vdW  Elec       q    Type
REMARK                         _______ _______ _______ _____ _____    ______ ____
ROOT
ATOM      4  O   UNL     1     -13.265   9.871  20.477  0.00  0.00    -0.267 OA
ATOM      6  N   UNL     1     -12.068  11.435  15.898  0.00  0.00    -0.176 NA
ATOM      7  N   UNL     1     -11.696  10.202  18.783  0.00  0.00    -0.311 N 
ATOM      8  C   UNL     1     -11.078  12.531  17.912  0.00  0.00    +0.025 C 
ATOM      9  C   UNL     1     -10.000  10.542  16.952  0.00  0.00    +0.052 C 
ATOM     10  C   UNL     1      -9.728  11.899  17.597  0.00  0.00    +0.017 C 
ATOM     11  C   UNL     1     -11.896  12.725  16.624  0.00  0.00    +0.114 C 
ATOM     12  C   UNL     1     -10.769  10.744  15.634  0.00  0.00    +0.119 C 
ATOM     13  C   UNL     1     -11.807  11.659  18.942  0.00  0.00    +0.130 C 
ATOM     14  C   UNL     1     -10.783   9.640  17.888  0.00  0.00    +0.026 A 
ATOM     15  C   UNL     1     -10.616   8.309  17.843  0.00  0.00    +0.022 A 
ATOM     16  C   UNL     1     -12.475   9.411  19.650  0.00  0.00    +0.259 A 
ATOM     17  C   UNL     1     -12.293   7.920  19.551  0.00  0.00    +0.047 A 
ATOM     18  C   UNL     1     -11.388   7.440  18.684  0.00  0.00    +0.015 A 
ENDROOT
BRANCH  17  20
ATOM     20  C   UNL     1     -13.090   6.997  20.377  0.00  0.00    -0.012 A 
ATOM     23  C   UNL     1     -12.457   6.149  21.286  0.00  0.00    +0.012 A 
ATOM     24  C   UNL     1     -14.479   6.970  20.252  0.00  0.00    +0.012 A 
ATOM     28  C   UNL     1     -13.212   5.275  22.068  0.00  0.00    +0.046 A 
ATOM     29  C   UNL     1     -15.234   6.096  21.034  0.00  0.00    +0.046 A 
ATOM     30  C   UNL     1     -14.601   5.248  21.941  0.00  0.00    +0.120 A 
BRANCH  30   5
ATOM      5  O   UNL     1     -15.337   4.394  22.703  0.00  0.00    -0.495 OA
ATOM     31  C   UNL     1     -15.032   4.339  24.096  0.00  0.00    +0.277 C 
ENDBRANCH  30   5
ENDBRANCH  17  20
BRANCH   6   1
ATOM      1  S   UNL     1     -13.169  11.462  14.589  0.00  0.00    +0.061 S 
ATOM      2  O   UNL     1     -12.432  11.368  13.347  0.00  0.00    -0.153 OA
ATOM      3  O   UNL     1     -14.133  12.522  14.805  0.00  0.00    -0.153 OA
BRANCH   1  19
ATOM     19  C   UNL     1     -13.992   9.920  14.845  0.00  0.00    +0.105 A 
ATOM     21  C   UNL     1     -14.553   9.264  13.762  0.00  0.00    +0.028 A 
ATOM     22  C   UNL     1     -14.064   9.396  16.125  0.00  0.00    +0.028 A 
ATOM     25  C   UNL     1     -15.204   8.047  13.965  0.00  0.00    +0.002 A 
ATOM     26  C   UNL     1     -14.716   8.179  16.327  0.00  0.00    +0.002 A 
ATOM     27  C   UNL     1     -15.286   7.505  15.247  0.00  0.00    +0.000 A 
ENDBRANCH   1  19
ENDBRANCH   6   1
TORSDOF 4
ENDMDL
MODEL 6
REMARK VINA RESULT:      -6.3     33.976     36.543
REMARK  Name = 11885135
REMARK  5 active torsions:
REMARK  status: ('A' for Active; 'I' for Inactive)
REMARK    1  A    between atoms: S_1  and  N_6
REMARK    2  A    between atoms: S_1  and  C_19
REMARK    3  A    between atoms: O_5  and  C_30
REMARK    4  A    between atoms: O_5  and  C_31
REMARK    5  A    between atoms: C_17  and  C_20
REMARK                            x       y       z     vdW  Elec       q    Type
REMARK                         _______ _______ _______ _____ _____    ______ ____
ROOT
ATOM      4  O   UNL     1       9.221 -11.867  31.800  0.00  0.00    -0.267 OA
ATOM      6  N   UNL     1       6.961  -8.920  35.125  0.00  0.00    -0.176 NA
ATOM      7  N   UNL     1       8.431  -9.775  32.461  0.00  0.00    -0.311 N 
ATOM      8  C   UNL     1       9.351  -8.538  34.507  0.00  0.00    +0.025 C 
ATOM      9  C   UNL     1       7.566  -7.516  33.163  0.00  0.00    +0.052 C 
ATOM     10  C   UNL     1       8.957  -7.278  33.746  0.00  0.00    +0.017 C 
ATOM     11  C   UNL     1       8.354  -8.814  35.645  0.00  0.00    +0.114 C 
ATOM     12  C   UNL     1       6.559  -7.735  34.307  0.00  0.00    +0.119 C 
ATOM     13  C   UNL     1       9.450  -9.706  33.518  0.00  0.00    +0.130 C 
ATOM     14  C   UNL     1       7.564  -8.706  32.222  0.00  0.00    +0.026 A 
ATOM     15  C   UNL     1       6.721  -8.743  31.179  0.00  0.00    +0.022 A 
ATOM     16  C   UNL     1       8.447 -10.921  31.642  0.00  0.00    +0.259 A 
ATOM     17  C   UNL     1       7.466 -10.950  30.501  0.00  0.00    +0.047 A 
ATOM     18  C   UNL     1       6.670  -9.886  30.312  0.00  0.00    +0.015 A 
ENDROOT
BRANCH  17  20
ATOM     20  C   UNL     1       7.365 -12.117  29.610  0.00  0.00    -0.012 A 
ATOM     23  C   UNL     1       8.232 -12.245  28.524  0.00  0.00    +0.012 A 
ATOM     24  C   UNL     1       6.402 -13.099  29.850  0.00  0.00    +0.012 A 
ATOM     28  C   UNL     1       8.136 -13.352  27.680  0.00  0.00    +0.046 A 
ATOM     29  C   UNL     1       6.306 -14.205  29.007  0.00  0.00    +0.046 A 
ATOM     30  C   UNL     1       7.172 -14.331  27.921  0.00  0.00    +0.120 A 
BRANCH  30   5
ATOM      5  O   UNL     1       7.079 -15.410  27.097  0.00  0.00    -0.495 OA
ATOM     31  C   UNL     1       5.965 -15.452  26.205  0.00  0.00    +0.277 C 
ENDBRANCH  30   5
ENDBRANCH  17  20
BRANCH   6   1
ATOM      1  S   UNL     1       5.793  -9.477  36.243  0.00  0.00    +0.061 S 
ATOM      2  O   UNL     1       4.833  -8.421  36.491  0.00  0.00    -0.153 OA
ATOM      3  O   UNL     1       6.468 -10.143  37.338  0.00  0.00    -0.153 OA
BRANCH   1  19
ATOM     19  C   UNL     1       4.994 -10.713  35.266  0.00  0.00    +0.105 A 
ATOM     21  C   UNL     1       5.706 -11.343  34.258  0.00  0.00    +0.028 A 
ATOM     22  C   UNL     1       3.672 -11.029  35.524  0.00  0.00    +0.028 A 
ATOM     25  C   UNL     1       5.074 -12.318  33.486  0.00  0.00    +0.002 A 
ATOM     26  C   UNL     1       3.040 -12.005  34.751  0.00  0.00    +0.002 A 
ATOM     27  C   UNL     1       3.742 -12.649  33.732  0.00  0.00    +0.000 A 
ENDBRANCH   1  19
ENDBRANCH   6   1
TORSDOF 4
ENDMDL
MODEL 7
REMARK VINA RESULT:      -6.3     26.773     28.479
REMARK  Name = 11885135
REMARK  5 active torsions:
REMARK  status: ('A' for Active; 'I' for Inactive)
REMARK    1  A    between atoms: S_1  and  N_6
REMARK    2  A    between atoms: S_1  and  C_19
REMARK    3  A    between atoms: O_5  and  C_30
REMARK    4  A    between atoms: O_5  and  C_31
REMARK    5  A    between atoms: C_17  and  C_20
REMARK                            x       y       z     vdW  Elec       q    Type
REMARK                         _______ _______ _______ _____ _____    ______ ____
ROOT
ATOM      4  O   UNL     1      -7.784  -8.937  17.389  0.00  0.00    -0.267 OA
ATOM      6  N   UNL     1      -4.001 -11.710  15.702  0.00  0.00    -0.176 NA
ATOM      7  N   UNL     1      -6.694 -10.989  17.189  0.00  0.00    -0.311 N 
ATOM      8  C   UNL     1      -4.359 -11.410  18.155  0.00  0.00    +0.025 C 
ATOM      9  C   UNL     1      -5.530 -13.212  16.964  0.00  0.00    +0.052 C 
ATOM     10  C   UNL     1      -4.822 -12.858  18.269  0.00  0.00    +0.017 C 
ATOM     11  C   UNL     1      -3.384 -11.246  16.978  0.00  0.00    +0.114 C 
ATOM     12  C   UNL     1      -4.536 -13.102  15.793  0.00  0.00    +0.119 C 
ATOM     13  C   UNL     1      -5.590 -10.504  18.028  0.00  0.00    +0.130 C 
ATOM     14  C   UNL     1      -6.725 -12.307  16.728  0.00  0.00    +0.026 A 
ATOM     15  C   UNL     1      -7.798 -12.763  16.062  0.00  0.00    +0.022 A 
ATOM     16  C   UNL     1      -7.760 -10.095  16.968  0.00  0.00    +0.259 A 
ATOM     17  C   UNL     1      -8.934 -10.624  16.187  0.00  0.00    +0.047 A 
ATOM     18  C   UNL     1      -8.914 -11.904  15.785  0.00  0.00    +0.015 A 
ENDROOT
BRANCH  17  20
ATOM     20  C   UNL     1     -10.082  -9.762  15.858  0.00  0.00    -0.012 A 
ATOM     23  C   UNL     1     -11.065  -9.512  16.816  0.00  0.00    +0.012 A 
ATOM     24  C   UNL     1     -10.188  -9.194  14.588  0.00  0.00    +0.012 A 
ATOM     28  C   UNL     1     -12.153  -8.696  16.503  0.00  0.00    +0.046 A 
ATOM     29  C   UNL     1     -11.275  -8.378  14.276  0.00  0.00    +0.046 A 
ATOM     30  C   UNL     1     -12.258  -8.130  15.233  0.00  0.00    +0.120 A 
BRANCH  30   5
ATOM      5  O   UNL     1     -13.319  -7.334  14.928  0.00  0.00    -0.495 OA
ATOM     31  C   UNL     1     -13.084  -5.927  14.882  0.00  0.00    +0.277 C 
ENDBRANCH  30   5
ENDBRANCH  17  20
BRANCH   6   1
ATOM      1  S   UNL     1      -3.122 -11.348  14.280  0.00  0.00    +0.061 S 
ATOM      2  O   UNL     1      -2.817 -12.580  13.584  0.00  0.00    -0.153 OA
ATOM      3  O   UNL     1      -2.079 -10.395  14.600  0.00  0.00    -0.153 OA
BRANCH   1  19
ATOM     19  C   UNL     1      -4.366 -10.500  13.356  0.00  0.00    +0.105 A 
ATOM     21  C   UNL     1      -5.576 -10.204  13.962  0.00  0.00    +0.028 A 
ATOM     22  C   UNL     1      -4.111 -10.148  12.042  0.00  0.00    +0.028 A 
ATOM     25  C   UNL     1      -6.559  -9.536  13.231  0.00  0.00    +0.002 A 
ATOM     26  C   UNL     1      -5.094  -9.479  11.311  0.00  0.00    +0.002 A 
ATOM     27  C   UNL     1      -6.318  -9.174  11.906  0.00  0.00    +0.000 A 
ENDBRANCH   1  19
ENDBRANCH   6   1
TORSDOF 4
ENDMDL
MODEL 8
REMARK VINA RESULT:      -6.3     13.703     17.031
REMARK  Name = 11885135
REMARK  5 active torsions:
REMARK  status: ('A' for Active; 'I' for Inactive)
REMARK    1  A    between atoms: S_1  and  N_6
REMARK    2  A    between atoms: S_1  and  C_19
REMARK    3  A    between atoms: O_5  and  C_30
REMARK    4  A    between atoms: O_5  and  C_31
REMARK    5  A    between atoms: C_17  and  C_20
REMARK                            x       y       z     vdW  Elec       q    Type
REMARK                         _______ _______ _______ _____ _____    ______ ____
ROOT
ATOM      4  O   UNL     1      -6.544   9.671   5.479  0.00  0.00    -0.267 OA
ATOM      6  N   UNL     1      -1.869  10.492   3.959  0.00  0.00    -0.176 NA
ATOM      7  N   UNL     1      -4.251   9.282   5.645  0.00  0.00    -0.311 N 
ATOM      8  C   UNL     1      -2.582  11.124   6.267  0.00  0.00    +0.025 C 
ATOM      9  C   UNL     1      -1.776   8.846   5.821  0.00  0.00    +0.052 C 
ATOM     10  C   UNL     1      -1.752   9.982   6.841  0.00  0.00    +0.017 C 
ATOM     11  C   UNL     1      -1.983  11.611   4.937  0.00  0.00    +0.114 C 
ATOM     12  C   UNL     1      -1.124   9.319   4.509  0.00  0.00    +0.119 C 
ATOM     13  C   UNL     1      -4.035  10.657   6.119  0.00  0.00    +0.130 C 
ATOM     14  C   UNL     1      -3.195   8.372   5.565  0.00  0.00    +0.026 A 
ATOM     15  C   UNL     1      -3.433   7.091   5.242  0.00  0.00    +0.022 A 
ATOM     16  C   UNL     1      -5.583   8.906   5.384  0.00  0.00    +0.259 A 
ATOM     17  C   UNL     1      -5.814   7.472   4.989  0.00  0.00    +0.047 A 
ATOM     18  C   UNL     1      -4.762   6.640   4.945  0.00  0.00    +0.015 A 
ENDROOT
BRANCH  17  20
ATOM     20  C   UNL     1      -7.161   6.982   4.648  0.00  0.00    -0.012 A 
ATOM     23  C   UNL     1      -7.827   7.488   3.532  0.00  0.00    +0.012 A 
ATOM     24  C   UNL     1      -7.772   6.010   5.441  0.00  0.00    +0.012 A 
ATOM     28  C   UNL     1      -9.102   7.023   3.209  0.00  0.00    +0.046 A 
ATOM     29  C   UNL     1      -9.046   5.545   5.119  0.00  0.00    +0.046 A 
ATOM     30  C   UNL     1      -9.712   6.052   4.004  0.00  0.00    +0.120 A 
BRANCH  30   5
ATOM      5  O   UNL     1     -10.956   5.599   3.689  0.00  0.00    -0.495 OA
ATOM     31  C   UNL     1     -11.808   5.233   4.774  0.00  0.00    +0.277 C 
ENDBRANCH  30   5
ENDBRANCH  17  20
BRANCH   6   1
ATOM      1  S   UNL     1      -1.459  10.944   2.361  0.00  0.00    +0.061 S 
ATOM      2  O   UNL     1      -0.496  10.000   1.833  0.00  0.00    -0.153 OA
ATOM      3  O   UNL     1      -1.202  12.369   2.324  0.00  0.00    -0.153 OA
BRANCH   1  19
ATOM     19  C   UNL     1      -3.001  10.650   1.551  0.00  0.00    +0.105 A 
ATOM     21  C   UNL     1      -3.061  10.706   0.168  0.00  0.00    +0.028 A 
ATOM     22  C   UNL     1      -4.123  10.369   2.312  0.00  0.00    +0.028 A 
ATOM     25  C   UNL     1      -4.279  10.476  -0.471  0.00  0.00    +0.002 A 
ATOM     26  C   UNL     1      -5.341  10.139   1.673  0.00  0.00    +0.002 A 
ATOM     27  C   UNL     1      -5.419  10.193   0.281  0.00  0.00    +0.000 A 
ENDBRANCH   1  19
ENDBRANCH   6   1
TORSDOF 4
ENDMDL
MODEL 9
REMARK VINA RESULT:      -6.2     24.432     26.304
REMARK  Name = 11885135
REMARK  5 active torsions:
REMARK  status: ('A' for Active; 'I' for Inactive)
REMARK    1  A    between atoms: S_1  and  N_6
REMARK    2  A    between atoms: S_1  and  C_19
REMARK    3  A    between atoms: O_5  and  C_30
REMARK    4  A    between atoms: O_5  and  C_31
REMARK    5  A    between atoms: C_17  and  C_20
REMARK                            x       y       z     vdW  Elec       q    Type
REMARK                         _______ _______ _______ _____ _____    ______ ____
ROOT
ATOM      4  O   UNL     1      -5.267 -12.689  10.278  0.00  0.00    -0.267 OA
ATOM      6  N   UNL     1      -3.515 -12.057  14.901  0.00  0.00    -0.176 NA
ATOM      7  N   UNL     1      -3.499 -12.322  11.753  0.00  0.00    -0.311 N 
ATOM      8  C   UNL     1      -2.814 -14.028  13.537  0.00  0.00    +0.025 C 
ATOM      9  C   UNL     1      -1.586 -11.910  13.339  0.00  0.00    +0.052 C 
ATOM     10  C   UNL     1      -1.423 -13.427  13.376  0.00  0.00    +0.017 C 
ATOM     11  C   UNL     1      -3.462 -13.546  14.846  0.00  0.00    +0.114 C 
ATOM     12  C   UNL     1      -2.181 -11.424  14.673  0.00  0.00    +0.119 C 
ATOM     13  C   UNL     1      -3.654 -13.676  12.303  0.00  0.00    +0.130 C 
ATOM     14  C   UNL     1      -2.468 -11.482  12.180  0.00  0.00    +0.026 A 
ATOM     15  C   UNL     1      -2.273 -10.297  11.582  0.00  0.00    +0.022 A 
ATOM     16  C   UNL     1      -4.369 -11.961  10.706  0.00  0.00    +0.259 A 
ATOM     17  C   UNL     1      -4.149 -10.611  10.079  0.00  0.00    +0.047 A 
ATOM     18  C   UNL     1      -3.132  -9.856  10.521  0.00  0.00    +0.015 A 
ENDROOT
BRANCH  17  20
ATOM     20  C   UNL     1      -5.030 -10.113   9.008  0.00  0.00    -0.012 A 
ATOM     23  C   UNL     1      -6.060  -9.222   9.308  0.00  0.00    +0.012 A 
ATOM     24  C   UNL     1      -4.835 -10.533   7.692  0.00  0.00    +0.012 A 
ATOM     28  C   UNL     1      -6.894  -8.750   8.294  0.00  0.00    +0.046 A 
ATOM     29  C   UNL     1      -5.668 -10.062   6.678  0.00  0.00    +0.046 A 
ATOM     30  C   UNL     1      -6.698  -9.172   6.979  0.00  0.00    +0.120 A 
BRANCH  30   5
ATOM      5  O   UNL     1      -7.512  -8.713   5.989  0.00  0.00    -0.495 OA
ATOM     31  C   UNL     1      -8.245  -7.517   6.254  0.00  0.00    +0.277 C 
ENDBRANCH  30   5
ENDBRANCH  17  20
BRANCH   6   1
ATOM      1  S   UNL     1      -4.438 -11.396  16.181  0.00  0.00    +0.061 S 
ATOM      2  O   UNL     1      -3.706 -10.296  16.774  0.00  0.00    -0.153 OA
ATOM      3  O   UNL     1      -4.952 -12.476  16.999  0.00  0.00    -0.153 OA
BRANCH   1  19
ATOM     19  C   UNL     1      -5.789 -10.717  15.269  0.00  0.00    +0.105 A 
ATOM     21  C   UNL     1      -6.984 -10.458  15.920  0.00  0.00    +0.028 A 
ATOM     22  C   UNL     1      -5.631 -10.455  13.918  0.00  0.00    +0.028 A 
ATOM     25  C   UNL     1      -8.051  -9.922  15.200  0.00  0.00    +0.002 A 
ATOM     26  C   UNL     1      -6.699  -9.920  13.198  0.00  0.00    +0.002 A 
ATOM     27  C   UNL     1      -7.909  -9.654  13.838  0.00  0.00    +0.000 A 
ENDBRANCH   1  19
ENDBRANCH   6   1
TORSDOF 4
ENDMDL
MODEL 10
REMARK VINA RESULT:      -6.1     34.754     37.068
REMARK  Name = 11885135
REMARK  5 active torsions:
REMARK  status: ('A' for Active; 'I' for Inactive)
REMARK    1  A    between atoms: S_1  and  N_6
REMARK    2  A    between atoms: S_1  and  C_19
REMARK    3  A    between atoms: O_5  and  C_30
REMARK    4  A    between atoms: O_5  and  C_31
REMARK    5  A    between atoms: C_17  and  C_20
REMARK                            x       y       z     vdW  Elec       q    Type
REMARK                         _______ _______ _______ _____ _____    ______ ____
ROOT
ATOM      4  O   UNL     1       9.371  -9.511  32.947  0.00  0.00    -0.267 OA
ATOM      6  N   UNL     1       8.430  -5.932  36.287  0.00  0.00    -0.176 NA
ATOM      7  N   UNL     1       8.708  -7.337  33.471  0.00  0.00    -0.311 N 
ATOM      8  C   UNL     1      10.268  -5.660  34.619  0.00  0.00    +0.025 C 
ATOM      9  C   UNL     1       7.978  -4.992  34.030  0.00  0.00    +0.052 C 
ATOM     10  C   UNL     1       9.448  -4.608  33.881  0.00  0.00    +0.017 C 
ATOM     11  C   UNL     1       9.890  -5.691  36.109  0.00  0.00    +0.114 C 
ATOM     12  C   UNL     1       7.587  -4.967  35.519  0.00  0.00    +0.119 C 
ATOM     13  C   UNL     1      10.066  -7.017  33.934  0.00  0.00    +0.130 C 
ATOM     14  C   UNL     1       7.709  -6.363  33.437  0.00  0.00    +0.026 A 
ATOM     15  C   UNL     1       6.511  -6.646  32.901  0.00  0.00    +0.022 A 
ATOM     16  C   UNL     1       8.503  -8.636  32.967  0.00  0.00    +0.259 A 
ATOM     17  C   UNL     1       7.138  -8.935  32.406  0.00  0.00    +0.047 A 
ATOM     18  C   UNL     1       6.224  -7.953  32.385  0.00  0.00    +0.015 A 
ENDROOT
BRANCH  17  20
ATOM     20  C   UNL     1       6.799 -10.274  31.895  0.00  0.00    -0.012 A 
ATOM     23  C   UNL     1       6.342 -11.260  32.769  0.00  0.00    +0.012 A 
ATOM     24  C   UNL     1       6.934 -10.558  30.536  0.00  0.00    +0.012 A 
ATOM     28  C   UNL     1       6.021 -12.529  32.285  0.00  0.00    +0.046 A 
ATOM     29  C   UNL     1       6.613 -11.826  30.051  0.00  0.00    +0.046 A 
ATOM     30  C   UNL     1       6.158 -12.811  30.926  0.00  0.00    +0.120 A 
BRANCH  30   5
ATOM      5  O   UNL     1       5.845 -14.049  30.454  0.00  0.00    -0.495 OA
ATOM     31  C   UNL     1       4.761 -14.137  29.530  0.00  0.00    +0.277 C 
ENDBRANCH  30   5
ENDBRANCH  17  20
BRANCH   6   1
ATOM      1  S   UNL     1       7.921  -6.244  37.890  0.00  0.00    +0.061 S 
ATOM      2  O   UNL     1       7.501  -5.002  38.504  0.00  0.00    -0.153 OA
ATOM      3  O   UNL     1       8.894  -7.102  38.536  0.00  0.00    -0.153 OA
BRANCH   1  19
ATOM     19  C   UNL     1       6.474  -7.206  37.574  0.00  0.00    +0.105 A 
ATOM     21  C   UNL     1       5.346  -7.008  38.353  0.00  0.00    +0.028 A 
ATOM     22  C   UNL     1       6.493  -8.142  36.554  0.00  0.00    +0.028 A 
ATOM     25  C   UNL     1       4.204  -7.769  38.104  0.00  0.00    +0.002 A 
ATOM     26  C   UNL     1       5.350  -8.903  36.306  0.00  0.00    +0.002 A 
ATOM     27  C   UNL     1       4.206  -8.717  37.081  0.00  0.00    +0.000 A 
ENDBRANCH   1  19
ENDBRANCH   6   1
TORSDOF 4
ENDMDL
