REMARK  Name = 28961232
REMARK  16 active torsions:
REMARK  status: ('A' for Active; 'I' for Inactive)
REMARK    1  A    between atoms: O_4  and  C_11
REMARK    2  A    between atoms: O_5  and  C_14
REMARK    3  A    between atoms: N_6  and  C_9
REMARK    4  A    between atoms: N_6  and  C_15
REMARK    5  A    between atoms: N_6  and  C_16
REMARK    6  A    between atoms: N_7  and  C_13
REMARK    7  A    between atoms: N_7  and  C_18
REMARK    8  A    between atoms: N_7  and  C_19
REMARK    9  A    between atoms: N_8  and  C_17
REMARK   10  A    between atoms: N_8  and  C_22
REMARK   11  A    between atoms: N_8  and  C_23
REMARK   12  A    between atoms: C_10  and  C_13
REMARK   13  A    between atoms: C_12  and  C_14
REMARK   14  A    between atoms: C_15  and  C_17
REMARK   15  A    between atoms: C_18  and  C_20
REMARK   16  A    between atoms: C_19  and  C_21
REMARK                            x       y       z     vdW  Elec       q    Type
REMARK                         _______ _______ _______ _____ _____    ______ ____
ROOT
ATOM     13  C   UNL     1       0.743   0.126   0.383  0.00  0.00    +0.118 C 
ENDROOT
BRANCH  13  10
ATOM      3  O   UNL     1       0.214   0.935  -1.805  0.00  0.00    -0.366 OA
ATOM      9  C   UNL     1       2.547   0.877  -1.337  0.00  0.00    +0.118 C 
ATOM     10  C   UNL     1       1.206   0.184  -1.069  0.00  0.00    +0.152 C 
ATOM     11  C   UNL     1       2.137   2.307  -1.654  0.00  0.00    +0.165 C 
ATOM     12  C   UNL     1       0.851   2.063  -2.434  0.00  0.00    +0.174 C 
BRANCH  11   4
ATOM      4  O   UNL     1       1.866   3.046  -0.470  0.00  0.00    -0.388 OA
ATOM     34  H   UNL     1       1.713   3.970  -0.729  0.00  0.00    +0.210 HD
ENDBRANCH  11   4
BRANCH   9   6
ATOM      6  N   UNL     1       3.559   0.738  -0.304  0.00  0.00    -0.296 NA
ATOM     16  C   UNL     1       4.586   1.776  -0.436  0.00  0.00    +0.105 C 
BRANCH   6  15
ATOM     15  C   UNL     1       4.179  -0.590  -0.356  0.00  0.00    +0.100 C 
BRANCH  15  17
ATOM     17  C   UNL     1       4.872  -0.899   0.967  0.00  0.00    +0.099 C 
BRANCH  17   8
ATOM      8  N   UNL     1       5.474  -2.228   0.921  0.00  0.00    -0.307 NA
ATOM     22  C   UNL     1       4.456  -3.260   1.121  0.00  0.00    +0.104 C 
ATOM     23  C   UNL     1       6.527  -2.351   1.929  0.00  0.00    +0.104 C 
ENDBRANCH  17   8
ENDBRANCH  15  17
ENDBRANCH   6  15
ENDBRANCH   9   6
BRANCH  12  14
ATOM     14  C   UNL     1      -0.121   3.229  -2.472  0.00  0.00    +0.190 C 
BRANCH  14   5
ATOM      5  O   UNL     1      -1.255   2.856  -3.238  0.00  0.00    -0.392 OA
ATOM     35  H   UNL     1      -1.862   3.616  -3.239  0.00  0.00    +0.210 HD
ENDBRANCH  14   5
ENDBRANCH  12  14
ENDBRANCH  13  10
BRANCH  13   7
ATOM      7  N   UNL     1      -0.526  -0.576   0.498  0.00  0.00    -0.291 NA
BRANCH   7  18
ATOM     18  C   UNL     1      -0.327  -2.025   0.408  0.00  0.00    +0.120 C 
BRANCH  18  20
ATOM      1  F   UNL     1      -5.019  -4.692  -1.212  0.00  0.00    -0.205 F 
ATOM     20  C   UNL     1      -1.581  -2.737  -0.025  0.00  0.00    -0.033 A 
ATOM     24  C   UNL     1      -1.825  -4.042   0.404  0.00  0.00    +0.008 A 
ATOM     26  C   UNL     1      -2.498  -2.093  -0.855  0.00  0.00    +0.008 A 
ATOM     28  C   UNL     1      -2.986  -4.702   0.003  0.00  0.00    +0.038 A 
ATOM     30  C   UNL     1      -3.660  -2.754  -1.256  0.00  0.00    +0.038 A 
ATOM     32  C   UNL     1      -3.903  -4.058  -0.827  0.00  0.00    +0.123 A 
ENDBRANCH  18  20
ENDBRANCH   7  18
BRANCH   7  19
ATOM     19  C   UNL     1      -1.195  -0.235   1.756  0.00  0.00    +0.120 C 
BRANCH  19  21
ATOM      2  F   UNL     1      -3.631   4.841   1.529  0.00  0.00    -0.205 F 
ATOM     21  C   UNL     1      -1.846   1.121   1.695  0.00  0.00    -0.033 A 
ATOM     25  C   UNL     1      -1.970   1.887   2.854  0.00  0.00    +0.008 A 
ATOM     27  C   UNL     1      -2.324   1.612   0.480  0.00  0.00    +0.008 A 
ATOM     29  C   UNL     1      -2.573   3.144   2.798  0.00  0.00    +0.038 A 
ATOM     31  C   UNL     1      -2.927   2.868   0.424  0.00  0.00    +0.038 A 
ATOM     33  C   UNL     1      -3.052   3.634   1.583  0.00  0.00    +0.123 A 
ENDBRANCH  19  21
ENDBRANCH   7  19
ENDBRANCH  13   7
TORSDOF 13
