MODEL 1
REMARK VINA RESULT:      -6.6      0.000      0.000
REMARK  Name = 38029949
REMARK  11 active torsions:
REMARK  status: ('A' for Active; 'I' for Inactive)
REMARK    1  A    between atoms: O_2  and  C_25
REMARK    2  A    between atoms: O_2  and  C_30
REMARK    3  A    between atoms: N_4  and  C_24
REMARK    4  A    between atoms: C_6  and  C_10
REMARK    5  A    between atoms: C_8  and  C_14
REMARK    6  A    between atoms: C_9  and  C_13
REMARK    7  A    between atoms: C_10  and  C_15
REMARK    8  A    between atoms: C_10  and  C_16
REMARK    9  A    between atoms: C_11  and  C_18
REMARK   10  A    between atoms: C_13  and  C_17
REMARK   11  A    between atoms: C_14  and  C_23
REMARK                            x       y       z     vdW  Elec       q    Type
REMARK                         _______ _______ _______ _____ _____    ______ ____
ROOT
ATOM      1  O   UNL     1      19.397   8.339  22.489  0.00  0.00    -0.276 OA
ATOM      3  N   UNL     1      20.271   6.629  21.186  0.00  0.00    -0.298 N 
ATOM      4  N   UNL     1      22.330   4.701  21.123  0.00  0.00    -0.324 N 
ATOM     17  C   UNL     1      19.233   7.344  21.780  0.00  0.00    +0.216 C 
ATOM     19  C   UNL     1      20.119   5.445  20.337  0.00  0.00    +0.126 C 
ATOM     20  C   UNL     1      21.656   7.056  21.362  0.00  0.00    +0.126 C 
ATOM     21  C   UNL     1      20.943   4.280  20.883  0.00  0.00    +0.124 C 
ATOM     22  C   UNL     1      22.504   5.920  21.928  0.00  0.00    +0.124 C 
ENDROOT
BRANCH   4  24
ATOM     24  C   UNL     1      23.347   3.739  21.171  0.00  0.00    +0.072 A 
ATOM     25  C   UNL     1      23.371   2.782  22.185  0.00  0.00    +0.141 A 
ATOM     26  C   UNL     1      24.341   3.745  20.193  0.00  0.00    +0.027 A 
ATOM     27  C   UNL     1      24.390   1.830  22.220  0.00  0.00    +0.047 A 
ATOM     28  C   UNL     1      25.360   2.793  20.228  0.00  0.00    +0.002 A 
ATOM     29  C   UNL     1      25.385   1.836  21.243  0.00  0.00    +0.004 A 
BRANCH  25   2
ATOM      2  O   UNL     1      22.409   2.759  23.150  0.00  0.00    -0.493 OA
ATOM     30  C   UNL     1      22.838   2.957  24.496  0.00  0.00    +0.277 C 
ENDBRANCH  25   2
ENDBRANCH   4  24
BRANCH  17  13
ATOM     13  C   UNL     1      17.836   6.843  21.521  0.00  0.00    +0.103 C 
BRANCH  13   9
ATOM      6  C   UNL     1      15.079   8.498  21.400  0.00  0.00    -0.000 C 
ATOM      7  C   UNL     1      16.456   8.849  20.816  0.00  0.00    +0.012 C 
ATOM      8  C   UNL     1      14.214   7.767  20.344  0.00  0.00    +0.029 C 
ATOM      9  C   UNL     1      17.222   7.601  20.338  0.00  0.00    +0.023 C 
ATOM     11  C   UNL     1      16.346   6.688  19.504  0.00  0.00    -0.073 C 
ATOM     12  C   UNL     1      15.005   6.786  19.509  0.00  0.00    -0.023 C 
ATOM     18  C   UNL     1      17.049   5.689  18.629  0.00  0.00    +0.039 C 
BRANCH   6  10
ATOM     10  C   UNL     1      14.395   9.768  21.914  0.00  0.00    -0.013 C 
ATOM     15  C   UNL     1      15.342  10.557  22.813  0.00  0.00    +0.007 C 
ATOM     16  C   UNL     1      13.919  10.627  20.746  0.00  0.00    +0.007 C 
ENDBRANCH   6  10
BRANCH   8  14
ATOM     14  C   UNL     1      13.034   7.042  21.001  0.00  0.00    +0.126 C 
BRANCH  14  23
ATOM      5  N   UNL     1      10.749   8.042  20.191  0.00  0.00    -0.197 NA
ATOM     23  C   UNL     1      11.762   7.603  20.545  0.00  0.00    +0.063 C 
ENDBRANCH  14  23
ENDBRANCH   8  14
ENDBRANCH  13   9
ENDBRANCH  17  13
TORSDOF 7
ENDMDL
MODEL 2
REMARK VINA RESULT:      -6.6     27.304     31.475
REMARK  Name = 38029949
REMARK  11 active torsions:
REMARK  status: ('A' for Active; 'I' for Inactive)
REMARK    1  A    between atoms: O_2  and  C_25
REMARK    2  A    between atoms: O_2  and  C_30
REMARK    3  A    between atoms: N_4  and  C_24
REMARK    4  A    between atoms: C_6  and  C_10
REMARK    5  A    between atoms: C_8  and  C_14
REMARK    6  A    between atoms: C_9  and  C_13
REMARK    7  A    between atoms: C_10  and  C_15
REMARK    8  A    between atoms: C_10  and  C_16
REMARK    9  A    between atoms: C_11  and  C_18
REMARK   10  A    between atoms: C_13  and  C_17
REMARK   11  A    between atoms: C_14  and  C_23
REMARK                            x       y       z     vdW  Elec       q    Type
REMARK                         _______ _______ _______ _____ _____    ______ ____
ROOT
ATOM      1  O   UNL     1      -7.839 -13.035  18.076  0.00  0.00    -0.276 OA
ATOM      3  N   UNL     1      -6.298 -11.511  17.246  0.00  0.00    -0.298 N 
ATOM      4  N   UNL     1      -4.717 -10.946  14.977  0.00  0.00    -0.324 N 
ATOM     17  C   UNL     1      -7.471 -11.870  17.904  0.00  0.00    +0.216 C 
ATOM     19  C   UNL     1      -5.826 -10.142  17.023  0.00  0.00    +0.126 C 
ATOM     20  C   UNL     1      -5.399 -12.538  16.726  0.00  0.00    +0.126 C 
ATOM     21  C   UNL     1      -5.575  -9.893  15.537  0.00  0.00    +0.124 C 
ATOM     22  C   UNL     1      -5.145 -12.331  15.236  0.00  0.00    +0.124 C 
ENDROOT
BRANCH   4  24
ATOM     24  C   UNL     1      -3.990 -10.698  13.807  0.00  0.00    +0.072 A 
ATOM     25  C   UNL     1      -2.600 -10.797  13.801  0.00  0.00    +0.141 A 
ATOM     26  C   UNL     1      -4.671 -10.350  12.640  0.00  0.00    +0.027 A 
ATOM     27  C   UNL     1      -1.889 -10.547  12.627  0.00  0.00    +0.047 A 
ATOM     28  C   UNL     1      -3.960 -10.099  11.466  0.00  0.00    +0.002 A 
ATOM     29  C   UNL     1      -2.568 -10.198  11.460  0.00  0.00    +0.004 A 
BRANCH  25   2
ATOM      2  O   UNL     1      -1.916 -11.135  14.929  0.00  0.00    -0.493 OA
ATOM     30  C   UNL     1      -1.141 -10.111  15.549  0.00  0.00    +0.277 C 
ENDBRANCH  25   2
ENDBRANCH   4  24
BRANCH  17  13
ATOM     13  C   UNL     1      -8.322 -10.742  18.428  0.00  0.00    +0.103 C 
BRANCH  13   9
ATOM      6  C   UNL     1      -9.619  -9.295  15.864  0.00  0.00    -0.000 C 
ATOM      7  C   UNL     1      -9.758 -10.749  16.339  0.00  0.00    +0.012 C 
ATOM      8  C   UNL     1     -10.772  -8.429  16.428  0.00  0.00    +0.029 C 
ATOM      9  C   UNL     1      -9.747 -10.864  17.875  0.00  0.00    +0.023 C 
ATOM     11  C   UNL     1     -10.669  -9.850  18.522  0.00  0.00    -0.073 C 
ATOM     12  C   UNL     1     -11.127  -8.776  17.856  0.00  0.00    -0.023 C 
ATOM     18  C   UNL     1     -11.087 -10.124  19.939  0.00  0.00    +0.039 C 
BRANCH   6  10
ATOM     10  C   UNL     1      -9.573  -9.251  14.333  0.00  0.00    -0.013 C 
ATOM     15  C   UNL     1      -8.583 -10.284  13.801  0.00  0.00    +0.007 C 
ATOM     16  C   UNL     1     -10.964  -9.486  13.752  0.00  0.00    +0.007 C 
ENDBRANCH   6  10
BRANCH   8  14
ATOM     14  C   UNL     1     -10.441  -6.936  16.333  0.00  0.00    +0.126 C 
BRANCH  14  23
ATOM      5  N   UNL     1     -12.229  -5.683  14.880  0.00  0.00    -0.197 NA
ATOM     23  C   UNL     1     -11.434  -6.234  15.520  0.00  0.00    +0.063 C 
ENDBRANCH  14  23
ENDBRANCH   8  14
ENDBRANCH  13   9
ENDBRANCH  17  13
TORSDOF 7
ENDMDL
MODEL 3
REMARK VINA RESULT:      -6.4     27.725     32.149
REMARK  Name = 38029949
REMARK  11 active torsions:
REMARK  status: ('A' for Active; 'I' for Inactive)
REMARK    1  A    between atoms: O_2  and  C_25
REMARK    2  A    between atoms: O_2  and  C_30
REMARK    3  A    between atoms: N_4  and  C_24
REMARK    4  A    between atoms: C_6  and  C_10
REMARK    5  A    between atoms: C_8  and  C_14
REMARK    6  A    between atoms: C_9  and  C_13
REMARK    7  A    between atoms: C_10  and  C_15
REMARK    8  A    between atoms: C_10  and  C_16
REMARK    9  A    between atoms: C_11  and  C_18
REMARK   10  A    between atoms: C_13  and  C_17
REMARK   11  A    between atoms: C_14  and  C_23
REMARK                            x       y       z     vdW  Elec       q    Type
REMARK                         _______ _______ _______ _____ _____    ______ ____
ROOT
ATOM      1  O   UNL     1      -3.669 -11.686  18.475  0.00  0.00    -0.276 OA
ATOM      3  N   UNL     1      -5.878 -12.115  17.905  0.00  0.00    -0.298 N 
ATOM      4  N   UNL     1      -8.517 -11.243  18.391  0.00  0.00    -0.324 N 
ATOM     17  C   UNL     1      -4.525 -11.937  17.623  0.00  0.00    +0.216 C 
ATOM     19  C   UNL     1      -6.924 -12.415  16.925  0.00  0.00    +0.126 C 
ATOM     20  C   UNL     1      -6.362 -12.032  19.280  0.00  0.00    +0.126 C 
ATOM     21  C   UNL     1      -8.051 -11.386  17.005  0.00  0.00    +0.124 C 
ATOM     22  C   UNL     1      -7.475 -10.995  19.400  0.00  0.00    +0.124 C 
ENDROOT
BRANCH   4  24
ATOM     24  C   UNL     1      -9.798 -10.736  18.641  0.00  0.00    +0.072 A 
ATOM     25  C   UNL     1     -10.612 -11.314  19.615  0.00  0.00    +0.141 A 
ATOM     26  C   UNL     1     -10.258  -9.645  17.904  0.00  0.00    +0.027 A 
ATOM     27  C   UNL     1     -11.886 -10.798  19.853  0.00  0.00    +0.047 A 
ATOM     28  C   UNL     1     -11.533  -9.130  18.142  0.00  0.00    +0.002 A 
ATOM     29  C   UNL     1     -12.347  -9.707  19.117  0.00  0.00    +0.004 A 
BRANCH  25   2
ATOM      2  O   UNL     1     -10.182 -12.381  20.345  0.00  0.00    -0.493 OA
ATOM     30  C   UNL     1     -11.177 -13.143  21.026  0.00  0.00    +0.277 C 
ENDBRANCH  25   2
ENDBRANCH   4  24
BRANCH  17  13
ATOM     13  C   UNL     1      -4.115 -12.067  16.179  0.00  0.00    +0.103 C 
BRANCH  13   9
ATOM      6  C   UNL     1      -4.811 -10.998  13.225  0.00  0.00    -0.000 C 
ATOM      7  C   UNL     1      -4.988 -10.302  14.582  0.00  0.00    +0.012 C 
ATOM      8  C   UNL     1      -3.445 -10.623  12.598  0.00  0.00    +0.029 C 
ATOM      9  C   UNL     1      -3.875 -10.677  15.579  0.00  0.00    +0.023 C 
ATOM     11  C   UNL     1      -2.500 -10.588  14.947  0.00  0.00    -0.073 C 
ATOM     12  C   UNL     1      -2.329 -10.552  13.614  0.00  0.00    -0.023 C 
ATOM     18  C   UNL     1      -1.330 -10.497  15.885  0.00  0.00    +0.039 C 
BRANCH   6  10
ATOM     10  C   UNL     1      -5.978 -10.638  12.300  0.00  0.00    -0.013 C 
ATOM     15  C   UNL     1      -7.306 -11.027  12.943  0.00  0.00    +0.007 C 
ATOM     16  C   UNL     1      -5.954  -9.148  11.969  0.00  0.00    +0.007 C 
ENDBRANCH   6  10
BRANCH   8  14
ATOM     14  C   UNL     1      -3.059 -11.603  11.484  0.00  0.00    +0.126 C 
BRANCH  14  23
ATOM      5  N   UNL     1      -2.733 -14.018  12.454  0.00  0.00    -0.197 NA
ATOM     23  C   UNL     1      -2.876 -12.952  12.019  0.00  0.00    +0.063 C 
ENDBRANCH  14  23
ENDBRANCH   8  14
ENDBRANCH  13   9
ENDBRANCH  17  13
TORSDOF 7
ENDMDL
MODEL 4
REMARK VINA RESULT:      -6.2     18.397     21.875
REMARK  Name = 38029949
REMARK  11 active torsions:
REMARK  status: ('A' for Active; 'I' for Inactive)
REMARK    1  A    between atoms: O_2  and  C_25
REMARK    2  A    between atoms: O_2  and  C_30
REMARK    3  A    between atoms: N_4  and  C_24
REMARK    4  A    between atoms: C_6  and  C_10
REMARK    5  A    between atoms: C_8  and  C_14
REMARK    6  A    between atoms: C_9  and  C_13
REMARK    7  A    between atoms: C_10  and  C_15
REMARK    8  A    between atoms: C_10  and  C_16
REMARK    9  A    between atoms: C_11  and  C_18
REMARK   10  A    between atoms: C_13  and  C_17
REMARK   11  A    between atoms: C_14  and  C_23
REMARK                            x       y       z     vdW  Elec       q    Type
REMARK                         _______ _______ _______ _____ _____    ______ ____
ROOT
ATOM      1  O   UNL     1       8.651   8.217   0.684  0.00  0.00    -0.276 OA
ATOM      3  N   UNL     1       9.954   7.669   2.524  0.00  0.00    -0.298 N 
ATOM      4  N   UNL     1       9.785   6.698   5.169  0.00  0.00    -0.324 N 
ATOM     17  C   UNL     1       9.650   7.677   1.165  0.00  0.00    +0.216 C 
ATOM     19  C   UNL     1      11.129   7.041   3.134  0.00  0.00    +0.126 C 
ATOM     20  C   UNL     1       9.082   8.345   3.480  0.00  0.00    +0.126 C 
ATOM     21  C   UNL     1      10.709   6.056   4.225  0.00  0.00    +0.124 C 
ATOM     22  C   UNL     1       8.626   7.382   4.572  0.00  0.00    +0.124 C 
ENDROOT
BRANCH   4  24
ATOM     24  C   UNL     1       9.638   6.174   6.458  0.00  0.00    +0.072 A 
ATOM     25  C   UNL     1       9.245   6.993   7.516  0.00  0.00    +0.141 A 
ATOM     26  C   UNL     1       9.889   4.820   6.679  0.00  0.00    +0.027 A 
ATOM     27  C   UNL     1       9.103   6.457   8.796  0.00  0.00    +0.047 A 
ATOM     28  C   UNL     1       9.746   4.284   7.959  0.00  0.00    +0.002 A 
ATOM     29  C   UNL     1       9.353   5.103   9.018  0.00  0.00    +0.004 A 
BRANCH  25   2
ATOM      2  O   UNL     1       8.996   8.318   7.322  0.00  0.00    -0.493 OA
ATOM     30  C   UNL     1       9.968   9.239   7.814  0.00  0.00    +0.277 C 
ENDBRANCH  25   2
ENDBRANCH   4  24
BRANCH  17  13
ATOM     13  C   UNL     1      10.622   6.975   0.252  0.00  0.00    +0.103 C 
BRANCH  13   9
ATOM      6  C   UNL     1      12.395   4.335  -0.237  0.00  0.00    -0.000 C 
ATOM      7  C   UNL     1      11.131   4.518   0.616  0.00  0.00    +0.012 C 
ATOM      8  C   UNL     1      12.020   3.855  -1.661  0.00  0.00    +0.029 C 
ATOM      9  C   UNL     1      10.154   5.537  -0.000  0.00  0.00    +0.023 C 
ATOM     11  C   UNL     1       9.940   5.288  -1.480  0.00  0.00    -0.073 C 
ATOM     12  C   UNL     1      10.777   4.523  -2.202  0.00  0.00    -0.023 C 
ATOM     18  C   UNL     1       8.717   5.902  -2.099  0.00  0.00    +0.039 C 
BRANCH   6  10
ATOM     10  C   UNL     1      13.353   3.362   0.456  0.00  0.00    -0.013 C 
ATOM     15  C   UNL     1      14.741   3.984   0.586  0.00  0.00    +0.007 C 
ATOM     16  C   UNL     1      12.810   2.964   1.825  0.00  0.00    +0.007 C 
ENDBRANCH   6  10
BRANCH   8  14
ATOM     14  C   UNL     1      13.180   4.067  -2.641  0.00  0.00    +0.126 C 
BRANCH  14  23
ATOM      5  N   UNL     1      12.667   2.915  -4.940  0.00  0.00    -0.197 NA
ATOM     23  C   UNL     1      12.900   3.425  -3.924  0.00  0.00    +0.063 C 
ENDBRANCH  14  23
ENDBRANCH   8  14
ENDBRANCH  13   9
ENDBRANCH  17  13
TORSDOF 7
ENDMDL
MODEL 5
REMARK VINA RESULT:      -6.1      2.774      4.186
REMARK  Name = 38029949
REMARK  11 active torsions:
REMARK  status: ('A' for Active; 'I' for Inactive)
REMARK    1  A    between atoms: O_2  and  C_25
REMARK    2  A    between atoms: O_2  and  C_30
REMARK    3  A    between atoms: N_4  and  C_24
REMARK    4  A    between atoms: C_6  and  C_10
REMARK    5  A    between atoms: C_8  and  C_14
REMARK    6  A    between atoms: C_9  and  C_13
REMARK    7  A    between atoms: C_10  and  C_15
REMARK    8  A    between atoms: C_10  and  C_16
REMARK    9  A    between atoms: C_11  and  C_18
REMARK   10  A    between atoms: C_13  and  C_17
REMARK   11  A    between atoms: C_14  and  C_23
REMARK                            x       y       z     vdW  Elec       q    Type
REMARK                         _______ _______ _______ _____ _____    ______ ____
ROOT
ATOM      1  O   UNL     1      16.859   5.608  18.480  0.00  0.00    -0.276 OA
ATOM      3  N   UNL     1      17.681   6.431  20.489  0.00  0.00    -0.298 N 
ATOM      4  N   UNL     1      19.884   7.795  21.606  0.00  0.00    -0.324 N 
ATOM     17  C   UNL     1      16.684   6.214  19.540  0.00  0.00    +0.216 C 
ATOM     19  C   UNL     1      17.515   7.143  21.758  0.00  0.00    +0.126 C 
ATOM     20  C   UNL     1      19.029   5.910  20.275  0.00  0.00    +0.126 C 
ATOM     21  C   UNL     1      18.525   8.284  21.873  0.00  0.00    +0.124 C 
ATOM     22  C   UNL     1      20.062   7.030  20.361  0.00  0.00    +0.124 C 
ENDROOT
BRANCH   4  24
ATOM     24  C   UNL     1      20.985   8.511  22.092  0.00  0.00    +0.072 A 
ATOM     25  C   UNL     1      21.658   8.087  23.236  0.00  0.00    +0.141 A 
ATOM     26  C   UNL     1      21.405   9.659  21.419  0.00  0.00    +0.027 A 
ATOM     27  C   UNL     1      22.753   8.811  23.709  0.00  0.00    +0.047 A 
ATOM     28  C   UNL     1      22.500  10.382  21.892  0.00  0.00    +0.002 A 
ATOM     29  C   UNL     1      23.175   9.958  23.037  0.00  0.00    +0.004 A 
BRANCH  25   2
ATOM      2  O   UNL     1      21.264   6.970  23.908  0.00  0.00    -0.493 OA
ATOM     30  C   UNL     1      22.130   5.838  23.850  0.00  0.00    +0.277 C 
ENDBRANCH  25   2
ENDBRANCH   4  24
BRANCH  17  13
ATOM     13  C   UNL     1      15.319   6.767  19.860  0.00  0.00    +0.103 C 
BRANCH  13   9
ATOM      6  C   UNL     1      13.666   9.294  20.970  0.00  0.00    -0.000 C 
ATOM      7  C   UNL     1      15.060   9.244  20.329  0.00  0.00    +0.012 C 
ATOM      8  C   UNL     1      12.586   9.574  19.896  0.00  0.00    +0.029 C 
ATOM      9  C   UNL     1      15.163   8.160  19.239  0.00  0.00    +0.023 C 
ATOM     11  C   UNL     1      13.983   8.203  18.289  0.00  0.00    -0.073 C 
ATOM     12  C   UNL     1      12.845   8.850  18.594  0.00  0.00    -0.023 C 
ATOM     18  C   UNL     1      14.159   7.521  16.962  0.00  0.00    +0.039 C 
BRANCH   6  10
ATOM     10  C   UNL     1      13.643  10.344  22.085  0.00  0.00    -0.013 C 
ATOM     15  C   UNL     1      14.916  10.257  22.922  0.00  0.00    +0.007 C 
ATOM     16  C   UNL     1      13.479  11.742  21.496  0.00  0.00    +0.007 C 
ENDBRANCH   6  10
BRANCH   8  14
ATOM     14  C   UNL     1      11.187   9.215  20.409  0.00  0.00    +0.126 C 
BRANCH  14  23
ATOM      5  N   UNL     1      11.071   6.685  21.089  0.00  0.00    -0.197 NA
ATOM     23  C   UNL     1      11.122   7.805  20.794  0.00  0.00    +0.063 C 
ENDBRANCH  14  23
ENDBRANCH   8  14
ENDBRANCH  13   9
ENDBRANCH  17  13
TORSDOF 7
ENDMDL
MODEL 6
REMARK VINA RESULT:      -6.1     28.494     31.304
REMARK  Name = 38029949
REMARK  11 active torsions:
REMARK  status: ('A' for Active; 'I' for Inactive)
REMARK    1  A    between atoms: O_2  and  C_25
REMARK    2  A    between atoms: O_2  and  C_30
REMARK    3  A    between atoms: N_4  and  C_24
REMARK    4  A    between atoms: C_6  and  C_10
REMARK    5  A    between atoms: C_8  and  C_14
REMARK    6  A    between atoms: C_9  and  C_13
REMARK    7  A    between atoms: C_10  and  C_15
REMARK    8  A    between atoms: C_10  and  C_16
REMARK    9  A    between atoms: C_11  and  C_18
REMARK   10  A    between atoms: C_13  and  C_17
REMARK   11  A    between atoms: C_14  and  C_23
REMARK                            x       y       z     vdW  Elec       q    Type
REMARK                         _______ _______ _______ _____ _____    ______ ____
ROOT
ATOM      1  O   UNL     1      -1.818 -11.014  16.116  0.00  0.00    -0.276 OA
ATOM      3  N   UNL     1      -3.232 -10.595  14.324  0.00  0.00    -0.298 N 
ATOM      4  N   UNL     1      -3.866 -11.494  11.725  0.00  0.00    -0.324 N 
ATOM     17  C   UNL     1      -2.942 -10.759  15.676  0.00  0.00    +0.216 C 
ATOM     19  C   UNL     1      -4.550 -10.292  13.762  0.00  0.00    +0.126 C 
ATOM     20  C   UNL     1      -2.173 -10.698  13.324  0.00  0.00    +0.126 C 
ATOM     21  C   UNL     1      -4.942 -11.331  12.712  0.00  0.00    +0.124 C 
ATOM     22  C   UNL     1      -2.523 -11.746  12.271  0.00  0.00    +0.124 C 
ENDROOT
BRANCH   4  24
ATOM     24  C   UNL     1      -4.161 -12.014  10.459  0.00  0.00    +0.072 A 
ATOM     25  C   UNL     1      -4.727 -11.204   9.474  0.00  0.00    +0.141 A 
ATOM     26  C   UNL     1      -3.885 -13.353  10.188  0.00  0.00    +0.027 A 
ATOM     27  C   UNL     1      -5.016 -11.736   8.217  0.00  0.00    +0.047 A 
ATOM     28  C   UNL     1      -4.174 -13.885   8.931  0.00  0.00    +0.002 A 
ATOM     29  C   UNL     1      -4.740 -13.076   7.945  0.00  0.00    +0.004 A 
BRANCH  25   2
ATOM      2  O   UNL     1      -5.005  -9.893   9.719  0.00  0.00    -0.493 OA
ATOM     30  C   UNL     1      -4.083  -8.930   9.213  0.00  0.00    +0.277 C 
ENDBRANCH  25   2
ENDBRANCH   4  24
BRANCH  17  13
ATOM     13  C   UNL     1      -4.095 -10.610  16.636  0.00  0.00    +0.103 C 
BRANCH  13   9
ATOM      6  C   UNL     1      -7.125 -11.646  16.942  0.00  0.00    -0.000 C 
ATOM      7  C   UNL     1      -5.906 -12.358  16.338  0.00  0.00    +0.012 C 
ATOM      8  C   UNL     1      -7.278 -12.011  18.440  0.00  0.00    +0.029 C 
ATOM      9  C   UNL     1      -4.598 -11.992  17.065  0.00  0.00    +0.023 C 
ATOM     11  C   UNL     1      -4.749 -12.072  18.571  0.00  0.00    -0.073 C 
ATOM     12  C   UNL     1      -5.955 -12.092  19.166  0.00  0.00    -0.023 C 
ATOM     18  C   UNL     1      -3.483 -12.171  19.374  0.00  0.00    +0.039 C 
BRANCH   6  10
ATOM     10  C   UNL     1      -8.382 -11.998  16.141  0.00  0.00    -0.013 C 
ATOM     15  C   UNL     1      -9.128 -10.729  15.737  0.00  0.00    +0.007 C 
ATOM     16  C   UNL     1      -8.016 -12.824  14.912  0.00  0.00    +0.007 C 
ENDBRANCH   6  10
BRANCH   8  14
ATOM     14  C   UNL     1      -8.196 -11.019  19.162  0.00  0.00    +0.126 C 
BRANCH  14  23
ATOM      5  N   UNL     1     -10.301 -12.234  20.146  0.00  0.00    -0.197 NA
ATOM     23  C   UNL     1      -9.366 -11.701  19.713  0.00  0.00    +0.063 C 
ENDBRANCH  14  23
ENDBRANCH   8  14
ENDBRANCH  13   9
ENDBRANCH  17  13
TORSDOF 7
ENDMDL
MODEL 7
REMARK VINA RESULT:      -6.0     17.557     20.711
REMARK  Name = 38029949
REMARK  11 active torsions:
REMARK  status: ('A' for Active; 'I' for Inactive)
REMARK    1  A    between atoms: O_2  and  C_25
REMARK    2  A    between atoms: O_2  and  C_30
REMARK    3  A    between atoms: N_4  and  C_24
REMARK    4  A    between atoms: C_6  and  C_10
REMARK    5  A    between atoms: C_8  and  C_14
REMARK    6  A    between atoms: C_9  and  C_13
REMARK    7  A    between atoms: C_10  and  C_15
REMARK    8  A    between atoms: C_10  and  C_16
REMARK    9  A    between atoms: C_11  and  C_18
REMARK   10  A    between atoms: C_13  and  C_17
REMARK   11  A    between atoms: C_14  and  C_23
REMARK                            x       y       z     vdW  Elec       q    Type
REMARK                         _______ _______ _______ _____ _____    ______ ____
ROOT
ATOM      1  O   UNL     1      10.059   3.961   5.264  0.00  0.00    -0.276 OA
ATOM      3  N   UNL     1      11.063   4.999   3.448  0.00  0.00    -0.298 N 
ATOM      4  N   UNL     1      10.906   5.223   0.638  0.00  0.00    -0.324 N 
ATOM     17  C   UNL     1      10.541   4.967   4.738  0.00  0.00    +0.216 C 
ATOM     19  C   UNL     1      11.645   6.170   2.788  0.00  0.00    +0.126 C 
ATOM     20  C   UNL     1      11.086   3.789   2.630  0.00  0.00    +0.126 C 
ATOM     21  C   UNL     1      10.946   6.443   1.456  0.00  0.00    +0.124 C 
ATOM     22  C   UNL     1      10.375   4.020   1.300  0.00  0.00    +0.124 C 
ENDROOT
BRANCH   4  24
ATOM     24  C   UNL     1      10.750   5.325  -0.749  0.00  0.00    +0.072 A 
ATOM     25  C   UNL     1      11.854   5.236  -1.596  0.00  0.00    +0.141 A 
ATOM     26  C   UNL     1       9.475   5.517  -1.281  0.00  0.00    +0.027 A 
ATOM     27  C   UNL     1      11.683   5.340  -2.977  0.00  0.00    +0.047 A 
ATOM     28  C   UNL     1       9.304   5.620  -2.662  0.00  0.00    +0.002 A 
ATOM     29  C   UNL     1      10.409   5.532  -3.510  0.00  0.00    +0.004 A 
BRANCH  25   2
ATOM      2  O   UNL     1      13.108   5.049  -1.096  0.00  0.00    -0.493 OA
ATOM     30  C   UNL     1      13.588   3.708  -1.035  0.00  0.00    +0.277 C 
ENDBRANCH  25   2
ENDBRANCH   4  24
BRANCH  17  13
ATOM     13  C   UNL     1      10.584   6.259   5.514  0.00  0.00    +0.103 C 
BRANCH  13   9
ATOM      6  C   UNL     1       9.088   9.083   5.887  0.00  0.00    -0.000 C 
ATOM      7  C   UNL     1       8.522   7.731   5.428  0.00  0.00    +0.012 C 
ATOM      8  C   UNL     1       8.916   9.249   7.417  0.00  0.00    +0.029 C 
ATOM      9  C   UNL     1       9.209   6.543   6.129  0.00  0.00    +0.023 C 
ATOM     11  C   UNL     1       9.317   6.758   7.625  0.00  0.00    -0.073 C 
ATOM     12  C   UNL     1       9.170   7.972   8.184  0.00  0.00    -0.023 C 
ATOM     18  C   UNL     1       9.554   5.537   8.468  0.00  0.00    +0.039 C 
BRANCH   6  10
ATOM     10  C   UNL     1       8.413  10.218   5.113  0.00  0.00    -0.013 C 
ATOM     15  C   UNL     1       9.412  10.890   4.175  0.00  0.00    +0.007 C 
ATOM     16  C   UNL     1       7.211   9.691   4.334  0.00  0.00    +0.007 C 
ENDBRANCH   6  10
BRANCH   8  14
ATOM     14  C   UNL     1       9.824  10.359   7.959  0.00  0.00    +0.126 C 
BRANCH  14  23
ATOM      5  N   UNL     1       8.891  11.289  10.227  0.00  0.00    -0.197 NA
ATOM     23  C   UNL     1       9.307  10.882   9.223  0.00  0.00    +0.063 C 
ENDBRANCH  14  23
ENDBRANCH   8  14
ENDBRANCH  13   9
ENDBRANCH  17  13
TORSDOF 7
ENDMDL
MODEL 8
REMARK VINA RESULT:      -5.9      9.587     13.034
REMARK  Name = 38029949
REMARK  11 active torsions:
REMARK  status: ('A' for Active; 'I' for Inactive)
REMARK    1  A    between atoms: O_2  and  C_25
REMARK    2  A    between atoms: O_2  and  C_30
REMARK    3  A    between atoms: N_4  and  C_24
REMARK    4  A    between atoms: C_6  and  C_10
REMARK    5  A    between atoms: C_8  and  C_14
REMARK    6  A    between atoms: C_9  and  C_13
REMARK    7  A    between atoms: C_10  and  C_15
REMARK    8  A    between atoms: C_10  and  C_16
REMARK    9  A    between atoms: C_11  and  C_18
REMARK   10  A    between atoms: C_13  and  C_17
REMARK   11  A    between atoms: C_14  and  C_23
REMARK                            x       y       z     vdW  Elec       q    Type
REMARK                         _______ _______ _______ _____ _____    ______ ____
ROOT
ATOM      1  O   UNL     1      21.418  -1.642  27.184  0.00  0.00    -0.276 OA
ATOM      3  N   UNL     1      19.959  -2.146  28.916  0.00  0.00    -0.298 N 
ATOM      4  N   UNL     1      18.665  -1.002  31.149  0.00  0.00    -0.324 N 
ATOM     17  C   UNL     1      20.387  -2.181  27.591  0.00  0.00    +0.216 C 
ATOM     19  C   UNL     1      18.743  -2.773  29.440  0.00  0.00    +0.126 C 
ATOM     20  C   UNL     1      20.755  -1.461  29.931  0.00  0.00    +0.126 C 
ATOM     21  C   UNL     1      17.872  -1.744  30.160  0.00  0.00    +0.124 C 
ATOM     22  C   UNL     1      19.919  -0.409  30.655  0.00  0.00    +0.124 C 
ENDROOT
BRANCH   4  24
ATOM     24  C   UNL     1      18.021  -0.365  32.216  0.00  0.00    +0.072 A 
ATOM     25  C   UNL     1      18.016  -0.941  33.486  0.00  0.00    +0.141 A 
ATOM     26  C   UNL     1      17.381   0.855  32.000  0.00  0.00    +0.027 A 
ATOM     27  C   UNL     1      17.369  -0.295  34.541  0.00  0.00    +0.047 A 
ATOM     28  C   UNL     1      16.735   1.500  33.054  0.00  0.00    +0.002 A 
ATOM     29  C   UNL     1      16.729   0.925  34.325  0.00  0.00    +0.004 A 
BRANCH  25   2
ATOM      2  O   UNL     1      18.634  -2.132  33.719  0.00  0.00    -0.493 OA
ATOM     30  C   UNL     1      18.129  -2.926  34.790  0.00  0.00    +0.277 C 
ENDBRANCH  25   2
ENDBRANCH   4  24
BRANCH  17  13
ATOM     13  C   UNL     1      19.513  -2.933  26.621  0.00  0.00    +0.103 C 
BRANCH  13   9
ATOM      6  C   UNL     1      18.032  -3.335  23.793  0.00  0.00    -0.000 C 
ATOM      7  C   UNL     1      19.062  -2.276  24.214  0.00  0.00    +0.012 C 
ATOM      8  C   UNL     1      18.740  -4.545  23.135  0.00  0.00    +0.029 C 
ATOM      9  C   UNL     1      20.098  -2.834  25.208  0.00  0.00    +0.023 C 
ATOM     11  C   UNL     1      20.650  -4.171  24.754  0.00  0.00    -0.073 C 
ATOM     12  C   UNL     1      20.037  -4.915  23.817  0.00  0.00    -0.023 C 
ATOM     18  C   UNL     1      21.948  -4.611  25.371  0.00  0.00    +0.039 C 
BRANCH   6  10
ATOM     10  C   UNL     1      16.994  -2.707  22.858  0.00  0.00    -0.013 C 
ATOM     15  C   UNL     1      15.593  -2.854  23.443  0.00  0.00    +0.007 C 
ATOM     16  C   UNL     1      17.323  -1.238  22.607  0.00  0.00    +0.007 C 
ENDBRANCH   6  10
BRANCH   8  14
ATOM     14  C   UNL     1      17.819  -5.770  23.092  0.00  0.00    +0.126 C 
BRANCH  14  23
ATOM      5  N   UNL     1      17.090  -6.475  25.510  0.00  0.00    -0.197 NA
ATOM     23  C   UNL     1      17.409  -6.158  24.441  0.00  0.00    +0.063 C 
ENDBRANCH  14  23
ENDBRANCH   8  14
ENDBRANCH  13   9
ENDBRANCH  17  13
TORSDOF 7
ENDMDL
MODEL 9
REMARK VINA RESULT:      -5.8     16.671     19.795
REMARK  Name = 38029949
REMARK  11 active torsions:
REMARK  status: ('A' for Active; 'I' for Inactive)
REMARK    1  A    between atoms: O_2  and  C_25
REMARK    2  A    between atoms: O_2  and  C_30
REMARK    3  A    between atoms: N_4  and  C_24
REMARK    4  A    between atoms: C_6  and  C_10
REMARK    5  A    between atoms: C_8  and  C_14
REMARK    6  A    between atoms: C_9  and  C_13
REMARK    7  A    between atoms: C_10  and  C_15
REMARK    8  A    between atoms: C_10  and  C_16
REMARK    9  A    between atoms: C_11  and  C_18
REMARK   10  A    between atoms: C_13  and  C_17
REMARK   11  A    between atoms: C_14  and  C_23
REMARK                            x       y       z     vdW  Elec       q    Type
REMARK                         _______ _______ _______ _____ _____    ______ ____
ROOT
ATOM      1  O   UNL     1       9.185   6.068   7.577  0.00  0.00    -0.276 OA
ATOM      3  N   UNL     1      10.704   6.079   5.822  0.00  0.00    -0.298 N 
ATOM      4  N   UNL     1      10.969   5.395   3.097  0.00  0.00    -0.324 N 
ATOM     17  C   UNL     1      10.058   6.641   6.921  0.00  0.00    +0.216 C 
ATOM     19  C   UNL     1      11.744   6.725   5.018  0.00  0.00    +0.126 C 
ATOM     20  C   UNL     1      10.380   4.722   5.390  0.00  0.00    +0.126 C 
ATOM     21  C   UNL     1      11.354   6.741   3.541  0.00  0.00    +0.124 C 
ATOM     22  C   UNL     1       9.963   4.706   3.922  0.00  0.00    +0.124 C 
ENDROOT
BRANCH   4  24
ATOM     24  C   UNL     1      11.024   5.073   1.735  0.00  0.00    +0.072 A 
ATOM     25  C   UNL     1      12.013   4.220   1.247  0.00  0.00    +0.141 A 
ATOM     26  C   UNL     1      10.077   5.614   0.866  0.00  0.00    +0.027 A 
ATOM     27  C   UNL     1      12.055   3.909  -0.112  0.00  0.00    +0.047 A 
ATOM     28  C   UNL     1      10.119   5.303  -0.493  0.00  0.00    +0.002 A 
ATOM     29  C   UNL     1      11.109   4.450  -0.982  0.00  0.00    +0.004 A 
BRANCH  25   2
ATOM      2  O   UNL     1      12.947   3.682   2.079  0.00  0.00    -0.493 OA
ATOM     30  C   UNL     1      14.265   3.521   1.557  0.00  0.00    +0.277 C 
ENDBRANCH  25   2
ENDBRANCH   4  24
BRANCH  17  13
ATOM     13  C   UNL     1      10.477   8.036   7.307  0.00  0.00    +0.103 C 
BRANCH  13   9
ATOM      6  C   UNL     1       8.997   9.628   4.934  0.00  0.00    -0.000 C 
ATOM      7  C   UNL     1       8.394   8.837   6.104  0.00  0.00    +0.012 C 
ATOM      8  C   UNL     1       9.132  11.125   5.307  0.00  0.00    +0.029 C 
ATOM      9  C   UNL     1       9.246   8.947   7.383  0.00  0.00    +0.023 C 
ATOM     11  C   UNL     1       9.647  10.380   7.671  0.00  0.00    -0.073 C 
ATOM     12  C   UNL     1       9.577  11.342   6.735  0.00  0.00    -0.023 C 
ATOM     18  C   UNL     1      10.088  10.689   9.074  0.00  0.00    +0.039 C 
BRANCH   6  10
ATOM     10  C   UNL     1       8.143   9.430   3.678  0.00  0.00    -0.013 C 
ATOM     15  C   UNL     1       8.207   7.977   3.216  0.00  0.00    +0.007 C 
ATOM     16  C   UNL     1       6.700   9.849   3.944  0.00  0.00    +0.007 C 
ENDBRANCH   6  10
BRANCH   8  14
ATOM     14  C   UNL     1      10.096  11.847   4.358  0.00  0.00    +0.126 C 
BRANCH  14  23
ATOM      5  N   UNL     1      12.430  10.652   4.324  0.00  0.00    -0.197 NA
ATOM     23  C   UNL     1      11.397  11.180   4.333  0.00  0.00    +0.063 C 
ENDBRANCH  14  23
ENDBRANCH   8  14
ENDBRANCH  13   9
ENDBRANCH  17  13
TORSDOF 7
ENDMDL
MODEL 10
REMARK VINA RESULT:      -5.8     27.731     31.703
REMARK  Name = 38029949
REMARK  11 active torsions:
REMARK  status: ('A' for Active; 'I' for Inactive)
REMARK    1  A    between atoms: O_2  and  C_25
REMARK    2  A    between atoms: O_2  and  C_30
REMARK    3  A    between atoms: N_4  and  C_24
REMARK    4  A    between atoms: C_6  and  C_10
REMARK    5  A    between atoms: C_8  and  C_14
REMARK    6  A    between atoms: C_9  and  C_13
REMARK    7  A    between atoms: C_10  and  C_15
REMARK    8  A    between atoms: C_10  and  C_16
REMARK    9  A    between atoms: C_11  and  C_18
REMARK   10  A    between atoms: C_13  and  C_17
REMARK   11  A    between atoms: C_14  and  C_23
REMARK                            x       y       z     vdW  Elec       q    Type
REMARK                         _______ _______ _______ _____ _____    ______ ____
ROOT
ATOM      1  O   UNL     1      -2.257 -10.968  12.589  0.00  0.00    -0.276 OA
ATOM      3  N   UNL     1      -4.008  -9.834  11.573  0.00  0.00    -0.298 N 
ATOM      4  N   UNL     1      -5.421  -9.633   9.138  0.00  0.00    -0.324 N 
ATOM     17  C   UNL     1      -3.405 -10.520  12.625  0.00  0.00    +0.216 C 
ATOM     19  C   UNL     1      -5.366  -9.286  11.575  0.00  0.00    +0.126 C 
ATOM     20  C   UNL     1      -3.271  -9.585  10.336  0.00  0.00    +0.126 C 
ATOM     21  C   UNL     1      -6.167  -9.822  10.389  0.00  0.00    +0.124 C 
ATOM     22  C   UNL     1      -4.035 -10.129   9.132  0.00  0.00    +0.124 C 
ENDROOT
BRANCH   4  24
ATOM     24  C   UNL     1      -6.108  -9.610   7.919  0.00  0.00    +0.072 A 
ATOM     25  C   UNL     1      -7.075  -8.638   7.667  0.00  0.00    +0.141 A 
ATOM     26  C   UNL     1      -5.818 -10.573   6.952  0.00  0.00    +0.027 A 
ATOM     27  C   UNL     1      -7.752  -8.628   6.448  0.00  0.00    +0.047 A 
ATOM     28  C   UNL     1      -6.495 -10.563   5.732  0.00  0.00    +0.002 A 
ATOM     29  C   UNL     1      -7.463  -9.590   5.480  0.00  0.00    +0.004 A 
BRANCH  25   2
ATOM      2  O   UNL     1      -7.374  -7.689   8.598  0.00  0.00    -0.493 OA
ATOM     30  C   UNL     1      -8.752  -7.373   8.782  0.00  0.00    +0.277 C 
ENDBRANCH  25   2
ENDBRANCH   4  24
BRANCH  17  13
ATOM     13  C   UNL     1      -4.234 -10.707  13.869  0.00  0.00    +0.103 C 
BRANCH  13   9
ATOM      6  C   UNL     1      -5.549 -12.459  16.226  0.00  0.00    -0.000 C 
ATOM      7  C   UNL     1      -4.535 -12.874  15.150  0.00  0.00    +0.012 C 
ATOM      8  C   UNL     1      -4.816 -12.015  17.517  0.00  0.00    +0.029 C 
ATOM      9  C   UNL     1      -3.565 -11.733  14.791  0.00  0.00    +0.023 C 
ATOM     11  C   UNL     1      -3.001 -11.064  16.029  0.00  0.00    -0.073 C 
ATOM     12  C   UNL     1      -3.566 -11.212  17.240  0.00  0.00    -0.023 C 
ATOM     18  C   UNL     1      -1.747 -10.256  15.849  0.00  0.00    +0.039 C 
BRANCH   6  10
ATOM     10  C   UNL     1      -6.523 -13.610  16.494  0.00  0.00    -0.013 C 
ATOM     15  C   UNL     1      -7.669 -13.582  15.487  0.00  0.00    +0.007 C 
ATOM     16  C   UNL     1      -5.793 -14.948  16.444  0.00  0.00    +0.007 C 
ENDBRANCH   6  10
BRANCH   8  14
ATOM     14  C   UNL     1      -5.746 -11.211  18.433  0.00  0.00    +0.126 C 
BRANCH  14  23
ATOM      5  N   UNL     1      -7.074  -9.405  17.073  0.00  0.00    -0.197 NA
ATOM     23  C   UNL     1      -6.482 -10.204  17.671  0.00  0.00    +0.063 C 
ENDBRANCH  14  23
ENDBRANCH   8  14
ENDBRANCH  13   9
ENDBRANCH  17  13
TORSDOF 7
ENDMDL
