MODEL 1
REMARK VINA RESULT:      -6.6      0.000      0.000
REMARK  Name = 11883068
REMARK  9 active torsions:
REMARK  status: ('A' for Active; 'I' for Inactive)
REMARK    1  A    between atoms: O_2  and  C_15
REMARK    2  A    between atoms: O_3  and  C_20
REMARK    3  A    between atoms: N_8  and  C_26
REMARK    4  A    between atoms: C_10  and  C_18
REMARK    5  A    between atoms: C_12  and  C_20
REMARK    6  A    between atoms: C_12  and  C_21
REMARK    7  A    between atoms: C_13  and  C_23
REMARK    8  A    between atoms: C_23  and  C_24
REMARK    9  A    between atoms: C_31  and  C_32
REMARK                            x       y       z     vdW  Elec       q    Type
REMARK                         _______ _______ _______ _____ _____    ______ ____
ROOT
ATOM      1  S   UNL     1      14.973   8.079   6.440  0.00  0.00    -0.057 S 
ATOM      5  O   UNL     1      12.135   6.399   3.200  0.00  0.00    -0.266 OA
ATOM      7  N   UNL     1      14.778   7.373   3.958  0.00  0.00    -0.229 NA
ATOM      9  N   UNL     1      12.796   7.148   5.311  0.00  0.00    -0.258 N 
ATOM     10  C   UNL     1      18.355   8.714   3.431  0.00  0.00    -0.019 C 
ATOM     11  C   UNL     1      18.790   8.364   4.922  0.00  0.00    +0.011 C 
ATOM     12  C   UNL     1      20.231   8.822   5.373  0.00  0.00    +0.021 C 
ATOM     13  C   UNL     1      17.096   7.803   3.058  0.00  0.00    +0.054 C 
ATOM     14  C   UNL     1      19.513   8.366   2.461  0.00  0.00    +0.010 C 
ATOM     15  C   UNL     1      21.259   8.438   4.271  0.00  0.00    +0.123 C 
ATOM     16  C   UNL     1      17.671   8.725   5.941  0.00  0.00    +0.049 C 
ATOM     17  C   UNL     1      20.863   8.930   2.883  0.00  0.00    +0.032 C 
ATOM     18  C   UNL     1      17.984  10.206   3.247  0.00  0.00    +0.012 C 
ATOM     19  C   UNL     1      16.071   7.817   4.165  0.00  0.00    +0.058 A 
ATOM     21  C   UNL     1      20.627   8.049   6.664  0.00  0.00    +0.016 C 
ATOM     22  C   UNL     1      16.356   8.217   5.454  0.00  0.00    +0.015 A 
ATOM     25  C   UNL     1      14.108   7.473   5.085  0.00  0.00    +0.165 A 
ATOM     31  C   UNL     1      11.871   6.631   4.377  0.00  0.00    +0.285 C 
ATOM     39  H   UNL     1      12.472   7.310   6.262  0.00  0.00    +0.157 HD
ENDROOT
BRANCH  31  32
ATOM      6  O   UNL     1      10.380   5.962   6.171  0.00  0.00    -0.458 OA
ATOM     32  C   UNL     1      10.509   6.421   4.899  0.00  0.00    +0.189 A 
ATOM     33  C   UNL     1       9.273   6.606   4.324  0.00  0.00    +0.054 A 
ATOM     34  C   UNL     1       8.323   6.237   5.307  0.00  0.00    +0.042 A 
ATOM     35  C   UNL     1       9.047   5.853   6.412  0.00  0.00    +0.196 A 
ENDBRANCH  31  32
BRANCH  15   2
ATOM      2  O   UNL     1      22.552   8.952   4.588  0.00  0.00    -0.391 OA
ATOM     36  H   UNL     1      23.200   8.482   4.036  0.00  0.00    +0.210 HD
ENDBRANCH  15   2
BRANCH  12  20
ATOM     20  C   UNL     1      20.344  10.318   5.735  0.00  0.00    +0.165 C 
BRANCH  20   3
ATOM      3  O   UNL     1      21.214  10.433   6.838  0.00  0.00    -0.394 OA
ATOM     37  H   UNL     1      20.668  10.614   7.621  0.00  0.00    +0.209 HD
ENDBRANCH  20   3
ENDBRANCH  12  20
BRANCH  13  23
ATOM     23  C   UNL     1      16.458   8.121   1.699  0.00  0.00    +0.106 C 
BRANCH  23  24
ATOM      4  O   UNL     1      17.242   6.909  -0.242  0.00  0.00    -0.276 OA
ATOM      8  N   UNL     1      15.671   5.931   1.163  0.00  0.00    -0.312 N 
ATOM     24  C   UNL     1      16.524   6.944   0.753  0.00  0.00    +0.214 C 
ATOM     38  H   UNL     1      15.157   6.045   2.033  0.00  0.00    +0.149 HD
BRANCH   8  26
ATOM     26  C   UNL     1      15.525   4.687   0.448  0.00  0.00    +0.073 C 
ATOM     27  C   UNL     1      14.342   4.725  -0.511  0.00  0.00    +0.022 C 
ATOM     28  C   UNL     1      15.168   3.534   1.379  0.00  0.00    +0.022 C 
ATOM     29  C   UNL     1      13.128   4.425   0.365  0.00  0.00    +0.002 C 
ATOM     30  C   UNL     1      13.654   3.624   1.557  0.00  0.00    +0.002 C 
ENDBRANCH   8  26
ENDBRANCH  23  24
ENDBRANCH  13  23
TORSDOF 7
ENDMDL
MODEL 2
REMARK VINA RESULT:      -6.4     30.930     35.517
REMARK  Name = 11883068
REMARK  9 active torsions:
REMARK  status: ('A' for Active; 'I' for Inactive)
REMARK    1  A    between atoms: O_2  and  C_15
REMARK    2  A    between atoms: O_3  and  C_20
REMARK    3  A    between atoms: N_8  and  C_26
REMARK    4  A    between atoms: C_10  and  C_18
REMARK    5  A    between atoms: C_12  and  C_20
REMARK    6  A    between atoms: C_12  and  C_21
REMARK    7  A    between atoms: C_13  and  C_23
REMARK    8  A    between atoms: C_23  and  C_24
REMARK    9  A    between atoms: C_31  and  C_32
REMARK                            x       y       z     vdW  Elec       q    Type
REMARK                         _______ _______ _______ _____ _____    ______ ____
ROOT
ATOM      1  S   UNL     1     -12.777   5.044  22.373  0.00  0.00    -0.057 S 
ATOM      5  O   UNL     1     -17.112   4.757  23.953  0.00  0.00    -0.266 OA
ATOM      7  N   UNL     1     -15.145   6.080  22.254  0.00  0.00    -0.229 NA
ATOM      9  N   UNL     1     -14.857   4.192  23.724  0.00  0.00    -0.258 N 
ATOM     10  C   UNL     1     -13.671   8.867  20.032  0.00  0.00    -0.019 C 
ATOM     11  C   UNL     1     -12.569   7.898  19.413  0.00  0.00    +0.011 C 
ATOM     12  C   UNL     1     -11.508   8.550  18.444  0.00  0.00    +0.021 C 
ATOM     13  C   UNL     1     -14.862   7.961  20.597  0.00  0.00    +0.054 C 
ATOM     14  C   UNL     1     -14.240   9.781  18.917  0.00  0.00    +0.010 C 
ATOM     15  C   UNL     1     -12.240   9.467  17.424  0.00  0.00    +0.123 C 
ATOM     16  C   UNL     1     -11.944   6.979  20.501  0.00  0.00    +0.049 C 
ATOM     17  C   UNL     1     -13.172  10.476  18.084  0.00  0.00    +0.032 C 
ATOM     18  C   UNL     1     -13.117   9.757  21.171  0.00  0.00    +0.012 C 
ATOM     19  C   UNL     1     -14.327   6.811  21.411  0.00  0.00    +0.058 A 
ATOM     21  C   UNL     1     -10.805   7.424  17.633  0.00  0.00    +0.016 C 
ATOM     22  C   UNL     1     -13.020   6.375  21.339  0.00  0.00    +0.015 A 
ATOM     25  C   UNL     1     -14.433   5.129  22.819  0.00  0.00    +0.165 A 
ATOM     31  C   UNL     1     -16.159   4.040  24.250  0.00  0.00    +0.285 C 
ATOM     39  H   UNL     1     -14.137   3.547  24.042  0.00  0.00    +0.157 HD
ENDROOT
BRANCH  31  32
ATOM      6  O   UNL     1     -16.466   1.695  24.794  0.00  0.00    -0.458 OA
ATOM     32  C   UNL     1     -16.308   2.965  25.248  0.00  0.00    +0.189 A 
ATOM     33  C   UNL     1     -16.320   2.992  26.624  0.00  0.00    +0.054 A 
ATOM     34  C   UNL     1     -16.496   1.651  27.041  0.00  0.00    +0.042 A 
ATOM     35  C   UNL     1     -16.580   0.901  25.891  0.00  0.00    +0.196 A 
ENDBRANCH  31  32
BRANCH  15   2
ATOM      2  O   UNL     1     -11.299  10.171  16.615  0.00  0.00    -0.391 OA
ATOM     36  H   UNL     1     -10.433   9.745  16.731  0.00  0.00    +0.210 HD
ENDBRANCH  15   2
BRANCH  12  20
ATOM     20  C   UNL     1     -10.374   9.316  19.158  0.00  0.00    +0.165 C 
BRANCH  20   3
ATOM      3  O   UNL     1      -9.288   9.414  18.265  0.00  0.00    -0.394 OA
ATOM     37  H   UNL     1      -8.821  10.243  18.464  0.00  0.00    +0.209 HD
ENDBRANCH  20   3
ENDBRANCH  12  20
BRANCH  13  23
ATOM     23  C   UNL     1     -15.944   8.735  21.362  0.00  0.00    +0.106 C 
BRANCH  23  24
ATOM      4  O   UNL     1     -18.334   9.047  21.162  0.00  0.00    -0.276 OA
ATOM      8  N   UNL     1     -17.317   7.260  20.081  0.00  0.00    -0.312 N 
ATOM     24  C   UNL     1     -17.334   8.394  20.877  0.00  0.00    +0.214 C 
ATOM     38  H   UNL     1     -16.423   6.824  19.868  0.00  0.00    +0.149 HD
BRANCH   8  26
ATOM     26  C   UNL     1     -18.504   6.700  19.481  0.00  0.00    +0.073 C 
ATOM     27  C   UNL     1     -18.813   5.314  20.034  0.00  0.00    +0.022 C 
ATOM     28  C   UNL     1     -18.318   6.435  17.992  0.00  0.00    +0.022 C 
ATOM     29  C   UNL     1     -17.906   4.374  19.244  0.00  0.00    +0.002 C 
ATOM     30  C   UNL     1     -17.622   5.077  17.916  0.00  0.00    +0.002 C 
ENDBRANCH   8  26
ENDBRANCH  23  24
ENDBRANCH  13  23
TORSDOF 7
ENDMDL
MODEL 3
REMARK VINA RESULT:      -6.2     16.049     19.615
REMARK  Name = 11883068
REMARK  9 active torsions:
REMARK  status: ('A' for Active; 'I' for Inactive)
REMARK    1  A    between atoms: O_2  and  C_15
REMARK    2  A    between atoms: O_3  and  C_20
REMARK    3  A    between atoms: N_8  and  C_26
REMARK    4  A    between atoms: C_10  and  C_18
REMARK    5  A    between atoms: C_12  and  C_20
REMARK    6  A    between atoms: C_12  and  C_21
REMARK    7  A    between atoms: C_13  and  C_23
REMARK    8  A    between atoms: C_23  and  C_24
REMARK    9  A    between atoms: C_31  and  C_32
REMARK                            x       y       z     vdW  Elec       q    Type
REMARK                         _______ _______ _______ _____ _____    ______ ____
ROOT
ATOM      1  S   UNL     1      17.623   5.940  19.640  0.00  0.00    -0.057 S 
ATOM      5  O   UNL     1      21.253   8.150  21.459  0.00  0.00    -0.266 OA
ATOM      7  N   UNL     1      18.394   8.073  20.884  0.00  0.00    -0.229 NA
ATOM      9  N   UNL     1      20.093   6.446  20.360  0.00  0.00    -0.258 N 
ATOM     10  C   UNL     1      14.816   9.451  20.470  0.00  0.00    -0.019 C 
ATOM     11  C   UNL     1      14.167   7.998  20.520  0.00  0.00    +0.011 C 
ATOM     12  C   UNL     1      12.613   7.900  20.266  0.00  0.00    +0.021 C 
ATOM     13  C   UNL     1      16.251   9.374  21.170  0.00  0.00    +0.054 C 
ATOM     14  C   UNL     1      13.933  10.439  21.274  0.00  0.00    +0.010 C 
ATOM     15  C   UNL     1      11.886   8.985  21.111  0.00  0.00    +0.123 C 
ATOM     16  C   UNL     1      15.002   6.973  19.699  0.00  0.00    +0.049 C 
ATOM     17  C   UNL     1      12.456  10.385  20.910  0.00  0.00    +0.032 C 
ATOM     18  C   UNL     1      14.976   9.989  19.026  0.00  0.00    +0.012 C 
ATOM     19  C   UNL     1      17.032   8.183  20.674  0.00  0.00    +0.058 A 
ATOM     21  C   UNL     1      12.106   6.514  20.759  0.00  0.00    +0.016 C 
ATOM     22  C   UNL     1      16.448   7.109  20.033  0.00  0.00    +0.015 A 
ATOM     25  C   UNL     1      18.814   6.936  20.374  0.00  0.00    +0.165 A 
ATOM     31  C   UNL     1      21.249   7.060  20.893  0.00  0.00    +0.285 C 
ATOM     39  H   UNL     1      20.202   5.543  19.905  0.00  0.00    +0.157 HD
ENDROOT
BRANCH  31  32
ATOM      6  O   UNL     1      22.414   4.990  20.393  0.00  0.00    -0.458 OA
ATOM     32  C   UNL     1      22.503   6.313  20.687  0.00  0.00    +0.189 A 
ATOM     33  C   UNL     1      23.820   6.710  20.735  0.00  0.00    +0.054 A 
ATOM     34  C   UNL     1      24.589   5.556  20.453  0.00  0.00    +0.042 A 
ATOM     35  C   UNL     1      23.687   4.536  20.252  0.00  0.00    +0.196 A 
ENDBRANCH  31  32
BRANCH  15   2
ATOM      2  O   UNL     1      10.492   9.009  20.808  0.00  0.00    -0.391 OA
ATOM     36  H   UNL     1      10.054   9.560  21.478  0.00  0.00    +0.210 HD
ENDBRANCH  15   2
BRANCH  12  20
ATOM     20  C   UNL     1      12.198   7.989  18.782  0.00  0.00    +0.165 C 
BRANCH  20   3
ATOM      3  O   UNL     1      12.017   6.676  18.303  0.00  0.00    -0.394 OA
ATOM     37  H   UNL     1      12.332   6.069  18.993  0.00  0.00    +0.209 HD
ENDBRANCH  20   3
ENDBRANCH  12  20
BRANCH  13  23
ATOM     23  C   UNL     1      17.077  10.664  21.076  0.00  0.00    +0.106 C 
BRANCH  23  24
ATOM      4  O   UNL     1      16.721  11.847  23.156  0.00  0.00    -0.276 OA
ATOM      8  N   UNL     1      18.767  10.821  22.755  0.00  0.00    -0.312 N 
ATOM     24  C   UNL     1      17.468  11.187  22.439  0.00  0.00    +0.214 C 
ATOM     38  H   UNL     1      19.281  10.230  22.108  0.00  0.00    +0.149 HD
BRANCH   8  26
ATOM     26  C   UNL     1      19.408  11.185  23.996  0.00  0.00    +0.073 C 
ATOM     27  C   UNL     1      19.996  12.589  23.934  0.00  0.00    +0.022 C 
ATOM     28  C   UNL     1      20.630  10.320  24.280  0.00  0.00    +0.022 C 
ATOM     29  C   UNL     1      21.340  12.412  23.230  0.00  0.00    +0.002 C 
ATOM     30  C   UNL     1      21.765  10.966  23.489  0.00  0.00    +0.002 C 
ENDBRANCH   8  26
ENDBRANCH  23  24
ENDBRANCH  13  23
TORSDOF 7
ENDMDL
MODEL 4
REMARK VINA RESULT:      -6.2     27.375     31.548
REMARK  Name = 11883068
REMARK  9 active torsions:
REMARK  status: ('A' for Active; 'I' for Inactive)
REMARK    1  A    between atoms: O_2  and  C_15
REMARK    2  A    between atoms: O_3  and  C_20
REMARK    3  A    between atoms: N_8  and  C_26
REMARK    4  A    between atoms: C_10  and  C_18
REMARK    5  A    between atoms: C_12  and  C_20
REMARK    6  A    between atoms: C_12  and  C_21
REMARK    7  A    between atoms: C_13  and  C_23
REMARK    8  A    between atoms: C_23  and  C_24
REMARK    9  A    between atoms: C_31  and  C_32
REMARK                            x       y       z     vdW  Elec       q    Type
REMARK                         _______ _______ _______ _____ _____    ______ ____
ROOT
ATOM      1  S   UNL     1      -9.719 -10.193  13.447  0.00  0.00    -0.057 S 
ATOM      5  O   UNL     1      -6.080  -9.075  10.824  0.00  0.00    -0.266 OA
ATOM      7  N   UNL     1      -7.136 -10.059  13.359  0.00  0.00    -0.229 NA
ATOM      9  N   UNL     1      -8.329  -9.368  11.382  0.00  0.00    -0.258 N 
ATOM     10  C   UNL     1      -7.089 -11.019  17.094  0.00  0.00    -0.019 C 
ATOM     11  C   UNL     1      -8.418 -11.886  16.968  0.00  0.00    +0.011 C 
ATOM     12  C   UNL     1      -9.009 -12.488  18.302  0.00  0.00    +0.021 C 
ATOM     13  C   UNL     1      -6.443 -10.893  15.637  0.00  0.00    +0.054 C 
ATOM     14  C   UNL     1      -6.080 -11.751  18.014  0.00  0.00    +0.010 C 
ATOM     15  C   UNL     1      -7.860 -13.141  19.122  0.00  0.00    +0.123 C 
ATOM     16  C   UNL     1      -9.479 -11.177  16.077  0.00  0.00    +0.049 C 
ATOM     17  C   UNL     1      -6.672 -12.211  19.339  0.00  0.00    +0.032 C 
ATOM     18  C   UNL     1      -7.347  -9.603  17.667  0.00  0.00    +0.012 C 
ATOM     19  C   UNL     1      -7.487 -10.527  14.612  0.00  0.00    +0.058 A 
ATOM     21  C   UNL     1     -10.021 -13.613  17.945  0.00  0.00    +0.016 C 
ATOM     22  C   UNL     1      -8.842 -10.680  14.824  0.00  0.00    +0.015 A 
ATOM     25  C   UNL     1      -8.231  -9.842  12.664  0.00  0.00    +0.165 A 
ATOM     31  C   UNL     1      -7.268  -9.008  10.521  0.00  0.00    +0.285 C 
ATOM     39  H   UNL     1      -9.279  -9.267  11.033  0.00  0.00    +0.157 HD
ENDROOT
BRANCH  31  32
ATOM      6  O   UNL     1      -8.704  -7.588   9.174  0.00  0.00    -0.458 OA
ATOM     32  C   UNL     1      -7.682  -8.483   9.207  0.00  0.00    +0.189 A 
ATOM     33  C   UNL     1      -7.215  -8.731   7.937  0.00  0.00    +0.054 A 
ATOM     34  C   UNL     1      -8.001  -7.938   7.067  0.00  0.00    +0.042 A 
ATOM     35  C   UNL     1      -8.892  -7.261   7.868  0.00  0.00    +0.196 A 
ENDBRANCH  31  32
BRANCH  15   2
ATOM      2  O   UNL     1      -8.337 -13.581  20.392  0.00  0.00    -0.391 OA
ATOM     36  H   UNL     1      -7.792 -13.155  21.076  0.00  0.00    +0.210 HD
ENDBRANCH  15   2
BRANCH  12  20
ATOM     20  C   UNL     1      -9.797 -11.480  19.166  0.00  0.00    +0.165 C 
BRANCH  20   3
ATOM      3  O   UNL     1     -10.851 -12.176  19.790  0.00  0.00    -0.394 OA
ATOM     37  H   UNL     1     -10.908 -13.052  19.373  0.00  0.00    +0.209 HD
ENDBRANCH  20   3
ENDBRANCH  12  20
BRANCH  13  23
ATOM     23  C   UNL     1      -5.227  -9.960  15.557  0.00  0.00    +0.106 C 
BRANCH  23  24
ATOM      4  O   UNL     1      -3.196 -11.224  15.913  0.00  0.00    -0.276 OA
ATOM      8  N   UNL     1      -3.843 -10.679  13.749  0.00  0.00    -0.312 N 
ATOM     24  C   UNL     1      -3.978 -10.693  15.129  0.00  0.00    +0.214 C 
ATOM     38  H   UNL     1      -4.576 -10.252  13.190  0.00  0.00    +0.149 HD
BRANCH   8  26
ATOM     26  C   UNL     1      -2.739 -11.302  13.059  0.00  0.00    +0.073 C 
ATOM     27  C   UNL     1      -1.883 -10.276  12.327  0.00  0.00    +0.022 C 
ATOM     28  C   UNL     1      -3.214 -12.212  11.932  0.00  0.00    +0.022 C 
ATOM     29  C   UNL     1      -2.626 -10.020  11.018  0.00  0.00    +0.002 C 
ATOM     30  C   UNL     1      -3.448 -11.280  10.745  0.00  0.00    +0.002 C 
ENDBRANCH   8  26
ENDBRANCH  23  24
ENDBRANCH  13  23
TORSDOF 7
ENDMDL
MODEL 5
REMARK VINA RESULT:      -6.0     27.066     29.896
REMARK  Name = 11883068
REMARK  9 active torsions:
REMARK  status: ('A' for Active; 'I' for Inactive)
REMARK    1  A    between atoms: O_2  and  C_15
REMARK    2  A    between atoms: O_3  and  C_20
REMARK    3  A    between atoms: N_8  and  C_26
REMARK    4  A    between atoms: C_10  and  C_18
REMARK    5  A    between atoms: C_12  and  C_20
REMARK    6  A    between atoms: C_12  and  C_21
REMARK    7  A    between atoms: C_13  and  C_23
REMARK    8  A    between atoms: C_23  and  C_24
REMARK    9  A    between atoms: C_31  and  C_32
REMARK                            x       y       z     vdW  Elec       q    Type
REMARK                         _______ _______ _______ _____ _____    ______ ____
ROOT
ATOM      1  S   UNL     1      -4.049  -9.555   9.799  0.00  0.00    -0.057 S 
ATOM      5  O   UNL     1      -8.524  -8.711   9.005  0.00  0.00    -0.266 OA
ATOM      7  N   UNL     1      -6.415  -9.530  10.846  0.00  0.00    -0.229 NA
ATOM      9  N   UNL     1      -6.245  -8.891   8.529  0.00  0.00    -0.258 N 
ATOM     10  C   UNL     1      -4.881 -11.075  14.029  0.00  0.00    -0.019 C 
ATOM     11  C   UNL     1      -3.480 -10.354  13.799  0.00  0.00    +0.011 C 
ATOM     12  C   UNL     1      -2.314 -10.720  14.796  0.00  0.00    +0.021 C 
ATOM     13  C   UNL     1      -5.995 -10.257  13.225  0.00  0.00    +0.054 C 
ATOM     14  C   UNL     1      -5.239 -11.035  15.537  0.00  0.00    +0.010 C 
ATOM     15  C   UNL     1      -2.855 -10.677  16.254  0.00  0.00    +0.123 C 
ATOM     16  C   UNL     1      -3.060 -10.395  12.301  0.00  0.00    +0.049 C 
ATOM     17  C   UNL     1      -4.118 -11.508  16.451  0.00  0.00    +0.032 C 
ATOM     18  C   UNL     1      -4.884 -12.550  13.557  0.00  0.00    +0.012 C 
ATOM     19  C   UNL     1      -5.531  -9.944  11.825  0.00  0.00    +0.058 A 
ATOM     21  C   UNL     1      -1.197  -9.645  14.686  0.00  0.00    +0.016 C 
ATOM     22  C   UNL     1      -4.207  -9.994  11.438  0.00  0.00    +0.015 A 
ATOM     25  C   UNL     1      -5.747  -9.305   9.736  0.00  0.00    +0.165 A 
ATOM     31  C   UNL     1      -7.593  -8.613   8.211  0.00  0.00    +0.285 C 
ATOM     39  H   UNL     1      -5.551  -8.783   7.793  0.00  0.00    +0.157 HD
ENDROOT
BRANCH  31  32
ATOM      6  O   UNL     1      -7.033  -8.766   5.854  0.00  0.00    -0.458 OA
ATOM     32  C   UNL     1      -7.837  -8.228   6.808  0.00  0.00    +0.189 A 
ATOM     33  C   UNL     1      -8.765  -7.386   6.241  0.00  0.00    +0.054 A 
ATOM     34  C   UNL     1      -8.517  -7.409   4.847  0.00  0.00    +0.042 A 
ATOM     35  C   UNL     1      -7.454  -8.263   4.663  0.00  0.00    +0.196 A 
ENDBRANCH  31  32
BRANCH  15   2
ATOM      2  O   UNL     1      -1.861 -11.128  17.173  0.00  0.00    -0.391 OA
ATOM     36  H   UNL     1      -2.162 -11.976  17.540  0.00  0.00    +0.210 HD
ENDBRANCH  15   2
BRANCH  12  20
ATOM     20  C   UNL     1      -1.622 -12.069  14.506  0.00  0.00    +0.165 C 
BRANCH  20   3
ATOM      3  O   UNL     1      -0.359 -12.050  15.131  0.00  0.00    -0.394 OA
ATOM     37  H   UNL     1      -0.112 -12.972  15.315  0.00  0.00    +0.209 HD
ENDBRANCH  20   3
ENDBRANCH  12  20
BRANCH  13  23
ATOM     23  C   UNL     1      -7.385 -10.906  13.224  0.00  0.00    +0.106 C 
BRANCH  23  24
ATOM      4  O   UNL     1      -8.999  -9.237  13.905  0.00  0.00    -0.276 OA
ATOM      8  N   UNL     1      -8.327 -10.868  15.418  0.00  0.00    -0.312 N 
ATOM     24  C   UNL     1      -8.329 -10.226  14.189  0.00  0.00    +0.214 C 
ATOM     38  H   UNL     1      -7.770 -11.711  15.530  0.00  0.00    +0.149 HD
BRANCH   8  26
ATOM     26  C   UNL     1      -9.133 -10.435  16.534  0.00  0.00    +0.073 C 
ATOM     27  C   UNL     1      -8.464  -9.305  17.305  0.00  0.00    +0.022 C 
ATOM     28  C   UNL     1      -9.276 -11.525  17.589  0.00  0.00    +0.022 C 
ATOM     29  C   UNL     1      -7.469 -10.006  18.227  0.00  0.00    +0.002 C 
ATOM     30  C   UNL     1      -8.014 -11.418  18.442  0.00  0.00    +0.002 C 
ENDBRANCH   8  26
ENDBRANCH  23  24
ENDBRANCH  13  23
TORSDOF 7
ENDMDL
MODEL 6
REMARK VINA RESULT:      -6.0     24.158     27.034
REMARK  Name = 11883068
REMARK  9 active torsions:
REMARK  status: ('A' for Active; 'I' for Inactive)
REMARK    1  A    between atoms: O_2  and  C_15
REMARK    2  A    between atoms: O_3  and  C_20
REMARK    3  A    between atoms: N_8  and  C_26
REMARK    4  A    between atoms: C_10  and  C_18
REMARK    5  A    between atoms: C_12  and  C_20
REMARK    6  A    between atoms: C_12  and  C_21
REMARK    7  A    between atoms: C_13  and  C_23
REMARK    8  A    between atoms: C_23  and  C_24
REMARK    9  A    between atoms: C_31  and  C_32
REMARK                            x       y       z     vdW  Elec       q    Type
REMARK                         _______ _______ _______ _____ _____    ______ ____
ROOT
ATOM      1  S   UNL     1      19.438  -1.670  29.382  0.00  0.00    -0.057 S 
ATOM      5  O   UNL     1      20.835  -1.570  24.977  0.00  0.00    -0.266 OA
ATOM      7  N   UNL     1      19.222  -2.808  27.069  0.00  0.00    -0.229 NA
ATOM      9  N   UNL     1      20.698  -0.908  27.213  0.00  0.00    -0.258 N 
ATOM     10  C   UNL     1      17.071  -5.530  28.752  0.00  0.00    -0.019 C 
ATOM     11  C   UNL     1      16.496  -4.516  29.836  0.00  0.00    +0.011 C 
ATOM     12  C   UNL     1      15.574  -5.121  30.964  0.00  0.00    +0.021 C 
ATOM     13  C   UNL     1      17.584  -4.677  27.501  0.00  0.00    +0.054 C 
ATOM     14  C   UNL     1      15.936  -6.469  28.271  0.00  0.00    +0.010 C 
ATOM     15  C   UNL     1      14.526  -6.070  30.315  0.00  0.00    +0.123 C 
ATOM     16  C   UNL     1      17.607  -3.569  30.375  0.00  0.00    +0.049 C 
ATOM     17  C   UNL     1      15.150  -7.118  29.401  0.00  0.00    +0.032 C 
ATOM     18  C   UNL     1      18.235  -6.395  29.296  0.00  0.00    +0.012 C 
ATOM     19  C   UNL     1      18.417  -3.503  27.951  0.00  0.00    +0.058 A 
ATOM     21  C   UNL     1      14.791  -3.967  31.651  0.00  0.00    +0.016 C 
ATOM     22  C   UNL     1      18.398  -3.012  29.241  0.00  0.00    +0.015 A 
ATOM     25  C   UNL     1      19.814  -1.827  27.714  0.00  0.00    +0.165 A 
ATOM     31  C   UNL     1      21.170  -0.813  25.885  0.00  0.00    +0.285 C 
ATOM     39  H   UNL     1      21.045  -0.233  27.890  0.00  0.00    +0.157 HD
ENDROOT
BRANCH  31  32
ATOM      6  O   UNL     1      21.741   1.374  24.998  0.00  0.00    -0.458 OA
ATOM     32  C   UNL     1      22.158   0.256  25.649  0.00  0.00    +0.189 A 
ATOM     33  C   UNL     1      23.492   0.353  25.972  0.00  0.00    +0.054 A 
ATOM     34  C   UNL     1      23.922   1.613  25.489  0.00  0.00    +0.042 A 
ATOM     35  C   UNL     1      22.820   2.194  24.905  0.00  0.00    +0.196 A 
ENDBRANCH  31  32
BRANCH  15   2
ATOM      2  O   UNL     1      13.760  -6.734  31.319  0.00  0.00    -0.391 OA
ATOM     36  H   UNL     1      12.820  -6.572  31.127  0.00  0.00    +0.210 HD
ENDBRANCH  15   2
BRANCH  12  20
ATOM     20  C   UNL     1      16.337  -5.838  32.100  0.00  0.00    +0.165 C 
BRANCH  20   3
ATOM      3  O   UNL     1      15.603  -5.665  33.290  0.00  0.00    -0.394 OA
ATOM     37  H   UNL     1      15.920  -6.328  33.926  0.00  0.00    +0.209 HD
ENDBRANCH  20   3
ENDBRANCH  12  20
BRANCH  13  23
ATOM     23  C   UNL     1      18.305  -5.496  26.423  0.00  0.00    +0.106 C 
BRANCH  23  24
ATOM      4  O   UNL     1      16.997  -6.402  24.600  0.00  0.00    -0.276 OA
ATOM      8  N   UNL     1      17.682  -4.182  24.528  0.00  0.00    -0.312 N 
ATOM     24  C   UNL     1      17.584  -5.444  25.095  0.00  0.00    +0.214 C 
ATOM     38  H   UNL     1      18.151  -3.446  25.048  0.00  0.00    +0.149 HD
BRANCH   8  26
ATOM     26  C   UNL     1      17.089  -3.843  23.257  0.00  0.00    +0.073 C 
ATOM     27  C   UNL     1      18.047  -3.036  22.388  0.00  0.00    +0.022 C 
ATOM     28  C   UNL     1      15.903  -2.900  23.416  0.00  0.00    +0.022 C 
ATOM     29  C   UNL     1      17.910  -1.603  22.896  0.00  0.00    +0.002 C 
ATOM     30  C   UNL     1      16.517  -1.505  23.518  0.00  0.00    +0.002 C 
ENDBRANCH   8  26
ENDBRANCH  23  24
ENDBRANCH  13  23
TORSDOF 7
ENDMDL
MODEL 7
REMARK VINA RESULT:      -6.0     28.367     30.966
REMARK  Name = 11883068
REMARK  9 active torsions:
REMARK  status: ('A' for Active; 'I' for Inactive)
REMARK    1  A    between atoms: O_2  and  C_15
REMARK    2  A    between atoms: O_3  and  C_20
REMARK    3  A    between atoms: N_8  and  C_26
REMARK    4  A    between atoms: C_10  and  C_18
REMARK    5  A    between atoms: C_12  and  C_20
REMARK    6  A    between atoms: C_12  and  C_21
REMARK    7  A    between atoms: C_13  and  C_23
REMARK    8  A    between atoms: C_23  and  C_24
REMARK    9  A    between atoms: C_31  and  C_32
REMARK                            x       y       z     vdW  Elec       q    Type
REMARK                         _______ _______ _______ _____ _____    ______ ____
ROOT
ATOM      1  S   UNL     1      -7.616 -10.818  12.473  0.00  0.00    -0.057 S 
ATOM      5  O   UNL     1      -3.705 -11.361  10.069  0.00  0.00    -0.266 OA
ATOM      7  N   UNL     1      -5.073 -11.262  12.644  0.00  0.00    -0.229 NA
ATOM      9  N   UNL     1      -5.982 -10.987  10.429  0.00  0.00    -0.258 N 
ATOM     10  C   UNL     1      -5.416 -11.000  16.476  0.00  0.00    -0.019 C 
ATOM     11  C   UNL     1      -6.905 -11.564  16.460  0.00  0.00    +0.011 C 
ATOM     12  C   UNL     1      -7.678 -11.583  17.835  0.00  0.00    +0.021 C 
ATOM     13  C   UNL     1      -4.695 -11.472  15.129  0.00  0.00    +0.054 C 
ATOM     14  C   UNL     1      -4.648 -11.604  17.679  0.00  0.00    +0.010 C 
ATOM     15  C   UNL     1      -6.751 -12.174  18.935  0.00  0.00    +0.123 C 
ATOM     16  C   UNL     1      -7.729 -10.961  15.285  0.00  0.00    +0.049 C 
ATOM     17  C   UNL     1      -5.389 -11.494  19.004  0.00  0.00    +0.032 C 
ATOM     18  C   UNL     1      -5.359  -9.455  16.576  0.00  0.00    +0.012 C 
ATOM     19  C   UNL     1      -5.578 -11.233  13.931  0.00  0.00    +0.058 A 
ATOM     21  C   UNL     1      -8.909 -12.525  17.711  0.00  0.00    +0.016 C 
ATOM     22  C   UNL     1      -6.939 -11.025  14.023  0.00  0.00    +0.015 A 
ATOM     25  C   UNL     1      -6.055 -11.047  11.796  0.00  0.00    +0.165 A 
ATOM     31  C   UNL     1      -4.830 -11.143   9.627  0.00  0.00    +0.285 C 
ATOM     39  H   UNL     1      -6.866 -10.803   9.960  0.00  0.00    +0.157 HD
ENDROOT
BRANCH  31  32
ATOM      6  O   UNL     1      -4.433 -11.851   7.339  0.00  0.00    -0.458 OA
ATOM     32  C   UNL     1      -5.051 -10.979   8.178  0.00  0.00    +0.189 A 
ATOM     33  C   UNL     1      -5.798 -10.069   7.466  0.00  0.00    +0.054 A 
ATOM     34  C   UNL     1      -5.628 -10.404   6.101  0.00  0.00    +0.042 A 
ATOM     35  C   UNL     1      -4.790 -11.494   6.077  0.00  0.00    +0.196 A 
ENDBRANCH  31  32
BRANCH  15   2
ATOM      2  O   UNL     1      -7.373 -12.087  20.216  0.00  0.00    -0.391 OA
ATOM     36  H   UNL     1      -7.091 -12.859  20.735  0.00  0.00    +0.210 HD
ENDBRANCH  15   2
BRANCH  12  20
ATOM     20  C   UNL     1      -8.245 -10.214  18.270  0.00  0.00    +0.165 C 
BRANCH  20   3
ATOM      3  O   UNL     1      -9.278 -10.449  19.199  0.00  0.00    -0.394 OA
ATOM     37  H   UNL     1      -8.974 -10.120  20.061  0.00  0.00    +0.209 HD
ENDBRANCH  20   3
ENDBRANCH  12  20
BRANCH  13  23
ATOM     23  C   UNL     1      -3.292 -10.887  14.918  0.00  0.00    +0.106 C 
BRANCH  23  24
ATOM      4  O   UNL     1      -1.050 -11.795  14.889  0.00  0.00    -0.276 OA
ATOM      8  N   UNL     1      -2.844 -13.153  14.311  0.00  0.00    -0.312 N 
ATOM     24  C   UNL     1      -2.253 -11.966  14.715  0.00  0.00    +0.214 C 
ATOM     38  H   UNL     1      -3.858 -13.198  14.246  0.00  0.00    +0.149 HD
BRANCH   8  26
ATOM     26  C   UNL     1      -2.093 -14.355  14.040  0.00  0.00    +0.073 C 
ATOM     27  C   UNL     1      -2.088 -14.691  12.554  0.00  0.00    +0.022 C 
ATOM     28  C   UNL     1      -2.743 -15.585  14.663  0.00  0.00    +0.022 C 
ATOM     29  C   UNL     1      -3.417 -15.405  12.318  0.00  0.00    +0.002 C 
ATOM     30  C   UNL     1      -3.816 -16.013  13.663  0.00  0.00    +0.002 C 
ENDBRANCH   8  26
ENDBRANCH  23  24
ENDBRANCH  13  23
TORSDOF 7
ENDMDL
MODEL 8
REMARK VINA RESULT:      -5.9     22.892     25.288
REMARK  Name = 11883068
REMARK  9 active torsions:
REMARK  status: ('A' for Active; 'I' for Inactive)
REMARK    1  A    between atoms: O_2  and  C_15
REMARK    2  A    between atoms: O_3  and  C_20
REMARK    3  A    between atoms: N_8  and  C_26
REMARK    4  A    between atoms: C_10  and  C_18
REMARK    5  A    between atoms: C_12  and  C_20
REMARK    6  A    between atoms: C_12  and  C_21
REMARK    7  A    between atoms: C_13  and  C_23
REMARK    8  A    between atoms: C_23  and  C_24
REMARK    9  A    between atoms: C_31  and  C_32
REMARK                            x       y       z     vdW  Elec       q    Type
REMARK                         _______ _______ _______ _____ _____    ______ ____
ROOT
ATOM      1  S   UNL     1      19.792  -5.953  20.209  0.00  0.00    -0.057 S 
ATOM      5  O   UNL     1      21.694  -9.968  21.485  0.00  0.00    -0.266 OA
ATOM      7  N   UNL     1      20.372  -7.474  22.220  0.00  0.00    -0.229 NA
ATOM      9  N   UNL     1      20.983  -8.282  20.033  0.00  0.00    -0.258 N 
ATOM     10  C   UNL     1      19.181  -4.636  24.544  0.00  0.00    -0.019 C 
ATOM     11  C   UNL     1      18.109  -4.115  23.488  0.00  0.00    +0.011 C 
ATOM     12  C   UNL     1      17.326  -2.796  23.855  0.00  0.00    +0.021 C 
ATOM     13  C   UNL     1      19.515  -6.160  24.196  0.00  0.00    +0.054 C 
ATOM     14  C   UNL     1      18.570  -4.583  25.968  0.00  0.00    +0.010 C 
ATOM     15  C   UNL     1      16.824  -2.891  25.324  0.00  0.00    +0.123 C 
ATOM     16  C   UNL     1      18.686  -4.120  22.043  0.00  0.00    +0.049 C 
ATOM     17  C   UNL     1      17.927  -3.248  26.314  0.00  0.00    +0.032 C 
ATOM     18  C   UNL     1      20.489  -3.807  24.533  0.00  0.00    +0.012 C 
ATOM     19  C   UNL     1      19.766  -6.336  22.720  0.00  0.00    +0.058 A 
ATOM     21  C   UNL     1      16.071  -2.682  22.944  0.00  0.00    +0.016 C 
ATOM     22  C   UNL     1      19.369  -5.417  21.770  0.00  0.00    +0.015 A 
ATOM     25  C   UNL     1      20.446  -7.377  20.911  0.00  0.00    +0.165 A 
ATOM     31  C   UNL     1      21.577  -9.525  20.345  0.00  0.00    +0.285 C 
ATOM     39  H   UNL     1      20.943  -8.006  19.055  0.00  0.00    +0.157 HD
ENDROOT
BRANCH  31  32
ATOM      6  O   UNL     1      23.376  -9.981  18.780  0.00  0.00    -0.458 OA
ATOM     32  C   UNL     1      22.113 -10.268  19.190  0.00  0.00    +0.189 A 
ATOM     33  C   UNL     1      21.558 -11.248  18.399  0.00  0.00    +0.054 A 
ATOM     34  C   UNL     1      22.546 -11.585  17.441  0.00  0.00    +0.042 A 
ATOM     35  C   UNL     1      23.632 -10.787  17.716  0.00  0.00    +0.196 A 
ENDBRANCH  31  32
BRANCH  15   2
ATOM      2  O   UNL     1      16.223  -1.662  25.730  0.00  0.00    -0.391 OA
ATOM     36  H   UNL     1      16.099  -1.698  26.694  0.00  0.00    +0.210 HD
ENDBRANCH  15   2
BRANCH  12  20
ATOM     20  C   UNL     1      18.122  -1.493  23.628  0.00  0.00    +0.165 C 
BRANCH  20   3
ATOM      3  O   UNL     1      17.622  -0.877  22.464  0.00  0.00    -0.394 OA
ATOM     37  H   UNL     1      18.234  -0.160  22.229  0.00  0.00    +0.209 HD
ENDBRANCH  20   3
ENDBRANCH  12  20
BRANCH  13  23
ATOM     23  C   UNL     1      20.646  -6.772  25.034  0.00  0.00    +0.106 C 
BRANCH  23  24
ATOM      4  O   UNL     1      20.817  -8.322  26.884  0.00  0.00    -0.276 OA
ATOM      8  N   UNL     1      18.812  -8.138  25.724  0.00  0.00    -0.312 N 
ATOM     24  C   UNL     1      20.135  -7.823  25.992  0.00  0.00    +0.214 C 
ATOM     38  H   UNL     1      18.326  -7.627  24.992  0.00  0.00    +0.149 HD
BRANCH   8  26
ATOM     26  C   UNL     1      18.065  -9.114  26.480  0.00  0.00    +0.073 C 
ATOM     27  C   UNL     1      16.934  -9.718  25.657  0.00  0.00    +0.022 C 
ATOM     28  C   UNL     1      17.327  -8.481  27.654  0.00  0.00    +0.022 C 
ATOM     29  C   UNL     1      15.802  -8.698  25.753  0.00  0.00    +0.002 C 
ATOM     30  C   UNL     1      16.032  -7.932  27.057  0.00  0.00    +0.002 C 
ENDBRANCH   8  26
ENDBRANCH  23  24
ENDBRANCH  13  23
TORSDOF 7
ENDMDL
MODEL 9
REMARK VINA RESULT:      -5.9     15.953     18.934
REMARK  Name = 11883068
REMARK  9 active torsions:
REMARK  status: ('A' for Active; 'I' for Inactive)
REMARK    1  A    between atoms: O_2  and  C_15
REMARK    2  A    between atoms: O_3  and  C_20
REMARK    3  A    between atoms: N_8  and  C_26
REMARK    4  A    between atoms: C_10  and  C_18
REMARK    5  A    between atoms: C_12  and  C_20
REMARK    6  A    between atoms: C_12  and  C_21
REMARK    7  A    between atoms: C_13  and  C_23
REMARK    8  A    between atoms: C_23  and  C_24
REMARK    9  A    between atoms: C_31  and  C_32
REMARK                            x       y       z     vdW  Elec       q    Type
REMARK                         _______ _______ _______ _____ _____    ______ ____
ROOT
ATOM      1  S   UNL     1      18.128   9.149  21.854  0.00  0.00    -0.057 S 
ATOM      5  O   UNL     1      16.646   5.751  19.092  0.00  0.00    -0.266 OA
ATOM      7  N   UNL     1      18.725   6.857  20.814  0.00  0.00    -0.229 NA
ATOM      9  N   UNL     1      16.573   7.781  20.245  0.00  0.00    -0.258 N 
ATOM     10  C   UNL     1      22.247   7.227  22.340  0.00  0.00    -0.019 C 
ATOM     11  C   UNL     1      21.706   8.067  23.580  0.00  0.00    +0.011 C 
ATOM     12  C   UNL     1      22.784   8.648  24.575  0.00  0.00    +0.021 C 
ATOM     13  C   UNL     1      21.024   6.389  21.742  0.00  0.00    +0.054 C 
ATOM     14  C   UNL     1      23.331   6.231  22.825  0.00  0.00    +0.010 C 
ATOM     15  C   UNL     1      23.815   7.536  24.921  0.00  0.00    +0.123 C 
ATOM     16  C   UNL     1      20.636   9.107  23.140  0.00  0.00    +0.049 C 
ATOM     17  C   UNL     1      24.412   6.866  23.688  0.00  0.00    +0.032 C 
ATOM     18  C   UNL     1      22.853   8.119  21.228  0.00  0.00    +0.012 C 
ATOM     19  C   UNL     1      19.799   7.255  21.589  0.00  0.00    +0.058 A 
ATOM     21  C   UNL     1      22.082   9.056  25.901  0.00  0.00    +0.016 C 
ATOM     22  C   UNL     1      19.638   8.461  22.239  0.00  0.00    +0.015 A 
ATOM     25  C   UNL     1      17.791   7.780  20.873  0.00  0.00    +0.165 A 
ATOM     31  C   UNL     1      16.052   6.784  19.391  0.00  0.00    +0.285 C 
ATOM     39  H   UNL     1      16.000   8.603  20.422  0.00  0.00    +0.157 HD
ENDROOT
BRANCH  31  32
ATOM      6  O   UNL     1      13.633   6.824  19.585  0.00  0.00    -0.458 OA
ATOM     32  C   UNL     1      14.726   7.082  18.820  0.00  0.00    +0.189 A 
ATOM     33  C   UNL     1      14.352   7.597  17.601  0.00  0.00    +0.054 A 
ATOM     34  C   UNL     1      12.937   7.660  17.617  0.00  0.00    +0.042 A 
ATOM     35  C   UNL     1      12.549   7.178  18.846  0.00  0.00    +0.196 A 
ENDBRANCH  31  32
BRANCH  15   2
ATOM      2  O   UNL     1      24.876   8.062  25.716  0.00  0.00    -0.391 OA
ATOM     36  H   UNL     1      25.220   7.338  26.265  0.00  0.00    +0.210 HD
ENDBRANCH  15   2
BRANCH  12  20
ATOM     20  C   UNL     1      23.498   9.923  24.075  0.00  0.00    +0.165 C 
BRANCH  20   3
ATOM      3  O   UNL     1      23.836  10.699  25.201  0.00  0.00    -0.394 OA
ATOM     37  H   UNL     1      23.293  11.505  25.173  0.00  0.00    +0.209 HD
ENDBRANCH  20   3
ENDBRANCH  12  20
BRANCH  13  23
ATOM     23  C   UNL     1      21.343   5.634  20.445  0.00  0.00    +0.106 C 
BRANCH  23  24
ATOM      4  O   UNL     1      20.632   3.358  20.854  0.00  0.00    -0.276 OA
ATOM      8  N   UNL     1      22.899   3.839  20.692  0.00  0.00    -0.312 N 
ATOM     24  C   UNL     1      21.549   4.156  20.686  0.00  0.00    +0.214 C 
ATOM     38  H   UNL     1      23.575   4.571  20.493  0.00  0.00    +0.149 HD
BRANCH   8  26
ATOM     26  C   UNL     1      23.392   2.499  20.903  0.00  0.00    +0.073 C 
ATOM     27  C   UNL     1      23.573   2.193  22.385  0.00  0.00    +0.022 C 
ATOM     28  C   UNL     1      24.799   2.317  20.346  0.00  0.00    +0.022 C 
ATOM     29  C   UNL     1      24.926   2.805  22.740  0.00  0.00    +0.002 C 
ATOM     30  C   UNL     1      25.728   2.845  21.438  0.00  0.00    +0.002 C 
ENDBRANCH   8  26
ENDBRANCH  23  24
ENDBRANCH  13  23
TORSDOF 7
ENDMDL
MODEL 10
REMARK VINA RESULT:      -5.9      5.616      8.178
REMARK  Name = 11883068
REMARK  9 active torsions:
REMARK  status: ('A' for Active; 'I' for Inactive)
REMARK    1  A    between atoms: O_2  and  C_15
REMARK    2  A    between atoms: O_3  and  C_20
REMARK    3  A    between atoms: N_8  and  C_26
REMARK    4  A    between atoms: C_10  and  C_18
REMARK    5  A    between atoms: C_12  and  C_20
REMARK    6  A    between atoms: C_12  and  C_21
REMARK    7  A    between atoms: C_13  and  C_23
REMARK    8  A    between atoms: C_23  and  C_24
REMARK    9  A    between atoms: C_31  and  C_32
REMARK                            x       y       z     vdW  Elec       q    Type
REMARK                         _______ _______ _______ _____ _____    ______ ____
ROOT
ATOM      1  S   UNL     1       9.070   8.122   0.104  0.00  0.00    -0.057 S 
ATOM      5  O   UNL     1       7.797   8.967   4.467  0.00  0.00    -0.266 OA
ATOM      7  N   UNL     1       9.599   7.646   2.591  0.00  0.00    -0.229 NA
ATOM      9  N   UNL     1       7.723   9.089   2.135  0.00  0.00    -0.258 N 
ATOM     10  C   UNL     1      12.274   5.134   1.408  0.00  0.00    -0.019 C 
ATOM     11  C   UNL     1      12.574   5.960   0.080  0.00  0.00    +0.011 C 
ATOM     12  C   UNL     1      13.582   5.317  -0.950  0.00  0.00    +0.021 C 
ATOM     13  C   UNL     1      11.611   6.129   2.468  0.00  0.00    +0.054 C 
ATOM     14  C   UNL     1      13.606   4.606   1.999  0.00  0.00    +0.010 C 
ATOM     15  C   UNL     1      14.835   4.801  -0.187  0.00  0.00    +0.123 C 
ATOM     16  C   UNL     1      11.263   6.485  -0.572  0.00  0.00    +0.049 C 
ATOM     17  C   UNL     1      14.492   3.892   0.988  0.00  0.00    +0.032 C 
ATOM     18  C   UNL     1      11.327   3.932   1.167  0.00  0.00    +0.012 C 
ATOM     19  C   UNL     1      10.520   6.951   1.830  0.00  0.00    +0.058 A 
ATOM     21  C   UNL     1      14.063   6.415  -1.941  0.00  0.00    +0.016 C 
ATOM     22  C   UNL     1      10.394   7.112   0.465  0.00  0.00    +0.015 A 
ATOM     25  C   UNL     1       8.782   8.291   1.788  0.00  0.00    +0.165 A 
ATOM     31  C   UNL     1       7.275   9.394   3.440  0.00  0.00    +0.285 C 
ATOM     39  H   UNL     1       7.214   9.491   1.352  0.00  0.00    +0.157 HD
ENDROOT
BRANCH  31  32
ATOM      6  O   UNL     1       5.989  11.148   4.518  0.00  0.00    -0.458 OA
ATOM     32  C   UNL     1       6.075  10.248   3.504  0.00  0.00    +0.189 A 
ATOM     33  C   UNL     1       4.961  10.318   2.699  0.00  0.00    +0.054 A 
ATOM     34  C   UNL     1       4.139  11.328   3.254  0.00  0.00    +0.042 A 
ATOM     35  C   UNL     1       4.808  11.802   4.358  0.00  0.00    +0.196 A 
ENDBRANCH  31  32
BRANCH  15   2
ATOM      2  O   UNL     1      15.709   4.100  -1.070  0.00  0.00    -0.391 OA
ATOM     36  H   UNL     1      15.824   4.645  -1.866  0.00  0.00    +0.210 HD
ENDBRANCH  15   2
BRANCH  12  20
ATOM     20  C   UNL     1      12.976   4.201  -1.829  0.00  0.00    +0.165 C 
BRANCH  20   3
ATOM      3  O   UNL     1      13.709   4.152  -3.032  0.00  0.00    -0.394 OA
ATOM     37  H   UNL     1      13.075   4.003  -3.753  0.00  0.00    +0.209 HD
ENDBRANCH  20   3
ENDBRANCH  12  20
BRANCH  13  23
ATOM     23  C   UNL     1      11.124   5.455   3.758  0.00  0.00    +0.106 C 
BRANCH  23  24
ATOM      4  O   UNL     1      12.484   7.030   4.992  0.00  0.00    -0.276 OA
ATOM      8  N   UNL     1      10.849   5.808   6.104  0.00  0.00    -0.312 N 
ATOM     24  C   UNL     1      11.581   6.197   4.992  0.00  0.00    +0.214 C 
ATOM     38  H   UNL     1      10.089   5.145   5.982  0.00  0.00    +0.149 HD
BRANCH   8  26
ATOM     26  C   UNL     1      11.071   6.351   7.422  0.00  0.00    +0.073 C 
ATOM     27  C   UNL     1      10.469   5.463   8.504  0.00  0.00    +0.022 C 
ATOM     28  C   UNL     1      10.339   7.672   7.624  0.00  0.00    +0.022 C 
ATOM     29  C   UNL     1       8.991   5.846   8.536  0.00  0.00    +0.002 C 
ATOM     30  C   UNL     1       8.914   7.280   8.010  0.00  0.00    +0.002 C 
ENDBRANCH   8  26
ENDBRANCH  23  24
ENDBRANCH  13  23
TORSDOF 7
ENDMDL
