MODEL 1
REMARK VINA RESULT:      -7.4      0.000      0.000
REMARK  Name = 45360453
REMARK  7 active torsions:
REMARK  status: ('A' for Active; 'I' for Inactive)
REMARK    1  A    between atoms: N_4  and  C_16
REMARK    2  A    between atoms: N_7  and  C_26
REMARK    3  A    between atoms: C_10  and  C_17
REMARK    4  A    between atoms: C_11  and  C_16
REMARK    5  A    between atoms: C_19  and  C_22
REMARK    6  A    between atoms: C_20  and  C_23
REMARK    7  A    between atoms: C_32  and  C_35
REMARK                            x       y       z     vdW  Elec       q    Type
REMARK                         _______ _______ _______ _____ _____    ______ ____
ROOT
ATOM      3  N   UNL     1      -6.082 -10.437   9.830  0.00  0.00    -0.297 NA
ATOM      9  C   UNL     1      -3.889  -9.274  10.619  0.00  0.00    +0.002 C 
ATOM     10  C   UNL     1      -3.862 -10.786  10.979  0.00  0.00    +0.055 C 
ATOM     11  C   UNL     1      -6.407  -9.210  10.603  0.00  0.00    +0.074 C 
ATOM     12  C   UNL     1      -5.136  -8.621  11.252  0.00  0.00    +0.024 C 
ATOM     13  C   UNL     1      -4.057  -9.184   9.088  0.00  0.00    +0.019 C 
ATOM     14  C   UNL     1      -5.271 -11.362  10.662  0.00  0.00    +0.094 C 
ATOM     15  C   UNL     1      -5.265 -10.034   8.659  0.00  0.00    +0.085 C 
ENDROOT
BRANCH  10  17
ATOM      5  N   UNL     1      -2.531 -10.330  12.980  0.00  0.00    -0.237 NA
ATOM      6  N   UNL     1      -2.455 -11.853  14.846  0.00  0.00    -0.232 NA
ATOM     17  C   UNL     1      -3.371 -11.186  12.363  0.00  0.00    +0.050 A 
ATOM     18  C   UNL     1      -3.792 -12.379  12.915  0.00  0.00    +0.052 A 
ATOM     19  C   UNL     1      -3.298 -12.663  14.171  0.00  0.00    +0.076 A 
ATOM     20  C   UNL     1      -2.119 -10.719  14.201  0.00  0.00    +0.127 A 
ATOM     23  C   UNL     1      -1.188  -9.799  14.915  0.00  0.00    +0.088 C 
BRANCH  19  22
ATOM      1 BR   UNL     1      -1.436 -15.185  13.539  0.00  0.00    -0.050 Br
ATOM     22  C   UNL     1      -3.660 -13.880  14.858  0.00  0.00    +0.014 A 
ATOM     24  C   UNL     1      -2.944 -15.065  14.689  0.00  0.00    +0.027 A 
ATOM     25  C   UNL     1      -4.762 -13.846  15.712  0.00  0.00    +0.011 A 
ATOM     27  C   UNL     1      -3.331 -16.218  15.373  0.00  0.00    +0.016 A 
ATOM     28  C   UNL     1      -5.149 -14.998  16.396  0.00  0.00    +0.001 A 
ATOM     29  C   UNL     1      -4.434 -16.184  16.228  0.00  0.00    +0.001 A 
ENDBRANCH  19  22
ENDBRANCH  10  17
BRANCH  11  16
ATOM     16  C   UNL     1      -7.516  -9.444  11.630  0.00  0.00    +0.124 C 
BRANCH  16   4
ATOM      2  O   UNL     1      -6.981 -11.278  13.764  0.00  0.00    -0.253 OA
ATOM      4  N   UNL     1      -7.070  -9.116  12.948  0.00  0.00    -0.298 N 
ATOM      7  N   UNL     1      -6.402  -9.460  15.130  0.00  0.00    -0.269 N 
ATOM     21  C   UNL     1      -6.827 -10.074  13.949  0.00  0.00    +0.304 C 
ATOM     36  H   UNL     1      -6.925  -8.136  13.175  0.00  0.00    +0.150 HD
ATOM     37  H   UNL     1      -6.326  -8.446  15.115  0.00  0.00    +0.156 HD
BRANCH   7  26
ATOM     26  C   UNL     1      -6.060 -10.078  16.355  0.00  0.00    +0.036 A 
ATOM     30  C   UNL     1      -7.062 -10.532  17.213  0.00  0.00    +0.042 A 
ATOM     31  C   UNL     1      -4.718 -10.234  16.706  0.00  0.00    +0.023 A 
ATOM     32  C   UNL     1      -6.723 -11.142  18.421  0.00  0.00    +0.054 A 
ATOM     33  C   UNL     1      -4.380 -10.843  17.914  0.00  0.00    +0.003 A 
ATOM     34  C   UNL     1      -5.382 -11.298  18.771  0.00  0.00    +0.019 A 
BRANCH  32  35
ATOM      8  N   UNL     1      -8.582 -11.983  20.014  0.00  0.00    -0.191 NA
ATOM     35  C   UNL     1      -7.749 -11.606  19.300  0.00  0.00    +0.099 C 
ENDBRANCH  32  35
ENDBRANCH   7  26
ENDBRANCH  16   4
ENDBRANCH  11  16
TORSDOF 6
ENDMDL
MODEL 2
REMARK VINA RESULT:      -7.2      1.475      2.104
REMARK  Name = 45360453
REMARK  7 active torsions:
REMARK  status: ('A' for Active; 'I' for Inactive)
REMARK    1  A    between atoms: N_4  and  C_16
REMARK    2  A    between atoms: N_7  and  C_26
REMARK    3  A    between atoms: C_10  and  C_17
REMARK    4  A    between atoms: C_11  and  C_16
REMARK    5  A    between atoms: C_19  and  C_22
REMARK    6  A    between atoms: C_20  and  C_23
REMARK    7  A    between atoms: C_32  and  C_35
REMARK                            x       y       z     vdW  Elec       q    Type
REMARK                         _______ _______ _______ _____ _____    ______ ____
ROOT
ATOM      3  N   UNL     1      -5.799 -10.607   9.830  0.00  0.00    -0.297 NA
ATOM      9  C   UNL     1      -3.720  -9.253  10.620  0.00  0.00    +0.002 C 
ATOM     10  C   UNL     1      -3.471 -10.778  10.786  0.00  0.00    +0.055 C 
ATOM     11  C   UNL     1      -6.218  -9.533  10.768  0.00  0.00    +0.074 C 
ATOM     12  C   UNL     1      -4.986  -8.854  11.405  0.00  0.00    +0.024 C 
ATOM     13  C   UNL     1      -4.017  -9.011   9.125  0.00  0.00    +0.019 C 
ATOM     14  C   UNL     1      -4.814 -11.502  10.489  0.00  0.00    +0.094 C 
ATOM     15  C   UNL     1      -5.136  -9.965   8.670  0.00  0.00    +0.085 C 
ENDROOT
BRANCH  10  17
ATOM      5  N   UNL     1      -2.337 -10.317  12.904  0.00  0.00    -0.237 NA
ATOM      6  N   UNL     1      -1.653 -12.076  14.404  0.00  0.00    -0.232 NA
ATOM     17  C   UNL     1      -2.825 -11.264  12.077  0.00  0.00    +0.050 A 
ATOM     18  C   UNL     1      -2.765 -12.617  12.339  0.00  0.00    +0.052 A 
ATOM     19  C   UNL     1      -2.162 -12.968  13.529  0.00  0.00    +0.076 A 
ATOM     20  C   UNL     1      -1.774 -10.786  14.034  0.00  0.00    +0.127 A 
ATOM     23  C   UNL     1      -1.222  -9.769  14.974  0.00  0.00    +0.088 C 
BRANCH  19  22
ATOM      1 BR   UNL     1      -4.526 -14.083  15.372  0.00  0.00    -0.050 Br
ATOM     22  C   UNL     1      -2.034 -14.352  13.921  0.00  0.00    +0.014 A 
ATOM     24  C   UNL     1      -2.985 -14.985  14.722  0.00  0.00    +0.027 A 
ATOM     25  C   UNL     1      -0.918 -15.058  13.472  0.00  0.00    +0.011 A 
ATOM     27  C   UNL     1      -2.820 -16.324  15.076  0.00  0.00    +0.016 A 
ATOM     28  C   UNL     1      -0.753 -16.397  13.825  0.00  0.00    +0.001 A 
ATOM     29  C   UNL     1      -1.703 -17.030  14.627  0.00  0.00    +0.001 A 
ENDBRANCH  19  22
ENDBRANCH  10  17
BRANCH  11  16
ATOM     16  C   UNL     1      -7.204 -10.033  11.826  0.00  0.00    +0.124 C 
BRANCH  16   4
ATOM      2  O   UNL     1      -7.377 -11.470  14.297  0.00  0.00    -0.253 OA
ATOM      4  N   UNL     1      -6.852  -9.548  13.123  0.00  0.00    -0.298 N 
ATOM      7  N   UNL     1      -6.548  -9.578  15.411  0.00  0.00    -0.269 N 
ATOM     21  C   UNL     1      -6.964 -10.314  14.298  0.00  0.00    +0.304 C 
ATOM     36  H   UNL     1      -6.506  -8.596  13.202  0.00  0.00    +0.150 HD
ATOM     37  H   UNL     1      -6.231  -8.627  15.237  0.00  0.00    +0.156 HD
BRANCH   7  26
ATOM     26  C   UNL     1      -6.510  -9.994  16.762  0.00  0.00    +0.036 A 
ATOM     30  C   UNL     1      -5.376 -10.630  17.267  0.00  0.00    +0.042 A 
ATOM     31  C   UNL     1      -7.609  -9.767  17.591  0.00  0.00    +0.023 A 
ATOM     32  C   UNL     1      -5.340 -11.040  18.600  0.00  0.00    +0.054 A 
ATOM     33  C   UNL     1      -7.573 -10.176  18.924  0.00  0.00    +0.003 A 
ATOM     34  C   UNL     1      -6.439 -10.812  19.429  0.00  0.00    +0.019 A 
BRANCH  32  35
ATOM      8  N   UNL     1      -3.235 -12.221  19.537  0.00  0.00    -0.191 NA
ATOM     35  C   UNL     1      -4.179 -11.692  19.116  0.00  0.00    +0.099 C 
ENDBRANCH  32  35
ENDBRANCH   7  26
ENDBRANCH  16   4
ENDBRANCH  11  16
TORSDOF 6
ENDMDL
MODEL 3
REMARK VINA RESULT:      -6.9      2.407      5.803
REMARK  Name = 45360453
REMARK  7 active torsions:
REMARK  status: ('A' for Active; 'I' for Inactive)
REMARK    1  A    between atoms: N_4  and  C_16
REMARK    2  A    between atoms: N_7  and  C_26
REMARK    3  A    between atoms: C_10  and  C_17
REMARK    4  A    between atoms: C_11  and  C_16
REMARK    5  A    between atoms: C_19  and  C_22
REMARK    6  A    between atoms: C_20  and  C_23
REMARK    7  A    between atoms: C_32  and  C_35
REMARK                            x       y       z     vdW  Elec       q    Type
REMARK                         _______ _______ _______ _____ _____    ______ ____
ROOT
ATOM      3  N   UNL     1      -1.852 -16.727  13.944  0.00  0.00    -0.297 NA
ATOM      9  C   UNL     1      -2.667 -15.319  11.910  0.00  0.00    +0.002 C 
ATOM     10  C   UNL     1      -1.702 -14.485  12.797  0.00  0.00    +0.055 C 
ATOM     11  C   UNL     1      -3.333 -16.801  13.835  0.00  0.00    +0.074 C 
ATOM     12  C   UNL     1      -3.851 -15.812  12.768  0.00  0.00    +0.024 C 
ATOM     13  C   UNL     1      -1.885 -16.568  11.455  0.00  0.00    +0.019 C 
ATOM     14  C   UNL     1      -1.422 -15.313  14.083  0.00  0.00    +0.094 C 
ATOM     15  C   UNL     1      -1.277 -17.263  12.686  0.00  0.00    +0.085 C 
ENDROOT
BRANCH  10  17
ATOM      5  N   UNL     1      -1.727 -12.573  14.323  0.00  0.00    -0.237 NA
ATOM      6  N   UNL     1      -2.730 -10.464  13.724  0.00  0.00    -0.232 NA
ATOM     17  C   UNL     1      -2.079 -13.043  13.109  0.00  0.00    +0.050 A 
ATOM     18  C   UNL     1      -2.749 -12.296  12.162  0.00  0.00    +0.052 A 
ATOM     19  C   UNL     1      -3.051 -11.000  12.527  0.00  0.00    +0.076 A 
ATOM     20  C   UNL     1      -2.078 -11.294  14.560  0.00  0.00    +0.127 A 
ATOM     23  C   UNL     1      -1.707 -10.739  15.893  0.00  0.00    +0.088 C 
BRANCH  19  22
ATOM      1 BR   UNL     1      -5.992 -10.162  13.463  0.00  0.00    -0.050 Br
ATOM     22  C   UNL     1      -3.752 -10.115  11.627  0.00  0.00    +0.014 A 
ATOM     24  C   UNL     1      -5.043  -9.658  11.896  0.00  0.00    +0.027 A 
ATOM     25  C   UNL     1      -3.099  -9.717  10.461  0.00  0.00    +0.011 A 
ATOM     27  C   UNL     1      -5.681  -8.804  10.997  0.00  0.00    +0.016 A 
ATOM     28  C   UNL     1      -3.738  -8.863   9.562  0.00  0.00    +0.001 A 
ATOM     29  C   UNL     1      -5.028  -8.406   9.829  0.00  0.00    +0.001 A 
ENDBRANCH  19  22
ENDBRANCH  10  17
BRANCH  11  16
ATOM     16  C   UNL     1      -4.027 -16.600  15.184  0.00  0.00    +0.124 C 
BRANCH  16   4
ATOM      2  O   UNL     1      -5.811 -15.150  16.892  0.00  0.00    -0.253 OA
ATOM      4  N   UNL     1      -3.864 -15.258  15.647  0.00  0.00    -0.298 N 
ATOM      7  N   UNL     1      -4.363 -13.306  16.775  0.00  0.00    -0.269 N 
ATOM     21  C   UNL     1      -4.785 -14.607  16.488  0.00  0.00    +0.304 C 
ATOM     36  H   UNL     1      -3.040 -14.744  15.349  0.00  0.00    +0.150 HD
ATOM     37  H   UNL     1      -3.484 -13.010  16.358  0.00  0.00    +0.156 HD
BRANCH   7  26
ATOM     26  C   UNL     1      -5.010 -12.340  17.580  0.00  0.00    +0.036 A 
ATOM     30  C   UNL     1      -5.931 -11.460  17.011  0.00  0.00    +0.042 A 
ATOM     31  C   UNL     1      -4.727 -12.269  18.944  0.00  0.00    +0.023 A 
ATOM     32  C   UNL     1      -6.569 -10.508  17.807  0.00  0.00    +0.054 A 
ATOM     33  C   UNL     1      -5.365 -11.317  19.739  0.00  0.00    +0.003 A 
ATOM     34  C   UNL     1      -6.286 -10.437  19.171  0.00  0.00    +0.019 A 
BRANCH  32  35
ATOM      8  N   UNL     1      -8.277  -8.874  16.752  0.00  0.00    -0.191 NA
ATOM     35  C   UNL     1      -7.511  -9.606  17.225  0.00  0.00    +0.099 C 
ENDBRANCH  32  35
ENDBRANCH   7  26
ENDBRANCH  16   4
ENDBRANCH  11  16
TORSDOF 6
ENDMDL
MODEL 4
REMARK VINA RESULT:      -6.6      4.387      8.082
REMARK  Name = 45360453
REMARK  7 active torsions:
REMARK  status: ('A' for Active; 'I' for Inactive)
REMARK    1  A    between atoms: N_4  and  C_16
REMARK    2  A    between atoms: N_7  and  C_26
REMARK    3  A    between atoms: C_10  and  C_17
REMARK    4  A    between atoms: C_11  and  C_16
REMARK    5  A    between atoms: C_19  and  C_22
REMARK    6  A    between atoms: C_20  and  C_23
REMARK    7  A    between atoms: C_32  and  C_35
REMARK                            x       y       z     vdW  Elec       q    Type
REMARK                         _______ _______ _______ _____ _____    ______ ____
ROOT
ATOM      3  N   UNL     1      -5.793  -9.307  10.178  0.00  0.00    -0.297 NA
ATOM      9  C   UNL     1      -7.159 -10.246   8.170  0.00  0.00    +0.002 C 
ATOM     10  C   UNL     1      -6.981  -8.708   8.034  0.00  0.00    +0.055 C 
ATOM     11  C   UNL     1      -6.900 -10.167  10.674  0.00  0.00    +0.074 C 
ATOM     12  C   UNL     1      -7.842 -10.564   9.517  0.00  0.00    +0.024 C 
ATOM     13  C   UNL     1      -5.743 -10.855   8.223  0.00  0.00    +0.019 C 
ATOM     14  C   UNL     1      -6.340  -8.198   9.355  0.00  0.00    +0.094 C 
ATOM     15  C   UNL     1      -4.924 -10.140   9.312  0.00  0.00    +0.085 C 
ENDROOT
BRANCH  10  17
ATOM      5  N   UNL     1      -8.558  -7.951   6.325  0.00  0.00    -0.237 NA
ATOM      6  N   UNL     1     -10.346  -6.411   6.818  0.00  0.00    -0.232 NA
ATOM     17  C   UNL     1      -8.189  -7.879   7.620  0.00  0.00    +0.050 A 
ATOM     18  C   UNL     1      -8.838  -7.106   8.561  0.00  0.00    +0.052 A 
ATOM     19  C   UNL     1      -9.921  -6.387   8.098  0.00  0.00    +0.076 A 
ATOM     20  C   UNL     1      -9.629  -7.203   5.997  0.00  0.00    +0.127 A 
ATOM     23  C   UNL     1     -10.067  -7.256   4.573  0.00  0.00    +0.088 C 
BRANCH  19  22
ATOM      1 BR   UNL     1     -11.929  -7.922  10.057  0.00  0.00    -0.050 Br
ATOM     22  C   UNL     1     -10.685  -5.538   8.982  0.00  0.00    +0.014 A 
ATOM     24  C   UNL     1     -11.601  -6.057   9.896  0.00  0.00    +0.027 A 
ATOM     25  C   UNL     1     -10.482  -4.160   8.901  0.00  0.00    +0.011 A 
ATOM     27  C   UNL     1     -12.317  -5.198  10.730  0.00  0.00    +0.016 A 
ATOM     28  C   UNL     1     -11.198  -3.301   9.735  0.00  0.00    +0.001 A 
ATOM     29  C   UNL     1     -12.115  -3.819  10.650  0.00  0.00    +0.001 A 
ENDBRANCH  19  22
ENDBRANCH  10  17
BRANCH  11  16
ATOM     16  C   UNL     1      -7.662  -9.525  11.835  0.00  0.00    +0.124 C 
BRANCH  16   4
ATOM      2  O   UNL     1      -6.814 -11.325  13.895  0.00  0.00    -0.253 OA
ATOM      4  N   UNL     1      -6.782  -9.227  12.921  0.00  0.00    -0.298 N 
ATOM      7  N   UNL     1      -5.541  -9.590  14.833  0.00  0.00    -0.269 N 
ATOM     21  C   UNL     1      -6.408 -10.166  13.900  0.00  0.00    +0.304 C 
ATOM     36  H   UNL     1      -6.410  -8.284  12.992  0.00  0.00    +0.150 HD
ATOM     37  H   UNL     1      -5.303  -8.612  14.692  0.00  0.00    +0.156 HD
BRANCH   7  26
ATOM     26  C   UNL     1      -4.948 -10.204  15.961  0.00  0.00    +0.036 A 
ATOM     30  C   UNL     1      -5.671 -10.336  17.146  0.00  0.00    +0.042 A 
ATOM     31  C   UNL     1      -3.638 -10.677  15.887  0.00  0.00    +0.023 A 
ATOM     32  C   UNL     1      -5.085 -10.942  18.258  0.00  0.00    +0.054 A 
ATOM     33  C   UNL     1      -3.051 -11.283  16.998  0.00  0.00    +0.003 A 
ATOM     34  C   UNL     1      -3.775 -11.415  18.184  0.00  0.00    +0.019 A 
BRANCH  32  35
ATOM      8  N   UNL     1      -6.427 -11.186  20.458  0.00  0.00    -0.191 NA
ATOM     35  C   UNL     1      -5.825 -11.077  19.472  0.00  0.00    +0.099 C 
ENDBRANCH  32  35
ENDBRANCH   7  26
ENDBRANCH  16   4
ENDBRANCH  11  16
TORSDOF 6
ENDMDL
MODEL 5
REMARK VINA RESULT:      -6.5      2.179      3.106
REMARK  Name = 45360453
REMARK  7 active torsions:
REMARK  status: ('A' for Active; 'I' for Inactive)
REMARK    1  A    between atoms: N_4  and  C_16
REMARK    2  A    between atoms: N_7  and  C_26
REMARK    3  A    between atoms: C_10  and  C_17
REMARK    4  A    between atoms: C_11  and  C_16
REMARK    5  A    between atoms: C_19  and  C_22
REMARK    6  A    between atoms: C_20  and  C_23
REMARK    7  A    between atoms: C_32  and  C_35
REMARK                            x       y       z     vdW  Elec       q    Type
REMARK                         _______ _______ _______ _____ _____    ______ ____
ROOT
ATOM      3  N   UNL     1      -5.355 -11.275  10.188  0.00  0.00    -0.297 NA
ATOM      9  C   UNL     1      -3.907  -9.341  11.161  0.00  0.00    +0.002 C 
ATOM     10  C   UNL     1      -3.502 -10.699  11.801  0.00  0.00    +0.055 C 
ATOM     11  C   UNL     1      -6.230 -10.158  10.631  0.00  0.00    +0.074 C 
ATOM     12  C   UNL     1      -5.412  -9.095  11.396  0.00  0.00    +0.024 C 
ATOM     13  C   UNL     1      -3.703  -9.489   9.639  0.00  0.00    +0.019 C 
ATOM     14  C   UNL     1      -4.534 -11.760  11.327  0.00  0.00    +0.094 C 
ATOM     15  C   UNL     1      -4.438 -10.749   9.148  0.00  0.00    +0.085 C 
ENDROOT
BRANCH  10  17
ATOM      5  N   UNL     1      -2.068 -10.341  13.750  0.00  0.00    -0.237 NA
ATOM      6  N   UNL     1      -2.812 -10.806  15.995  0.00  0.00    -0.232 NA
ATOM     17  C   UNL     1      -3.276 -10.744  13.306  0.00  0.00    +0.050 A 
ATOM     18  C   UNL     1      -4.289 -11.186  14.132  0.00  0.00    +0.052 A 
ATOM     19  C   UNL     1      -3.998 -11.195  15.481  0.00  0.00    +0.076 A 
ATOM     20  C   UNL     1      -1.907 -10.396  15.086  0.00  0.00    +0.127 A 
ATOM     23  C   UNL     1      -0.583  -9.959  15.615  0.00  0.00    +0.088 C 
BRANCH  19  22
ATOM      1 BR   UNL     1      -4.770 -14.294  15.316  0.00  0.00    -0.050 Br
ATOM     22  C   UNL     1      -4.971 -11.637  16.451  0.00  0.00    +0.014 A 
ATOM     24  C   UNL     1      -5.410 -12.960  16.509  0.00  0.00    +0.027 A 
ATOM     25  C   UNL     1      -5.473 -10.695  17.349  0.00  0.00    +0.011 A 
ATOM     27  C   UNL     1      -6.352 -13.342  17.464  0.00  0.00    +0.016 A 
ATOM     28  C   UNL     1      -6.416 -11.077  18.304  0.00  0.00    +0.001 A 
ATOM     29  C   UNL     1      -6.855 -12.399  18.362  0.00  0.00    +0.001 A 
ENDBRANCH  19  22
ENDBRANCH  10  17
BRANCH  11  16
ATOM     16  C   UNL     1      -7.432 -10.645  11.443  0.00  0.00    +0.124 C 
BRANCH  16   4
ATOM      2  O   UNL     1      -9.617 -10.756  13.292  0.00  0.00    -0.253 OA
ATOM      4  N   UNL     1      -7.561  -9.905  12.659  0.00  0.00    -0.298 N 
ATOM      7  N   UNL     1      -8.517  -9.171  14.627  0.00  0.00    -0.269 N 
ATOM     21  C   UNL     1      -8.668 -10.011  13.521  0.00  0.00    +0.304 C 
ATOM     36  H   UNL     1      -6.815  -9.263  12.912  0.00  0.00    +0.150 HD
ATOM     37  H   UNL     1      -7.665  -8.615  14.666  0.00  0.00    +0.156 HD
BRANCH   7  26
ATOM     26  C   UNL     1      -9.407  -8.994  15.711  0.00  0.00    +0.036 A 
ATOM     30  C   UNL     1      -9.239  -9.732  16.883  0.00  0.00    +0.042 A 
ATOM     31  C   UNL     1     -10.455  -8.078  15.609  0.00  0.00    +0.023 A 
ATOM     32  C   UNL     1     -10.118  -9.556  17.951  0.00  0.00    +0.054 A 
ATOM     33  C   UNL     1     -11.334  -7.902  16.678  0.00  0.00    +0.003 A 
ATOM     34  C   UNL     1     -11.166  -8.640  17.849  0.00  0.00    +0.019 A 
BRANCH  32  35
ATOM      8  N   UNL     1      -9.807 -10.928  20.125  0.00  0.00    -0.191 NA
ATOM     35  C   UNL     1      -9.947 -10.313  19.150  0.00  0.00    +0.099 C 
ENDBRANCH  32  35
ENDBRANCH   7  26
ENDBRANCH  16   4
ENDBRANCH  11  16
TORSDOF 6
ENDMDL
MODEL 6
REMARK VINA RESULT:      -6.5     23.438     26.757
REMARK  Name = 45360453
REMARK  7 active torsions:
REMARK  status: ('A' for Active; 'I' for Inactive)
REMARK    1  A    between atoms: N_4  and  C_16
REMARK    2  A    between atoms: N_7  and  C_26
REMARK    3  A    between atoms: C_10  and  C_17
REMARK    4  A    between atoms: C_11  and  C_16
REMARK    5  A    between atoms: C_19  and  C_22
REMARK    6  A    between atoms: C_20  and  C_23
REMARK    7  A    between atoms: C_32  and  C_35
REMARK                            x       y       z     vdW  Elec       q    Type
REMARK                         _______ _______ _______ _____ _____    ______ ____
ROOT
ATOM      3  N   UNL     1      12.316   5.565  -0.124  0.00  0.00    -0.297 NA
ATOM      9  C   UNL     1       9.862   6.432  -0.223  0.00  0.00    +0.002 C 
ATOM     10  C   UNL     1      10.791   7.502   0.415  0.00  0.00    +0.055 C 
ATOM     11  C   UNL     1      11.393   4.546   0.442  0.00  0.00    +0.074 C 
ATOM     12  C   UNL     1       9.966   5.120   0.582  0.00  0.00    +0.024 C 
ATOM     13  C   UNL     1      10.417   6.145  -1.633  0.00  0.00    +0.019 C 
ATOM     14  C   UNL     1      12.183   6.842   0.624  0.00  0.00    +0.094 C 
ATOM     15  C   UNL     1      11.915   5.810  -1.531  0.00  0.00    +0.085 C 
ENDROOT
BRANCH  10  17
ATOM      5  N   UNL     1       8.984   8.504   1.724  0.00  0.00    -0.237 NA
ATOM      6  N   UNL     1       9.369   9.527   3.873  0.00  0.00    -0.232 NA
ATOM     17  C   UNL     1      10.302   8.227   1.662  0.00  0.00    +0.050 A 
ATOM     18  C   UNL     1      11.205   8.562   2.650  0.00  0.00    +0.052 A 
ATOM     19  C   UNL     1      10.676   9.217   3.744  0.00  0.00    +0.076 A 
ATOM     20  C   UNL     1       8.591   9.145   2.842  0.00  0.00    +0.127 A 
ATOM     23  C   UNL     1       7.140   9.471   2.947  0.00  0.00    +0.088 C 
BRANCH  19  22
ATOM      1 BR   UNL     1      11.821  12.197   3.550  0.00  0.00    -0.050 Br
ATOM     22  C   UNL     1      11.515   9.625   4.846  0.00  0.00    +0.014 A 
ATOM     24  C   UNL     1      12.088  10.895   4.908  0.00  0.00    +0.027 A 
ATOM     25  C   UNL     1      11.744   8.705   5.869  0.00  0.00    +0.011 A 
ATOM     27  C   UNL     1      12.892  11.246   5.994  0.00  0.00    +0.016 A 
ATOM     28  C   UNL     1      12.547   9.055   6.954  0.00  0.00    +0.001 A 
ATOM     29  C   UNL     1      13.121  10.325   7.017  0.00  0.00    +0.001 A 
ENDBRANCH  19  22
ENDBRANCH  10  17
BRANCH  11  16
ATOM     16  C   UNL     1      11.905   3.963   1.761  0.00  0.00    +0.124 C 
BRANCH  16   4
ATOM      2  O   UNL     1      11.819   5.734   4.010  0.00  0.00    -0.253 OA
ATOM      4  N   UNL     1      10.893   4.015   2.769  0.00  0.00    -0.298 N 
ATOM      7  N   UNL     1       9.801   4.734   4.671  0.00  0.00    -0.269 N 
ATOM     21  C   UNL     1      10.918   4.915   3.850  0.00  0.00    +0.304 C 
ATOM     36  H   UNL     1      10.118   3.362   2.705  0.00  0.00    +0.150 HD
ATOM     37  H   UNL     1       9.145   4.008   4.395  0.00  0.00    +0.156 HD
BRANCH   7  26
ATOM     26  C   UNL     1       9.466   5.441   5.849  0.00  0.00    +0.036 A 
ATOM     30  C   UNL     1       9.809   4.921   7.098  0.00  0.00    +0.042 A 
ATOM     31  C   UNL     1       8.793   6.659   5.762  0.00  0.00    +0.023 A 
ATOM     32  C   UNL     1       9.478   5.619   8.259  0.00  0.00    +0.054 A 
ATOM     33  C   UNL     1       8.462   7.358   6.924  0.00  0.00    +0.003 A 
ATOM     34  C   UNL     1       8.804   6.838   8.172  0.00  0.00    +0.019 A 
BRANCH  32  35
ATOM      8  N   UNL     1      10.112   4.654  10.576  0.00  0.00    -0.191 NA
ATOM     35  C   UNL     1       9.828   5.087   9.537  0.00  0.00    +0.099 C 
ENDBRANCH  32  35
ENDBRANCH   7  26
ENDBRANCH  16   4
ENDBRANCH  11  16
TORSDOF 6
ENDMDL
MODEL 7
REMARK VINA RESULT:      -6.2      2.120      3.122
REMARK  Name = 45360453
REMARK  7 active torsions:
REMARK  status: ('A' for Active; 'I' for Inactive)
REMARK    1  A    between atoms: N_4  and  C_16
REMARK    2  A    between atoms: N_7  and  C_26
REMARK    3  A    between atoms: C_10  and  C_17
REMARK    4  A    between atoms: C_11  and  C_16
REMARK    5  A    between atoms: C_19  and  C_22
REMARK    6  A    between atoms: C_20  and  C_23
REMARK    7  A    between atoms: C_32  and  C_35
REMARK                            x       y       z     vdW  Elec       q    Type
REMARK                         _______ _______ _______ _____ _____    ______ ____
ROOT
ATOM      3  N   UNL     1      -5.847 -10.453   9.433  0.00  0.00    -0.297 NA
ATOM      9  C   UNL     1      -3.789  -9.690  10.836  0.00  0.00    +0.002 C 
ATOM     10  C   UNL     1      -3.832 -11.240  10.731  0.00  0.00    +0.055 C 
ATOM     11  C   UNL     1      -6.274  -9.488  10.481  0.00  0.00    +0.074 C 
ATOM     12  C   UNL     1      -5.111  -9.184  11.450  0.00  0.00    +0.024 C 
ATOM     13  C   UNL     1      -3.721  -9.149   9.393  0.00  0.00    +0.019 C 
ATOM     14  C   UNL     1      -5.181 -11.623  10.061  0.00  0.00    +0.094 C 
ATOM     15  C   UNL     1      -4.858  -9.771   8.564  0.00  0.00    +0.085 C 
ENDROOT
BRANCH  10  17
ATOM      5  N   UNL     1      -2.779 -13.143  11.851  0.00  0.00    -0.237 NA
ATOM      6  N   UNL     1      -3.042 -13.551  14.212  0.00  0.00    -0.232 NA
ATOM     17  C   UNL     1      -3.561 -12.053  11.990  0.00  0.00    +0.050 A 
ATOM     18  C   UNL     1      -4.112 -11.653  13.190  0.00  0.00    +0.052 A 
ATOM     19  C   UNL     1      -3.816 -12.447  14.278  0.00  0.00    +0.076 A 
ATOM     20  C   UNL     1      -2.563 -13.835  12.986  0.00  0.00    +0.127 A 
ATOM     23  C   UNL     1      -1.704 -15.049  12.872  0.00  0.00    +0.088 C 
BRANCH  19  22
ATOM      1 BR   UNL     1      -1.923 -10.609  16.086  0.00  0.00    -0.050 Br
ATOM     22  C   UNL     1      -4.333 -12.138  15.590  0.00  0.00    +0.014 A 
ATOM     24  C   UNL     1      -3.626 -11.346  16.495  0.00  0.00    +0.027 A 
ATOM     25  C   UNL     1      -5.579 -12.657  15.941  0.00  0.00    +0.011 A 
ATOM     27  C   UNL     1      -4.166 -11.074  17.753  0.00  0.00    +0.016 A 
ATOM     28  C   UNL     1      -6.118 -12.385  17.198  0.00  0.00    +0.001 A 
ATOM     29  C   UNL     1      -5.412 -11.593  18.104  0.00  0.00    +0.001 A 
ENDBRANCH  19  22
ENDBRANCH  10  17
BRANCH  11  16
ATOM     16  C   UNL     1      -7.529  -9.951  11.223  0.00  0.00    +0.124 C 
BRANCH  16   4
ATOM      2  O   UNL     1      -9.660 -10.149  13.127  0.00  0.00    -0.253 OA
ATOM      4  N   UNL     1      -7.493  -9.542  12.593  0.00  0.00    -0.298 N 
ATOM      7  N   UNL     1      -8.255  -9.187  14.742  0.00  0.00    -0.269 N 
ATOM     21  C   UNL     1      -8.583  -9.670  13.472  0.00  0.00    +0.304 C 
ATOM     36  H   UNL     1      -6.634  -9.132  12.948  0.00  0.00    +0.150 HD
ATOM     37  H   UNL     1      -7.313  -8.821  14.862  0.00  0.00    +0.156 HD
BRANCH   7  26
ATOM     26  C   UNL     1      -9.075  -9.142  15.893  0.00  0.00    +0.036 A 
ATOM     30  C   UNL     1      -8.829 -10.004  16.961  0.00  0.00    +0.042 A 
ATOM     31  C   UNL     1     -10.132  -8.233  15.959  0.00  0.00    +0.023 A 
ATOM     32  C   UNL     1      -9.639  -9.959  18.096  0.00  0.00    +0.054 A 
ATOM     33  C   UNL     1     -10.942  -8.187  17.094  0.00  0.00    +0.003 A 
ATOM     34  C   UNL     1     -10.695  -9.050  18.163  0.00  0.00    +0.019 A 
BRANCH  32  35
ATOM      8  N   UNL     1      -9.183 -11.560  20.079  0.00  0.00    -0.191 NA
ATOM     35  C   UNL     1      -9.387 -10.842  19.190  0.00  0.00    +0.099 C 
ENDBRANCH  32  35
ENDBRANCH   7  26
ENDBRANCH  16   4
ENDBRANCH  11  16
TORSDOF 6
ENDMDL
MODEL 8
REMARK VINA RESULT:      -6.2      3.612      7.775
REMARK  Name = 45360453
REMARK  7 active torsions:
REMARK  status: ('A' for Active; 'I' for Inactive)
REMARK    1  A    between atoms: N_4  and  C_16
REMARK    2  A    between atoms: N_7  and  C_26
REMARK    3  A    between atoms: C_10  and  C_17
REMARK    4  A    between atoms: C_11  and  C_16
REMARK    5  A    between atoms: C_19  and  C_22
REMARK    6  A    between atoms: C_20  and  C_23
REMARK    7  A    between atoms: C_32  and  C_35
REMARK                            x       y       z     vdW  Elec       q    Type
REMARK                         _______ _______ _______ _____ _____    ______ ____
ROOT
ATOM      3  N   UNL     1      -5.818 -11.469  10.790  0.00  0.00    -0.297 NA
ATOM      9  C   UNL     1      -3.300 -11.694  11.418  0.00  0.00    +0.002 C 
ATOM     10  C   UNL     1      -4.199 -12.062  12.632  0.00  0.00    +0.055 C 
ATOM     11  C   UNL     1      -5.084 -10.236  10.400  0.00  0.00    +0.074 C 
ATOM     12  C   UNL     1      -3.640 -10.265  10.947  0.00  0.00    +0.024 C 
ATOM     13  C   UNL     1      -3.685 -12.653  10.273  0.00  0.00    +0.019 C 
ATOM     14  C   UNL     1      -5.664 -11.712  12.247  0.00  0.00    +0.094 C 
ATOM     15  C   UNL     1      -5.209 -12.609  10.064  0.00  0.00    +0.085 C 
ENDROOT
BRANCH  10  17
ATOM      5  N   UNL     1      -2.558 -11.049  14.136  0.00  0.00    -0.237 NA
ATOM      6  N   UNL     1      -3.069 -10.533  16.435  0.00  0.00    -0.232 NA
ATOM     17  C   UNL     1      -3.815 -11.519  14.001  0.00  0.00    +0.050 A 
ATOM     18  C   UNL     1      -4.744 -11.530  15.021  0.00  0.00    +0.052 A 
ATOM     19  C   UNL     1      -4.311 -11.019  16.228  0.00  0.00    +0.076 A 
ATOM     20  C   UNL     1      -2.257 -10.577  15.361  0.00  0.00    +0.127 A 
ATOM     23  C   UNL     1      -0.875 -10.050  15.550  0.00  0.00    +0.088 C 
BRANCH  19  22
ATOM      1 BR   UNL     1      -7.231  -9.843  15.668  0.00  0.00    -0.050 Br
ATOM     22  C   UNL     1      -5.186 -10.976  17.376  0.00  0.00    +0.014 A 
ATOM     24  C   UNL     1      -6.491 -10.491  17.293  0.00  0.00    +0.027 A 
ATOM     25  C   UNL     1      -4.688 -11.438  18.595  0.00  0.00    +0.011 A 
ATOM     27  C   UNL     1      -7.300 -10.468  18.430  0.00  0.00    +0.016 A 
ATOM     28  C   UNL     1      -5.497 -11.415  19.731  0.00  0.00    +0.001 A 
ATOM     29  C   UNL     1      -6.802 -10.930  19.649  0.00  0.00    +0.001 A 
ENDBRANCH  19  22
ENDBRANCH  10  17
BRANCH  11  16
ATOM     16  C   UNL     1      -5.824  -8.961  10.810  0.00  0.00    +0.124 C 
BRANCH  16   4
ATOM      2  O   UNL     1      -7.890  -9.448   8.888  0.00  0.00    -0.253 OA
ATOM      4  N   UNL     1      -6.134  -8.160   9.668  0.00  0.00    -0.298 N 
ATOM      7  N   UNL     1      -7.235  -7.504   7.749  0.00  0.00    -0.269 N 
ATOM     21  C   UNL     1      -7.168  -8.463   8.763  0.00  0.00    +0.304 C 
ATOM     36  H   UNL     1      -5.574  -7.330   9.498  0.00  0.00    +0.150 HD
ATOM     37  H   UNL     1      -6.559  -6.745   7.792  0.00  0.00    +0.156 HD
BRANCH   7  26
ATOM     26  C   UNL     1      -8.134  -7.455   6.658  0.00  0.00    +0.036 A 
ATOM     30  C   UNL     1      -7.728  -7.893   5.397  0.00  0.00    +0.042 A 
ATOM     31  C   UNL     1      -9.428  -6.969   6.844  0.00  0.00    +0.023 A 
ATOM     32  C   UNL     1      -8.616  -7.845   4.322  0.00  0.00    +0.054 A 
ATOM     33  C   UNL     1     -10.316  -6.920   5.769  0.00  0.00    +0.003 A 
ATOM     34  C   UNL     1      -9.910  -7.358   4.508  0.00  0.00    +0.019 A 
BRANCH  32  35
ATOM      8  N   UNL     1      -7.863  -8.656   1.982  0.00  0.00    -0.191 NA
ATOM     35  C   UNL     1      -8.200  -8.292   3.031  0.00  0.00    +0.099 C 
ENDBRANCH  32  35
ENDBRANCH   7  26
ENDBRANCH  16   4
ENDBRANCH  11  16
TORSDOF 6
ENDMDL
MODEL 9
REMARK VINA RESULT:      -6.0     23.899     27.640
REMARK  Name = 45360453
REMARK  7 active torsions:
REMARK  status: ('A' for Active; 'I' for Inactive)
REMARK    1  A    between atoms: N_4  and  C_16
REMARK    2  A    between atoms: N_7  and  C_26
REMARK    3  A    between atoms: C_10  and  C_17
REMARK    4  A    between atoms: C_11  and  C_16
REMARK    5  A    between atoms: C_19  and  C_22
REMARK    6  A    between atoms: C_20  and  C_23
REMARK    7  A    between atoms: C_32  and  C_35
REMARK                            x       y       z     vdW  Elec       q    Type
REMARK                         _______ _______ _______ _____ _____    ______ ____
ROOT
ATOM      3  N   UNL     1       9.834   5.701   5.128  0.00  0.00    -0.297 NA
ATOM      9  C   UNL     1      10.312   6.518   7.555  0.00  0.00    +0.002 C 
ATOM     10  C   UNL     1       9.165   7.351   6.917  0.00  0.00    +0.055 C 
ATOM     11  C   UNL     1      11.291   5.939   5.308  0.00  0.00    +0.074 C 
ATOM     12  C   UNL     1      11.570   6.617   6.667  0.00  0.00    +0.024 C 
ATOM     13  C   UNL     1       9.856   5.044   7.534  0.00  0.00    +0.019 C 
ATOM     14  C   UNL     1       9.077   6.946   5.418  0.00  0.00    +0.094 C 
ATOM     15  C   UNL     1       9.419   4.669   6.108  0.00  0.00    +0.085 C 
ENDROOT
BRANCH  10  17
ATOM      5  N   UNL     1       8.930   9.613   6.017  0.00  0.00    -0.237 NA
ATOM      6  N   UNL     1       9.202  11.576   7.389  0.00  0.00    -0.232 NA
ATOM     17  C   UNL     1       9.182   8.861   7.107  0.00  0.00    +0.050 A 
ATOM     18  C   UNL     1       9.450   9.386   8.355  0.00  0.00    +0.052 A 
ATOM     19  C   UNL     1       9.447  10.763   8.438  0.00  0.00    +0.076 A 
ATOM     20  C   UNL     1       8.954  10.943   6.226  0.00  0.00    +0.127 A 
ATOM     23  C   UNL     1       8.681  11.808   5.043  0.00  0.00    +0.088 C 
BRANCH  19  22
ATOM      1 BR   UNL     1      12.443  11.820   8.795  0.00  0.00    -0.050 Br
ATOM     22  C   UNL     1       9.714  11.436   9.686  0.00  0.00    +0.014 A 
ATOM     24  C   UNL     1      10.972  11.956   9.991  0.00  0.00    +0.027 A 
ATOM     25  C   UNL     1       8.668  11.560  10.600  0.00  0.00    +0.011 A 
ATOM     27  C   UNL     1      11.185  12.599  11.211  0.00  0.00    +0.016 A 
ATOM     28  C   UNL     1       8.880  12.203  11.819  0.00  0.00    +0.001 A 
ATOM     29  C   UNL     1      10.138  12.723  12.125  0.00  0.00    +0.001 A 
ENDBRANCH  19  22
ENDBRANCH  10  17
BRANCH  11  16
ATOM     16  C   UNL     1      11.902   6.722   4.144  0.00  0.00    +0.124 C 
BRANCH  16   4
ATOM      2  O   UNL     1      11.365   6.313   1.361  0.00  0.00    -0.253 OA
ATOM      4  N   UNL     1      12.607   5.851   3.256  0.00  0.00    -0.298 N 
ATOM      7  N   UNL     1      13.144   4.784   1.281  0.00  0.00    -0.269 N 
ATOM     21  C   UNL     1      12.285   5.700   1.895  0.00  0.00    +0.304 C 
ATOM     36  H   UNL     1      13.379   5.308   3.631  0.00  0.00    +0.150 HD
ATOM     37  H   UNL     1      13.858   4.363   1.870  0.00  0.00    +0.156 HD
BRANCH   7  26
ATOM     26  C   UNL     1      13.144   4.365  -0.069  0.00  0.00    +0.036 A 
ATOM     30  C   UNL     1      12.101   3.578  -0.557  0.00  0.00    +0.042 A 
ATOM     31  C   UNL     1      14.189   4.741  -0.914  0.00  0.00    +0.023 A 
ATOM     32  C   UNL     1      12.103   3.165  -1.890  0.00  0.00    +0.054 A 
ATOM     33  C   UNL     1      14.191   4.328  -2.247  0.00  0.00    +0.003 A 
ATOM     34  C   UNL     1      13.148   3.541  -2.735  0.00  0.00    +0.019 A 
BRANCH  32  35
ATOM      8  N   UNL     1      10.169   1.702  -2.796  0.00  0.00    -0.191 NA
ATOM     35  C   UNL     1      11.036   2.358  -2.390  0.00  0.00    +0.099 C 
ENDBRANCH  32  35
ENDBRANCH   7  26
ENDBRANCH  16   4
ENDBRANCH  11  16
TORSDOF 6
ENDMDL
MODEL 10
REMARK VINA RESULT:      -6.0     24.818     27.798
REMARK  Name = 45360453
REMARK  7 active torsions:
REMARK  status: ('A' for Active; 'I' for Inactive)
REMARK    1  A    between atoms: N_4  and  C_16
REMARK    2  A    between atoms: N_7  and  C_26
REMARK    3  A    between atoms: C_10  and  C_17
REMARK    4  A    between atoms: C_11  and  C_16
REMARK    5  A    between atoms: C_19  and  C_22
REMARK    6  A    between atoms: C_20  and  C_23
REMARK    7  A    between atoms: C_32  and  C_35
REMARK                            x       y       z     vdW  Elec       q    Type
REMARK                         _______ _______ _______ _____ _____    ______ ____
ROOT
ATOM      3  N   UNL     1      18.538  -3.076  32.192  0.00  0.00    -0.297 NA
ATOM      9  C   UNL     1      15.972  -2.731  31.912  0.00  0.00    +0.002 C 
ATOM     10  C   UNL     1      16.315  -4.246  31.952  0.00  0.00    +0.055 C 
ATOM     11  C   UNL     1      18.271  -2.119  31.086  0.00  0.00    +0.074 C 
ATOM     12  C   UNL     1      16.761  -2.059  30.769  0.00  0.00    +0.024 C 
ATOM     13  C   UNL     1      16.483  -2.124  33.235  0.00  0.00    +0.019 C 
ATOM     14  C   UNL     1      17.865  -4.371  31.916  0.00  0.00    +0.094 C 
ATOM     15  C   UNL     1      17.959  -2.509  33.434  0.00  0.00    +0.085 C 
ENDROOT
BRANCH  10  17
ATOM      5  N   UNL     1      14.352  -5.488  31.188  0.00  0.00    -0.237 NA
ATOM      6  N   UNL     1      14.371  -6.806  29.170  0.00  0.00    -0.232 NA
ATOM     17  C   UNL     1      15.637  -5.163  30.943  0.00  0.00    +0.050 A 
ATOM     18  C   UNL     1      16.348  -5.613  29.850  0.00  0.00    +0.052 A 
ATOM     19  C   UNL     1      15.657  -6.440  28.988  0.00  0.00    +0.076 A 
ATOM     20  C   UNL     1      13.788  -6.300  30.273  0.00  0.00    +0.127 A 
ATOM     23  C   UNL     1      12.366  -6.684  30.510  0.00  0.00    +0.088 C 
BRANCH  19  22
ATOM      1 BR   UNL     1      17.055  -9.289  29.377  0.00  0.00    -0.050 Br
ATOM     22  C   UNL     1      16.288  -6.981  27.807  0.00  0.00    +0.014 A 
ATOM     24  C   UNL     1      16.937  -8.215  27.815  0.00  0.00    +0.027 A 
ATOM     25  C   UNL     1      16.231  -6.228  26.633  0.00  0.00    +0.011 A 
ATOM     27  C   UNL     1      17.532  -8.697  26.649  0.00  0.00    +0.016 A 
ATOM     28  C   UNL     1      16.826  -6.711  25.468  0.00  0.00    +0.001 A 
ATOM     29  C   UNL     1      17.477  -7.945  25.475  0.00  0.00    +0.001 A 
ENDBRANCH  19  22
ENDBRANCH  10  17
BRANCH  11  16
ATOM     16  C   UNL     1      19.104  -2.421  29.839  0.00  0.00    +0.124 C 
BRANCH  16   4
ATOM      2  O   UNL     1      19.922  -2.217  27.101  0.00  0.00    -0.253 OA
ATOM      4  N   UNL     1      18.269  -2.547  28.685  0.00  0.00    -0.298 N 
ATOM      7  N   UNL     1      17.701  -2.602  26.449  0.00  0.00    -0.269 N 
ATOM     21  C   UNL     1      18.743  -2.434  27.365  0.00  0.00    +0.304 C 
ATOM     36  H   UNL     1      17.278  -2.722  28.827  0.00  0.00    +0.150 HD
ATOM     37  H   UNL     1      16.777  -2.776  26.835  0.00  0.00    +0.156 HD
BRANCH   7  26
ATOM     26  C   UNL     1      17.771  -2.560  25.037  0.00  0.00    +0.036 A 
ATOM     30  C   UNL     1      18.324  -3.630  24.333  0.00  0.00    +0.042 A 
ATOM     31  C   UNL     1      17.286  -1.448  24.349  0.00  0.00    +0.023 A 
ATOM     32  C   UNL     1      18.393  -3.587  22.940  0.00  0.00    +0.054 A 
ATOM     33  C   UNL     1      17.354  -1.406  22.956  0.00  0.00    +0.003 A 
ATOM     34  C   UNL     1      17.907  -2.475  22.251  0.00  0.00    +0.019 A 
BRANCH  32  35
ATOM      8  N   UNL     1      19.420  -5.571  21.631  0.00  0.00    -0.191 NA
ATOM     35  C   UNL     1      18.960  -4.682  22.218  0.00  0.00    +0.099 C 
ENDBRANCH  32  35
ENDBRANCH   7  26
ENDBRANCH  16   4
ENDBRANCH  11  16
TORSDOF 6
ENDMDL
