MODEL 1
REMARK VINA RESULT:      -7.2      0.000      0.000
REMARK  Name = 51136883
REMARK  10 active torsions:
REMARK  status: ('A' for Active; 'I' for Inactive)
REMARK    1  A    between atoms: O_3  and  C_30
REMARK    2  A    between atoms: O_3  and  C_31
REMARK    3  A    between atoms: N_4  and  C_13
REMARK    4  A    between atoms: N_8  and  C_23
REMARK    5  A    between atoms: C_9  and  C_15
REMARK    6  A    between atoms: C_13  and  C_14
REMARK    7  A    between atoms: C_14  and  C_16
REMARK    8  A    between atoms: C_14  and  C_17
REMARK    9  A    between atoms: C_18  and  C_19
REMARK   10  A    between atoms: C_24  and  C_25
REMARK                            x       y       z     vdW  Elec       q    Type
REMARK                         _______ _______ _______ _____ _____    ______ ____
ROOT
ATOM      7  N   UNL     1      18.183   5.256  18.884  0.00  0.00    -0.239 NA
ATOM     19  C   UNL     1      16.387   6.666  19.678  0.00  0.00    +0.041 A 
ATOM     20  C   UNL     1      17.078   6.893  20.863  0.00  0.00    +0.016 A 
ATOM     21  C   UNL     1      16.977   5.847  18.728  0.00  0.00    +0.124 A 
ATOM     22  C   UNL     1      18.322   6.302  21.059  0.00  0.00    +0.044 A 
ATOM     23  C   UNL     1      18.825   5.500  20.049  0.00  0.00    +0.125 A 
ENDROOT
BRANCH  19  18
ATOM      1  O   UNL     1      13.064   7.856  19.677  0.00  0.00    -0.336 OA
ATOM      5  N   UNL     1      14.846   8.000  18.328  0.00  0.00    -0.190 NA
ATOM      6  N   UNL     1      14.084   7.130  20.302  0.00  0.00    -0.056 NA
ATOM     15  C   UNL     1      13.595   8.335  18.521  0.00  0.00    +0.245 A 
ATOM     18  C   UNL     1      15.102   7.261  19.446  0.00  0.00    +0.204 A 
BRANCH  15   9
ATOM      4  N   UNL     1      12.829   8.865  16.214  0.00  0.00    -0.291 NA
ATOM      9  C   UNL     1      12.678   9.168  17.651  0.00  0.00    +0.146 C 
ATOM     10  C   UNL     1      11.188   8.918  17.948  0.00  0.00    +0.030 C 
ATOM     11  C   UNL     1      11.531   9.133  15.595  0.00  0.00    +0.085 C 
ATOM     12  C   UNL     1      10.573   8.539  16.609  0.00  0.00    +0.017 C 
BRANCH   4  13
ATOM     13  C   UNL     1      13.904   9.616  15.578  0.00  0.00    +0.088 C 
BRANCH  13  14
ATOM     14  C   UNL     1      13.905  11.099  15.986  0.00  0.00    -0.003 C 
ATOM     16  C   UNL     1      13.875  12.041  14.779  0.00  0.00    +0.008 C 
ATOM     17  C   UNL     1      15.138  11.399  16.841  0.00  0.00    +0.008 C 
ENDBRANCH  13  14
ENDBRANCH   4  13
ENDBRANCH  15   9
ENDBRANCH  19  18
BRANCH  23   8
ATOM      2  O   UNL     1      21.528   6.754  20.377  0.00  0.00    -0.270 OA
ATOM      8  N   UNL     1      20.077   4.909  20.257  0.00  0.00    -0.266 N 
ATOM     24  C   UNL     1      21.313   5.547  20.404  0.00  0.00    +0.249 C 
ATOM     32  H   UNL     1      20.041   3.894  20.261  0.00  0.00    +0.157 HD
BRANCH  24  25
ATOM     25  C   UNL     1      22.468   4.643  20.643  0.00  0.00    +0.037 A 
ATOM     26  C   UNL     1      23.764   5.080  20.367  0.00  0.00    +0.016 A 
ATOM     27  C   UNL     1      22.257   3.358  21.141  0.00  0.00    +0.016 A 
ATOM     28  C   UNL     1      24.848   4.231  20.590  0.00  0.00    +0.046 A 
ATOM     29  C   UNL     1      23.341   2.509  21.364  0.00  0.00    +0.046 A 
ATOM     30  C   UNL     1      24.637   2.946  21.088  0.00  0.00    +0.120 A 
BRANCH  30   3
ATOM      3  O   UNL     1      25.696   2.118  21.305  0.00  0.00    -0.495 OA
ATOM     31  C   UNL     1      25.429   0.886  21.973  0.00  0.00    +0.277 C 
ENDBRANCH  30   3
ENDBRANCH  24  25
ENDBRANCH  23   8
TORSDOF 7
ENDMDL
MODEL 2
REMARK VINA RESULT:      -7.1      1.751      2.628
REMARK  Name = 51136883
REMARK  10 active torsions:
REMARK  status: ('A' for Active; 'I' for Inactive)
REMARK    1  A    between atoms: O_3  and  C_30
REMARK    2  A    between atoms: O_3  and  C_31
REMARK    3  A    between atoms: N_4  and  C_13
REMARK    4  A    between atoms: N_8  and  C_23
REMARK    5  A    between atoms: C_9  and  C_15
REMARK    6  A    between atoms: C_13  and  C_14
REMARK    7  A    between atoms: C_14  and  C_16
REMARK    8  A    between atoms: C_14  and  C_17
REMARK    9  A    between atoms: C_18  and  C_19
REMARK   10  A    between atoms: C_24  and  C_25
REMARK                            x       y       z     vdW  Elec       q    Type
REMARK                         _______ _______ _______ _____ _____    ______ ____
ROOT
ATOM      7  N   UNL     1      18.610   5.739  19.938  0.00  0.00    -0.239 NA
ATOM     19  C   UNL     1      17.474   7.733  20.699  0.00  0.00    +0.041 A 
ATOM     20  C   UNL     1      18.501   7.982  21.604  0.00  0.00    +0.016 A 
ATOM     21  C   UNL     1      17.575   6.609  19.896  0.00  0.00    +0.124 A 
ATOM     22  C   UNL     1      19.583   7.111  21.676  0.00  0.00    +0.044 A 
ATOM     23  C   UNL     1      19.589   6.014  20.830  0.00  0.00    +0.125 A 
ENDROOT
BRANCH  19  18
ATOM      1  O   UNL     1      15.115  10.358  20.660  0.00  0.00    -0.336 OA
ATOM      5  N   UNL     1      15.121   8.166  20.203  0.00  0.00    -0.190 NA
ATOM      6  N   UNL     1      16.422   9.915  20.893  0.00  0.00    -0.056 NA
ATOM     15  C   UNL     1      14.413   9.266  20.258  0.00  0.00    +0.245 A 
ATOM     18  C   UNL     1      16.346   8.613  20.602  0.00  0.00    +0.204 A 
BRANCH  15   9
ATOM      4  N   UNL     1      12.224   8.219  19.704  0.00  0.00    -0.291 NA
ATOM      9  C   UNL     1      12.949   9.484  19.937  0.00  0.00    +0.146 C 
ATOM     10  C   UNL     1      12.186  10.166  21.087  0.00  0.00    +0.030 C 
ATOM     11  C   UNL     1      10.838   8.456  20.106  0.00  0.00    +0.085 C 
ATOM     12  C   UNL     1      11.015   9.241  21.391  0.00  0.00    +0.017 C 
BRANCH   4  13
ATOM     13  C   UNL     1      12.323   7.746  18.329  0.00  0.00    +0.088 C 
BRANCH  13  14
ATOM     14  C   UNL     1      12.101   8.872  17.304  0.00  0.00    -0.003 C 
ATOM     16  C   UNL     1      10.810   8.688  16.500  0.00  0.00    +0.008 C 
ATOM     17  C   UNL     1      13.295   8.943  16.349  0.00  0.00    +0.008 C 
ENDBRANCH  13  14
ENDBRANCH   4  13
ENDBRANCH  15   9
ENDBRANCH  19  18
BRANCH  23   8
ATOM      2  O   UNL     1      22.490   6.485  20.241  0.00  0.00    -0.270 OA
ATOM      8  N   UNL     1      20.682   5.143  20.911  0.00  0.00    -0.266 N 
ATOM     24  C   UNL     1      22.022   5.418  20.622  0.00  0.00    +0.249 C 
ATOM     32  H   UNL     1      20.418   4.201  21.184  0.00  0.00    +0.157 HD
BRANCH  24  25
ATOM     25  C   UNL     1      22.962   4.286  20.834  0.00  0.00    +0.037 A 
ATOM     26  C   UNL     1      22.684   3.320  21.801  0.00  0.00    +0.016 A 
ATOM     27  C   UNL     1      24.122   4.190  20.066  0.00  0.00    +0.016 A 
ATOM     28  C   UNL     1      23.566   2.259  22.001  0.00  0.00    +0.046 A 
ATOM     29  C   UNL     1      25.004   3.128  20.265  0.00  0.00    +0.046 A 
ATOM     30  C   UNL     1      24.726   2.163  21.233  0.00  0.00    +0.120 A 
BRANCH  30   3
ATOM      3  O   UNL     1      25.588   1.126  21.428  0.00  0.00    -0.495 OA
ATOM     31  C   UNL     1      25.437   0.374  22.631  0.00  0.00    +0.277 C 
ENDBRANCH  30   3
ENDBRANCH  24  25
ENDBRANCH  23   8
TORSDOF 7
ENDMDL
MODEL 3
REMARK VINA RESULT:      -7.0      2.496      4.150
REMARK  Name = 51136883
REMARK  10 active torsions:
REMARK  status: ('A' for Active; 'I' for Inactive)
REMARK    1  A    between atoms: O_3  and  C_30
REMARK    2  A    between atoms: O_3  and  C_31
REMARK    3  A    between atoms: N_4  and  C_13
REMARK    4  A    between atoms: N_8  and  C_23
REMARK    5  A    between atoms: C_9  and  C_15
REMARK    6  A    between atoms: C_13  and  C_14
REMARK    7  A    between atoms: C_14  and  C_16
REMARK    8  A    between atoms: C_14  and  C_17
REMARK    9  A    between atoms: C_18  and  C_19
REMARK   10  A    between atoms: C_24  and  C_25
REMARK                            x       y       z     vdW  Elec       q    Type
REMARK                         _______ _______ _______ _____ _____    ______ ____
ROOT
ATOM      7  N   UNL     1      20.787   5.781  22.381  0.00  0.00    -0.239 NA
ATOM     19  C   UNL     1      18.908   6.510  21.046  0.00  0.00    +0.041 A 
ATOM     20  C   UNL     1      19.187   5.528  20.102  0.00  0.00    +0.016 A 
ATOM     21  C   UNL     1      19.730   6.595  22.158  0.00  0.00    +0.124 A 
ATOM     22  C   UNL     1      20.266   4.671  20.297  0.00  0.00    +0.044 A 
ATOM     23  C   UNL     1      21.028   4.838  21.442  0.00  0.00    +0.125 A 
ENDROOT
BRANCH  19  18
ATOM      1  O   UNL     1      16.577   9.158  20.909  0.00  0.00    -0.336 OA
ATOM      5  N   UNL     1      16.639   7.008  20.286  0.00  0.00    -0.190 NA
ATOM      6  N   UNL     1      17.843   8.684  21.272  0.00  0.00    -0.056 NA
ATOM     15  C   UNL     1      15.932   8.109  20.336  0.00  0.00    +0.245 A 
ATOM     18  C   UNL     1      17.803   7.408  20.873  0.00  0.00    +0.204 A 
BRANCH  15   9
ATOM      4  N   UNL     1      13.740   9.196  20.788  0.00  0.00    -0.291 NA
ATOM      9  C   UNL     1      14.522   8.368  19.848  0.00  0.00    +0.146 C 
ATOM     10  C   UNL     1      14.487   9.146  18.520  0.00  0.00    +0.030 C 
ATOM     11  C   UNL     1      12.770   9.936  19.980  0.00  0.00    +0.085 C 
ATOM     12  C   UNL     1      13.613  10.362  18.794  0.00  0.00    +0.017 C 
BRANCH   4  13
ATOM     13  C   UNL     1      13.096   8.418  21.839  0.00  0.00    +0.088 C 
BRANCH  13  14
ATOM     14  C   UNL     1      11.687   7.945  21.441  0.00  0.00    -0.003 C 
ATOM     16  C   UNL     1      10.618   8.368  22.452  0.00  0.00    +0.008 C 
ATOM     17  C   UNL     1      11.677   6.422  21.289  0.00  0.00    +0.008 C 
ENDBRANCH  13  14
ENDBRANCH   4  13
ENDBRANCH  15   9
ENDBRANCH  19  18
BRANCH  23   8
ATOM      2  O   UNL     1      23.716   4.788  20.118  0.00  0.00    -0.270 OA
ATOM      8  N   UNL     1      22.111   3.972  21.628  0.00  0.00    -0.266 N 
ATOM     24  C   UNL     1      23.350   3.995  20.979  0.00  0.00    +0.249 C 
ATOM     32  H   UNL     1      21.918   3.235  22.300  0.00  0.00    +0.157 HD
BRANCH  24  25
ATOM     25  C   UNL     1      24.314   2.953  21.417  0.00  0.00    +0.037 A 
ATOM     26  C   UNL     1      24.038   1.605  21.186  0.00  0.00    +0.016 A 
ATOM     27  C   UNL     1      25.494   3.321  22.061  0.00  0.00    +0.016 A 
ATOM     28  C   UNL     1      24.943   0.627  21.597  0.00  0.00    +0.046 A 
ATOM     29  C   UNL     1      26.400   2.343  22.473  0.00  0.00    +0.046 A 
ATOM     30  C   UNL     1      26.123   0.995  22.242  0.00  0.00    +0.120 A 
BRANCH  30   3
ATOM      3  O   UNL     1      27.006   0.040  22.644  0.00  0.00    -0.495 OA
ATOM     31  C   UNL     1      26.584  -1.318  22.540  0.00  0.00    +0.277 C 
ENDBRANCH  30   3
ENDBRANCH  24  25
ENDBRANCH  23   8
TORSDOF 7
ENDMDL
MODEL 4
REMARK VINA RESULT:      -7.0      2.008      3.395
REMARK  Name = 51136883
REMARK  10 active torsions:
REMARK  status: ('A' for Active; 'I' for Inactive)
REMARK    1  A    between atoms: O_3  and  C_30
REMARK    2  A    between atoms: O_3  and  C_31
REMARK    3  A    between atoms: N_4  and  C_13
REMARK    4  A    between atoms: N_8  and  C_23
REMARK    5  A    between atoms: C_9  and  C_15
REMARK    6  A    between atoms: C_13  and  C_14
REMARK    7  A    between atoms: C_14  and  C_16
REMARK    8  A    between atoms: C_14  and  C_17
REMARK    9  A    between atoms: C_18  and  C_19
REMARK   10  A    between atoms: C_24  and  C_25
REMARK                            x       y       z     vdW  Elec       q    Type
REMARK                         _______ _______ _______ _____ _____    ______ ____
ROOT
ATOM      7  N   UNL     1      20.851   5.741  22.463  0.00  0.00    -0.239 NA
ATOM     19  C   UNL     1      18.939   6.499  21.191  0.00  0.00    +0.041 A 
ATOM     20  C   UNL     1      19.213   5.558  20.204  0.00  0.00    +0.016 A 
ATOM     21  C   UNL     1      19.780   6.550  22.290  0.00  0.00    +0.124 A 
ATOM     22  C   UNL     1      20.305   4.707  20.346  0.00  0.00    +0.044 A 
ATOM     23  C   UNL     1      21.085   4.839  21.483  0.00  0.00    +0.125 A 
ENDROOT
BRANCH  19  18
ATOM      1  O   UNL     1      16.617   9.154  21.059  0.00  0.00    -0.336 OA
ATOM      5  N   UNL     1      16.577   6.938  20.742  0.00  0.00    -0.190 NA
ATOM      6  N   UNL     1      17.925   8.706  21.278  0.00  0.00    -0.056 NA
ATOM     15  C   UNL     1      15.888   8.051  20.749  0.00  0.00    +0.245 A 
ATOM     18  C   UNL     1      17.821   7.389  21.073  0.00  0.00    +0.204 A 
BRANCH  15   9
ATOM      4  N   UNL     1      13.962   7.563  19.250  0.00  0.00    -0.291 NA
ATOM      9  C   UNL     1      14.417   8.272  20.462  0.00  0.00    +0.146 C 
ATOM     10  C   UNL     1      13.507   7.746  21.587  0.00  0.00    +0.030 C 
ATOM     11  C   UNL     1      12.547   7.255  19.457  0.00  0.00    +0.085 C 
ATOM     12  C   UNL     1      12.536   6.796  20.901  0.00  0.00    +0.017 C 
BRANCH   4  13
ATOM     13  C   UNL     1      14.184   8.321  18.025  0.00  0.00    +0.088 C 
BRANCH  13  14
ATOM     14  C   UNL     1      13.051   9.322  17.739  0.00  0.00    -0.003 C 
ATOM     16  C   UNL     1      12.508   9.203  16.313  0.00  0.00    +0.008 C 
ATOM     17  C   UNL     1      13.549  10.748  17.984  0.00  0.00    +0.008 C 
ENDBRANCH  13  14
ENDBRANCH   4  13
ENDBRANCH  15   9
ENDBRANCH  19  18
BRANCH  23   8
ATOM      2  O   UNL     1      23.740   4.859  20.093  0.00  0.00    -0.270 OA
ATOM      8  N   UNL     1      22.182   3.980  21.616  0.00  0.00    -0.266 N 
ATOM     24  C   UNL     1      23.403   4.036  20.938  0.00  0.00    +0.249 C 
ATOM     32  H   UNL     1      22.013   3.220  22.269  0.00  0.00    +0.157 HD
BRANCH  24  25
ATOM     25  C   UNL     1      24.389   2.992  21.320  0.00  0.00    +0.037 A 
ATOM     26  C   UNL     1      23.965   1.684  21.553  0.00  0.00    +0.016 A 
ATOM     27  C   UNL     1      25.739   3.320  21.447  0.00  0.00    +0.016 A 
ATOM     28  C   UNL     1      24.890   0.704  21.912  0.00  0.00    +0.046 A 
ATOM     29  C   UNL     1      26.664   2.340  21.806  0.00  0.00    +0.046 A 
ATOM     30  C   UNL     1      26.239   1.032  22.039  0.00  0.00    +0.120 A 
BRANCH  30   3
ATOM      3  O   UNL     1      27.142   0.075  22.390  0.00  0.00    -0.495 OA
ATOM     31  C   UNL     1      26.667  -1.268  22.471  0.00  0.00    +0.277 C 
ENDBRANCH  30   3
ENDBRANCH  24  25
ENDBRANCH  23   8
TORSDOF 7
ENDMDL
MODEL 5
REMARK VINA RESULT:      -6.9     28.731     33.253
REMARK  Name = 51136883
REMARK  10 active torsions:
REMARK  status: ('A' for Active; 'I' for Inactive)
REMARK    1  A    between atoms: O_3  and  C_30
REMARK    2  A    between atoms: O_3  and  C_31
REMARK    3  A    between atoms: N_4  and  C_13
REMARK    4  A    between atoms: N_8  and  C_23
REMARK    5  A    between atoms: C_9  and  C_15
REMARK    6  A    between atoms: C_13  and  C_14
REMARK    7  A    between atoms: C_14  and  C_16
REMARK    8  A    between atoms: C_14  and  C_17
REMARK    9  A    between atoms: C_18  and  C_19
REMARK   10  A    between atoms: C_24  and  C_25
REMARK                            x       y       z     vdW  Elec       q    Type
REMARK                         _______ _______ _______ _____ _____    ______ ____
ROOT
ATOM      7  N   UNL     1     -12.812   5.666  21.964  0.00  0.00    -0.239 NA
ATOM     19  C   UNL     1     -14.913   4.712  22.686  0.00  0.00    +0.041 A 
ATOM     20  C   UNL     1     -15.608   5.655  21.937  0.00  0.00    +0.016 A 
ATOM     21  C   UNL     1     -13.529   4.759  22.666  0.00  0.00    +0.124 A 
ATOM     22  C   UNL     1     -14.906   6.604  21.201  0.00  0.00    +0.044 A 
ATOM     23  C   UNL     1     -13.522   6.567  21.248  0.00  0.00    +0.125 A 
ENDROOT
BRANCH  19  18
ATOM      1  O   UNL     1     -16.884   2.098  24.006  0.00  0.00    -0.336 OA
ATOM      5  N   UNL     1     -15.443   3.614  24.804  0.00  0.00    -0.190 NA
ATOM      6  N   UNL     1     -16.456   2.846  22.903  0.00  0.00    -0.056 NA
ATOM     15  C   UNL     1     -16.241   2.615  25.085  0.00  0.00    +0.245 A 
ATOM     18  C   UNL     1     -15.609   3.721  23.455  0.00  0.00    +0.204 A 
BRANCH  15   9
ATOM      4  N   UNL     1     -17.179   2.895  27.373  0.00  0.00    -0.291 NA
ATOM      9  C   UNL     1     -16.536   1.967  26.421  0.00  0.00    +0.146 C 
ATOM     10  C   UNL     1     -17.517   0.786  26.304  0.00  0.00    +0.030 C 
ATOM     11  C   UNL     1     -18.012   2.076  28.252  0.00  0.00    +0.085 C 
ATOM     12  C   UNL     1     -18.648   1.111  27.271  0.00  0.00    +0.017 C 
BRANCH   4  13
ATOM     13  C   UNL     1     -16.223   3.703  28.120  0.00  0.00    +0.088 C 
BRANCH  13  14
ATOM     14  C   UNL     1     -16.068   3.232  29.577  0.00  0.00    -0.003 C 
ATOM     16  C   UNL     1     -16.157   4.386  30.580  0.00  0.00    +0.008 C 
ATOM     17  C   UNL     1     -14.732   2.505  29.745  0.00  0.00    +0.008 C 
ENDBRANCH  13  14
ENDBRANCH   4  13
ENDBRANCH  15   9
ENDBRANCH  19  18
BRANCH  23   8
ATOM      2  O   UNL     1     -12.770   9.384  21.944  0.00  0.00    -0.270 OA
ATOM      8  N   UNL     1     -12.825   7.527  20.505  0.00  0.00    -0.266 N 
ATOM     24  C   UNL     1     -12.500   8.834  20.882  0.00  0.00    +0.249 C 
ATOM     32  H   UNL     1     -12.574   7.203  19.576  0.00  0.00    +0.157 HD
BRANCH  24  25
ATOM     25  C   UNL     1     -11.723   9.608  19.879  0.00  0.00    +0.037 A 
ATOM     26  C   UNL     1     -11.978  10.967  19.696  0.00  0.00    +0.016 A 
ATOM     27  C   UNL     1     -10.740   8.975  19.119  0.00  0.00    +0.016 A 
ATOM     28  C   UNL     1     -11.249  11.693  18.754  0.00  0.00    +0.046 A 
ATOM     29  C   UNL     1     -10.010   9.701  18.177  0.00  0.00    +0.046 A 
ATOM     30  C   UNL     1     -10.266  11.060  17.994  0.00  0.00    +0.120 A 
BRANCH  30   3
ATOM      3  O   UNL     1      -9.555  11.769  17.075  0.00  0.00    -0.495 OA
ATOM     31  C   UNL     1      -9.286  13.137  17.376  0.00  0.00    +0.277 C 
ENDBRANCH  30   3
ENDBRANCH  24  25
ENDBRANCH  23   8
TORSDOF 7
ENDMDL
MODEL 6
REMARK VINA RESULT:      -6.8      2.550      3.753
REMARK  Name = 51136883
REMARK  10 active torsions:
REMARK  status: ('A' for Active; 'I' for Inactive)
REMARK    1  A    between atoms: O_3  and  C_30
REMARK    2  A    between atoms: O_3  and  C_31
REMARK    3  A    between atoms: N_4  and  C_13
REMARK    4  A    between atoms: N_8  and  C_23
REMARK    5  A    between atoms: C_9  and  C_15
REMARK    6  A    between atoms: C_13  and  C_14
REMARK    7  A    between atoms: C_14  and  C_16
REMARK    8  A    between atoms: C_14  and  C_17
REMARK    9  A    between atoms: C_18  and  C_19
REMARK   10  A    between atoms: C_24  and  C_25
REMARK                            x       y       z     vdW  Elec       q    Type
REMARK                         _______ _______ _______ _____ _____    ______ ____
ROOT
ATOM      7  N   UNL     1      18.453   7.226  20.887  0.00  0.00    -0.239 NA
ATOM     19  C   UNL     1      16.289   7.340  19.814  0.00  0.00    +0.041 A 
ATOM     20  C   UNL     1      16.571   6.179  19.104  0.00  0.00    +0.016 A 
ATOM     21  C   UNL     1      17.254   7.819  20.685  0.00  0.00    +0.124 A 
ATOM     22  C   UNL     1      17.794   5.539  19.284  0.00  0.00    +0.044 A 
ATOM     23  C   UNL     1      18.692   6.099  20.179  0.00  0.00    +0.125 A 
ENDROOT
BRANCH  19  18
ATOM      1  O   UNL     1      12.962   8.418  19.336  0.00  0.00    -0.336 OA
ATOM      5  N   UNL     1      14.949   9.381  19.707  0.00  0.00    -0.190 NA
ATOM      6  N   UNL     1      13.889   7.373  19.430  0.00  0.00    -0.056 NA
ATOM     15  C   UNL     1      13.668   9.566  19.510  0.00  0.00    +0.245 A 
ATOM     18  C   UNL     1      15.038   8.022  19.649  0.00  0.00    +0.204 A 
BRANCH  15   9
ATOM      4  N   UNL     1      12.572  11.395  20.793  0.00  0.00    -0.291 NA
ATOM      9  C   UNL     1      12.881  10.858  19.452  0.00  0.00    +0.146 C 
ATOM     10  C   UNL     1      13.649  11.990  18.746  0.00  0.00    +0.030 C 
ATOM     11  C   UNL     1      12.488  12.848  20.648  0.00  0.00    +0.085 C 
ATOM     12  C   UNL     1      13.668  13.141  19.742  0.00  0.00    +0.017 C 
BRANCH   4  13
ATOM     13  C   UNL     1      11.359  10.831  21.371  0.00  0.00    +0.088 C 
BRANCH  13  14
ATOM     14  C   UNL     1      11.639  10.023  22.651  0.00  0.00    -0.003 C 
ATOM     16  C   UNL     1      10.997   8.633  22.620  0.00  0.00    +0.008 C 
ATOM     17  C   UNL     1      11.134  10.796  23.871  0.00  0.00    +0.008 C 
ENDBRANCH  13  14
ENDBRANCH   4  13
ENDBRANCH  15   9
ENDBRANCH  19  18
BRANCH  23   8
ATOM      2  O   UNL     1      20.395   5.798  22.626  0.00  0.00    -0.270 OA
ATOM      8  N   UNL     1      19.919   5.449  20.352  0.00  0.00    -0.266 N 
ATOM     24  C   UNL     1      20.674   5.339  21.524  0.00  0.00    +0.249 C 
ATOM     32  H   UNL     1      20.283   5.052  19.491  0.00  0.00    +0.157 HD
BRANCH  24  25
ATOM     25  C   UNL     1      21.930   4.556  21.398  0.00  0.00    +0.037 A 
ATOM     26  C   UNL     1      22.149   3.450  22.220  0.00  0.00    +0.016 A 
ATOM     27  C   UNL     1      22.893   4.928  20.460  0.00  0.00    +0.016 A 
ATOM     28  C   UNL     1      23.329   2.716  22.103  0.00  0.00    +0.046 A 
ATOM     29  C   UNL     1      24.073   4.194  20.342  0.00  0.00    +0.046 A 
ATOM     30  C   UNL     1      24.291   3.088  21.165  0.00  0.00    +0.120 A 
BRANCH  30   3
ATOM      3  O   UNL     1      25.443   2.371  21.050  0.00  0.00    -0.495 OA
ATOM     31  C   UNL     1      25.470   1.084  21.665  0.00  0.00    +0.277 C 
ENDBRANCH  30   3
ENDBRANCH  24  25
ENDBRANCH  23   8
TORSDOF 7
ENDMDL
MODEL 7
REMARK VINA RESULT:      -6.6      2.508     11.631
REMARK  Name = 51136883
REMARK  10 active torsions:
REMARK  status: ('A' for Active; 'I' for Inactive)
REMARK    1  A    between atoms: O_3  and  C_30
REMARK    2  A    between atoms: O_3  and  C_31
REMARK    3  A    between atoms: N_4  and  C_13
REMARK    4  A    between atoms: N_8  and  C_23
REMARK    5  A    between atoms: C_9  and  C_15
REMARK    6  A    between atoms: C_13  and  C_14
REMARK    7  A    between atoms: C_14  and  C_16
REMARK    8  A    between atoms: C_14  and  C_17
REMARK    9  A    between atoms: C_18  and  C_19
REMARK   10  A    between atoms: C_24  and  C_25
REMARK                            x       y       z     vdW  Elec       q    Type
REMARK                         _______ _______ _______ _____ _____    ______ ____
ROOT
ATOM      7  N   UNL     1      17.827   7.974  21.365  0.00  0.00    -0.239 NA
ATOM     19  C   UNL     1      19.801   6.590  21.554  0.00  0.00    +0.041 A 
ATOM     20  C   UNL     1      19.336   5.774  20.528  0.00  0.00    +0.016 A 
ATOM     21  C   UNL     1      19.017   7.668  21.932  0.00  0.00    +0.124 A 
ATOM     22  C   UNL     1      18.117   6.058  19.920  0.00  0.00    +0.044 A 
ATOM     23  C   UNL     1      17.408   7.158  20.372  0.00  0.00    +0.125 A 
ENDROOT
BRANCH  19  18
ATOM      1  O   UNL     1      22.983   6.577  23.082  0.00  0.00    -0.336 OA
ATOM      5  N   UNL     1      21.408   5.064  22.584  0.00  0.00    -0.190 NA
ATOM      6  N   UNL     1      21.944   7.284  22.465  0.00  0.00    -0.056 NA
ATOM     15  C   UNL     1      22.587   5.277  23.112  0.00  0.00    +0.245 A 
ATOM     18  C   UNL     1      21.053   6.324  22.200  0.00  0.00    +0.204 A 
BRANCH  15   9
ATOM      4  N   UNL     1      24.909   4.386  23.174  0.00  0.00    -0.291 NA
ATOM      9  C   UNL     1      23.550   4.292  23.742  0.00  0.00    +0.146 C 
ATOM     10  C   UNL     1      23.740   4.531  25.251  0.00  0.00    +0.030 C 
ATOM     11  C   UNL     1      25.831   3.984  24.237  0.00  0.00    +0.085 C 
ATOM     12  C   UNL     1      25.242   4.687  25.444  0.00  0.00    +0.017 C 
BRANCH   4  13
ATOM     13  C   UNL     1      25.083   3.588  21.967  0.00  0.00    +0.088 C 
BRANCH  13  14
ATOM     14  C   UNL     1      24.305   2.262  22.022  0.00  0.00    -0.003 C 
ATOM     16  C   UNL     1      25.227   1.042  22.105  0.00  0.00    +0.008 C 
ATOM     17  C   UNL     1      23.402   2.141  20.793  0.00  0.00    +0.008 C 
ENDBRANCH  13  14
ENDBRANCH   4  13
ENDBRANCH  15   9
ENDBRANCH  19  18
BRANCH  23   8
ATOM      2  O   UNL     1      14.637   7.227  21.511  0.00  0.00    -0.270 OA
ATOM      8  N   UNL     1      16.183   7.434  19.754  0.00  0.00    -0.266 N 
ATOM     24  C   UNL     1      14.912   7.452  20.338  0.00  0.00    +0.249 C 
ATOM     32  H   UNL     1      16.271   7.603  18.756  0.00  0.00    +0.157 HD
BRANCH  24  25
ATOM     25  C   UNL     1      13.798   7.811  19.422  0.00  0.00    +0.037 A 
ATOM     26  C   UNL     1      14.006   7.824  18.043  0.00  0.00    +0.016 A 
ATOM     27  C   UNL     1      12.546   8.137  19.941  0.00  0.00    +0.016 A 
ATOM     28  C   UNL     1      12.961   8.162  17.183  0.00  0.00    +0.046 A 
ATOM     29  C   UNL     1      11.500   8.475  19.081  0.00  0.00    +0.046 A 
ATOM     30  C   UNL     1      11.709   8.488  17.701  0.00  0.00    +0.120 A 
BRANCH  30   3
ATOM      3  O   UNL     1      10.689   8.818  16.862  0.00  0.00    -0.495 OA
ATOM     31  C   UNL     1      11.043   9.258  15.552  0.00  0.00    +0.277 C 
ENDBRANCH  30   3
ENDBRANCH  24  25
ENDBRANCH  23   8
TORSDOF 7
ENDMDL
MODEL 8
REMARK VINA RESULT:      -6.5     28.256     31.138
REMARK  Name = 51136883
REMARK  10 active torsions:
REMARK  status: ('A' for Active; 'I' for Inactive)
REMARK    1  A    between atoms: O_3  and  C_30
REMARK    2  A    between atoms: O_3  and  C_31
REMARK    3  A    between atoms: N_4  and  C_13
REMARK    4  A    between atoms: N_8  and  C_23
REMARK    5  A    between atoms: C_9  and  C_15
REMARK    6  A    between atoms: C_13  and  C_14
REMARK    7  A    between atoms: C_14  and  C_16
REMARK    8  A    between atoms: C_14  and  C_17
REMARK    9  A    between atoms: C_18  and  C_19
REMARK   10  A    between atoms: C_24  and  C_25
REMARK                            x       y       z     vdW  Elec       q    Type
REMARK                         _______ _______ _______ _____ _____    ______ ____
ROOT
ATOM      7  N   UNL     1      -5.309 -11.909  10.818  0.00  0.00    -0.239 NA
ATOM     19  C   UNL     1      -4.044 -10.944  12.639  0.00  0.00    +0.041 A 
ATOM     20  C   UNL     1      -3.151 -10.384  11.732  0.00  0.00    +0.016 A 
ATOM     21  C   UNL     1      -5.097 -11.691  12.136  0.00  0.00    +0.124 A 
ATOM     22  C   UNL     1      -3.337 -10.584  10.368  0.00  0.00    +0.044 A 
ATOM     23  C   UNL     1      -4.421 -11.348   9.967  0.00  0.00    +0.125 A 
ENDROOT
BRANCH  19  18
ATOM      1  O   UNL     1      -3.001 -10.467  15.977  0.00  0.00    -0.336 OA
ATOM      5  N   UNL     1      -4.949 -10.700  14.896  0.00  0.00    -0.190 NA
ATOM      6  N   UNL     1      -2.679 -10.623  14.624  0.00  0.00    -0.056 NA
ATOM     15  C   UNL     1      -4.357 -10.525  16.051  0.00  0.00    +0.245 A 
ATOM     18  C   UNL     1      -3.880 -10.756  14.051  0.00  0.00    +0.204 A 
BRANCH  15   9
ATOM      4  N   UNL     1      -6.432 -10.542  17.424  0.00  0.00    -0.291 NA
ATOM      9  C   UNL     1      -4.965 -10.378  17.430  0.00  0.00    +0.146 C 
ATOM     10  C   UNL     1      -4.457 -11.443  18.419  0.00  0.00    +0.030 C 
ATOM     11  C   UNL     1      -6.795 -11.076  18.737  0.00  0.00    +0.085 C 
ATOM     12  C   UNL     1      -5.711 -12.112  18.963  0.00  0.00    +0.017 C 
BRANCH   4  13
ATOM     13  C   UNL     1      -7.147  -9.309  17.118  0.00  0.00    +0.088 C 
BRANCH  13  14
ATOM     14  C   UNL     1      -8.620  -9.559  16.753  0.00  0.00    -0.003 C 
ATOM     16  C   UNL     1      -8.819  -9.825  15.258  0.00  0.00    +0.008 C 
ATOM     17  C   UNL     1      -9.468  -8.359  17.179  0.00  0.00    +0.008 C 
ENDBRANCH  13  14
ENDBRANCH   4  13
ENDBRANCH  15   9
ENDBRANCH  19  18
BRANCH  23   8
ATOM      2  O   UNL     1      -5.745  -9.609   7.916  0.00  0.00    -0.270 OA
ATOM      8  N   UNL     1      -4.598 -11.544   8.592  0.00  0.00    -0.266 N 
ATOM     24  C   UNL     1      -5.227 -10.694   7.678  0.00  0.00    +0.249 C 
ATOM     32  H   UNL     1      -4.240 -12.439   8.271  0.00  0.00    +0.157 HD
BRANCH  24  25
ATOM     25  C   UNL     1      -5.232 -11.169   6.270  0.00  0.00    +0.037 A 
ATOM     26  C   UNL     1      -6.342 -10.936   5.458  0.00  0.00    +0.016 A 
ATOM     27  C   UNL     1      -4.127 -11.851   5.760  0.00  0.00    +0.016 A 
ATOM     28  C   UNL     1      -6.347 -11.383   4.137  0.00  0.00    +0.046 A 
ATOM     29  C   UNL     1      -4.132 -12.298   4.438  0.00  0.00    +0.046 A 
ATOM     30  C   UNL     1      -5.243 -12.065   3.627  0.00  0.00    +0.120 A 
BRANCH  30   3
ATOM      3  O   UNL     1      -5.248 -12.501   2.338  0.00  0.00    -0.495 OA
ATOM     31  C   UNL     1      -4.267 -13.473   1.978  0.00  0.00    +0.277 C 
ENDBRANCH  30   3
ENDBRANCH  24  25
ENDBRANCH  23   8
TORSDOF 7
ENDMDL
MODEL 9
REMARK VINA RESULT:      -6.2     29.116     33.813
REMARK  Name = 51136883
REMARK  10 active torsions:
REMARK  status: ('A' for Active; 'I' for Inactive)
REMARK    1  A    between atoms: O_3  and  C_30
REMARK    2  A    between atoms: O_3  and  C_31
REMARK    3  A    between atoms: N_4  and  C_13
REMARK    4  A    between atoms: N_8  and  C_23
REMARK    5  A    between atoms: C_9  and  C_15
REMARK    6  A    between atoms: C_13  and  C_14
REMARK    7  A    between atoms: C_14  and  C_16
REMARK    8  A    between atoms: C_14  and  C_17
REMARK    9  A    between atoms: C_18  and  C_19
REMARK   10  A    between atoms: C_24  and  C_25
REMARK                            x       y       z     vdW  Elec       q    Type
REMARK                         _______ _______ _______ _____ _____    ______ ____
ROOT
ATOM      7  N   UNL     1     -12.178  -5.380  14.670  0.00  0.00    -0.239 NA
ATOM     19  C   UNL     1     -11.191  -7.502  15.280  0.00  0.00    +0.041 A 
ATOM     20  C   UNL     1     -11.609  -8.052  14.074  0.00  0.00    +0.016 A 
ATOM     21  C   UNL     1     -11.497  -6.173  15.529  0.00  0.00    +0.124 A 
ATOM     22  C   UNL     1     -12.311  -7.267  13.164  0.00  0.00    +0.044 A 
ATOM     23  C   UNL     1     -12.567  -5.950  13.507  0.00  0.00    +0.125 A 
ENDROOT
BRANCH  19  18
ATOM      1  O   UNL     1      -9.847  -9.205  18.065  0.00  0.00    -0.336 OA
ATOM      5  N   UNL     1      -9.371  -9.017  15.884  0.00  0.00    -0.190 NA
ATOM      6  N   UNL     1     -10.814  -8.347  17.528  0.00  0.00    -0.056 NA
ATOM     15  C   UNL     1      -9.036  -9.553  17.031  0.00  0.00    +0.245 A 
ATOM     18  C   UNL     1     -10.466  -8.285  16.238  0.00  0.00    +0.204 A 
BRANCH  15   9
ATOM      4  N   UNL     1      -6.576  -9.830  17.278  0.00  0.00    -0.291 NA
ATOM      9  C   UNL     1      -7.893 -10.492  17.356  0.00  0.00    +0.146 C 
ATOM     10  C   UNL     1      -7.969 -11.044  18.791  0.00  0.00    +0.030 C 
ATOM     11  C   UNL     1      -5.707 -10.523  18.229  0.00  0.00    +0.085 C 
ATOM     12  C   UNL     1      -6.627 -10.699  19.421  0.00  0.00    +0.017 C 
BRANCH   4  13
ATOM     13  C   UNL     1      -6.017  -9.821  15.932  0.00  0.00    +0.088 C 
BRANCH  13  14
ATOM     14  C   UNL     1      -5.150 -11.060  15.647  0.00  0.00    -0.003 C 
ATOM     16  C   UNL     1      -3.786 -10.699  15.054  0.00  0.00    +0.008 C 
ATOM     17  C   UNL     1      -5.892 -12.001  14.695  0.00  0.00    +0.008 C 
ENDBRANCH  13  14
ENDBRANCH   4  13
ENDBRANCH  15   9
ENDBRANCH  19  18
BRANCH  23   8
ATOM      2  O   UNL     1     -12.088  -3.142  12.577  0.00  0.00    -0.270 OA
ATOM      8  N   UNL     1     -13.275  -5.169  12.585  0.00  0.00    -0.266 N 
ATOM     24  C   UNL     1     -13.005  -3.857  12.187  0.00  0.00    +0.249 C 
ATOM     32  H   UNL     1     -14.093  -5.642  12.212  0.00  0.00    +0.157 HD
BRANCH  24  25
ATOM     25  C   UNL     1     -13.927  -3.303  11.161  0.00  0.00    +0.037 A 
ATOM     26  C   UNL     1     -13.589  -3.371   9.810  0.00  0.00    +0.016 A 
ATOM     27  C   UNL     1     -15.129  -2.713  11.550  0.00  0.00    +0.016 A 
ATOM     28  C   UNL     1     -14.454  -2.850   8.847  0.00  0.00    +0.046 A 
ATOM     29  C   UNL     1     -15.995  -2.192  10.588  0.00  0.00    +0.046 A 
ATOM     30  C   UNL     1     -15.656  -2.261   9.236  0.00  0.00    +0.120 A 
BRANCH  30   3
ATOM      3  O   UNL     1     -16.500  -1.752   8.297  0.00  0.00    -0.495 OA
ATOM     31  C   UNL     1     -15.980  -0.741   7.436  0.00  0.00    +0.277 C 
ENDBRANCH  30   3
ENDBRANCH  24  25
ENDBRANCH  23   8
TORSDOF 7
ENDMDL
MODEL 10
REMARK VINA RESULT:      -6.2     28.266     31.803
REMARK  Name = 51136883
REMARK  10 active torsions:
REMARK  status: ('A' for Active; 'I' for Inactive)
REMARK    1  A    between atoms: O_3  and  C_30
REMARK    2  A    between atoms: O_3  and  C_31
REMARK    3  A    between atoms: N_4  and  C_13
REMARK    4  A    between atoms: N_8  and  C_23
REMARK    5  A    between atoms: C_9  and  C_15
REMARK    6  A    between atoms: C_13  and  C_14
REMARK    7  A    between atoms: C_14  and  C_16
REMARK    8  A    between atoms: C_14  and  C_17
REMARK    9  A    between atoms: C_18  and  C_19
REMARK   10  A    between atoms: C_24  and  C_25
REMARK                            x       y       z     vdW  Elec       q    Type
REMARK                         _______ _______ _______ _____ _____    ______ ____
ROOT
ATOM      7  N   UNL     1      -6.358 -10.398   9.419  0.00  0.00    -0.239 NA
ATOM     19  C   UNL     1      -4.394 -10.335  10.827  0.00  0.00    +0.041 A 
ATOM     20  C   UNL     1      -3.781  -9.451   9.946  0.00  0.00    +0.016 A 
ATOM     21  C   UNL     1      -5.671 -10.776  10.521  0.00  0.00    +0.124 A 
ATOM     22  C   UNL     1      -4.456  -9.038   8.802  0.00  0.00    +0.044 A 
ATOM     23  C   UNL     1      -5.730  -9.537   8.586  0.00  0.00    +0.125 A 
ENDROOT
BRANCH  19  18
ATOM      1  O   UNL     1      -2.280 -11.003  13.574  0.00  0.00    -0.336 OA
ATOM      5  N   UNL     1      -4.267 -11.725  12.833  0.00  0.00    -0.190 NA
ATOM      6  N   UNL     1      -2.535 -10.298  12.392  0.00  0.00    -0.056 NA
ATOM     15  C   UNL     1      -3.348 -11.822  13.762  0.00  0.00    +0.245 A 
ATOM     18  C   UNL     1      -3.724 -10.779  12.015  0.00  0.00    +0.204 A 
BRANCH  15   9
ATOM      4  N   UNL     1      -4.294 -12.284  16.016  0.00  0.00    -0.291 NA
ATOM      9  C   UNL     1      -3.316 -12.703  14.993  0.00  0.00    +0.146 C 
ATOM     10  C   UNL     1      -3.676 -14.168  14.684  0.00  0.00    +0.030 C 
ATOM     11  C   UNL     1      -4.673 -13.494  16.747  0.00  0.00    +0.085 C 
ATOM     12  C   UNL     1      -4.825 -14.502  15.625  0.00  0.00    +0.017 C 
BRANCH   4  13
ATOM     13  C   UNL     1      -3.788 -11.245  16.903  0.00  0.00    +0.088 C 
BRANCH  13  14
ATOM     14  C   UNL     1      -4.834 -10.152  17.185  0.00  0.00    -0.003 C 
ATOM     16  C   UNL     1      -5.723 -10.485  18.386  0.00  0.00    +0.008 C 
ATOM     17  C   UNL     1      -5.704  -9.937  15.944  0.00  0.00    +0.008 C 
ENDBRANCH  13  14
ENDBRANCH   4  13
ENDBRANCH  15   9
ENDBRANCH  19  18
BRANCH  23   8
ATOM      2  O   UNL     1      -8.120  -7.755   8.274  0.00  0.00    -0.270 OA
ATOM      8  N   UNL     1      -6.401  -9.116   7.431  0.00  0.00    -0.266 N 
ATOM     24  C   UNL     1      -7.517  -8.279   7.344  0.00  0.00    +0.249 C 
ATOM     32  H   UNL     1      -6.016  -9.518   6.581  0.00  0.00    +0.157 HD
BRANCH  24  25
ATOM     25  C   UNL     1      -7.987  -7.991   5.964  0.00  0.00    +0.037 A 
ATOM     26  C   UNL     1      -7.235  -8.416   4.868  0.00  0.00    +0.016 A 
ATOM     27  C   UNL     1      -9.177  -7.293   5.764  0.00  0.00    +0.016 A 
ATOM     28  C   UNL     1      -7.675  -8.144   3.573  0.00  0.00    +0.046 A 
ATOM     29  C   UNL     1      -9.617  -7.020   4.468  0.00  0.00    +0.046 A 
ATOM     30  C   UNL     1      -8.865  -7.446   3.373  0.00  0.00    +0.120 A 
BRANCH  30   3
ATOM      3  O   UNL     1      -9.295  -7.180   2.108  0.00  0.00    -0.495 OA
ATOM     31  C   UNL     1     -10.298  -6.176   1.961  0.00  0.00    +0.277 C 
ENDBRANCH  30   3
ENDBRANCH  24  25
ENDBRANCH  23   8
TORSDOF 7
ENDMDL
