MODEL 1
REMARK VINA RESULT:      -7.1      0.000      0.000
REMARK  Name = 38028485
REMARK  11 active torsions:
REMARK  status: ('A' for Active; 'I' for Inactive)
REMARK    1  A    between atoms: N_4  and  C_15
REMARK    2  A    between atoms: N_5  and  C_22
REMARK    3  A    between atoms: N_6  and  C_24
REMARK    4  A    between atoms: C_8  and  C_12
REMARK    5  A    between atoms: C_9  and  C_15
REMARK    6  A    between atoms: C_11  and  C_16
REMARK    7  A    between atoms: C_12  and  C_17
REMARK    8  A    between atoms: C_12  and  C_18
REMARK    9  A    between atoms: C_13  and  C_19
REMARK   10  A    between atoms: C_16  and  C_20
REMARK   11  A    between atoms: C_22  and  C_23
REMARK                            x       y       z     vdW  Elec       q    Type
REMARK                         _______ _______ _______ _____ _____    ______ ____
ROOT
ATOM      8  C   UNL     1      -5.841 -10.656  15.289  0.00  0.00    +0.000 C 
ATOM      9  C   UNL     1      -6.655 -10.730  16.604  0.00  0.00    +0.032 C 
ATOM     10  C   UNL     1      -4.820 -11.803  15.226  0.00  0.00    +0.012 C 
ATOM     11  C   UNL     1      -3.836 -11.773  16.411  0.00  0.00    +0.023 C 
ATOM     13  C   UNL     1      -4.553 -11.577  17.731  0.00  0.00    -0.073 C 
ATOM     14  C   UNL     1      -5.816 -11.122  17.798  0.00  0.00    -0.022 C 
ATOM     19  C   UNL     1      -3.797 -11.958  18.975  0.00  0.00    +0.039 C 
ENDROOT
BRANCH   8  12
ATOM     12  C   UNL     1      -6.747 -10.701  14.055  0.00  0.00    -0.013 C 
ATOM     17  C   UNL     1      -6.874 -12.130  13.539  0.00  0.00    +0.007 C 
ATOM     18  C   UNL     1      -6.209  -9.779  12.966  0.00  0.00    +0.007 C 
ENDBRANCH   8  12
BRANCH   9  15
ATOM     15  C   UNL     1      -7.362  -9.399  16.892  0.00  0.00    +0.113 C 
BRANCH  15   4
ATOM      3  O   UNL     1      -9.934 -10.605  17.257  0.00  0.00    -0.253 OA
ATOM      4  N   UNL     1      -8.105  -9.472  18.110  0.00  0.00    -0.299 N 
ATOM      6  N   UNL     1      -9.852 -10.002  19.524  0.00  0.00    -0.269 N 
ATOM     21  C   UNL     1      -9.369 -10.083  18.215  0.00  0.00    +0.304 C 
ATOM     34  H   UNL     1      -7.676  -9.125  18.961  0.00  0.00    +0.150 HD
ATOM     36  H   UNL     1      -9.257  -9.531  20.202  0.00  0.00    +0.156 HD
BRANCH   6  24
ATOM      1  F   UNL     1     -14.396  -9.278  20.895  0.00  0.00    -0.205 F 
ATOM     24  C   UNL     1     -11.078 -10.494  20.029  0.00  0.00    +0.037 A 
ATOM     27  C   UNL     1     -12.153  -9.626  20.217  0.00  0.00    +0.061 A 
ATOM     28  C   UNL     1     -11.213 -11.848  20.338  0.00  0.00    +0.023 A 
ATOM     30  C   UNL     1     -13.363 -10.111  20.713  0.00  0.00    +0.125 A 
ATOM     31  C   UNL     1     -12.422 -12.333  20.834  0.00  0.00    +0.005 A 
ATOM     33  C   UNL     1     -13.497 -11.465  21.022  0.00  0.00    +0.038 A 
ENDBRANCH   6  24
ENDBRANCH  15   4
ENDBRANCH   9  15
BRANCH  11  16
ATOM     16  C   UNL     1      -2.758 -10.705  16.207  0.00  0.00    +0.103 C 
BRANCH  16  20
ATOM      2  O   UNL     1      -1.090 -11.867  14.897  0.00  0.00    -0.276 OA
ATOM      5  N   UNL     1      -2.222 -10.064  13.967  0.00  0.00    -0.311 N 
ATOM     20  C   UNL     1      -1.922 -10.968  14.975  0.00  0.00    +0.214 C 
ATOM     35  H   UNL     1      -2.931  -9.353  14.126  0.00  0.00    +0.149 HD
BRANCH   5  22
ATOM     22  C   UNL     1      -1.574 -10.077  12.675  0.00  0.00    +0.141 C 
BRANCH  22  23
ATOM      7  N   UNL     1      -3.743  -9.766   9.594  0.00  0.00    -0.263 NA
ATOM     23  C   UNL     1      -2.527 -10.438  11.572  0.00  0.00    -0.012 A 
ATOM     25  C   UNL     1      -3.072 -11.714  11.484  0.00  0.00    +0.008 A 
ATOM     26  C   UNL     1      -2.890  -9.508  10.611  0.00  0.00    +0.115 A 
ATOM     29  C   UNL     1      -3.952 -12.017  10.452  0.00  0.00    +0.020 A 
ATOM     32  C   UNL     1      -4.253 -11.017   9.541  0.00  0.00    +0.111 A 
ENDBRANCH  22  23
ENDBRANCH   5  22
ENDBRANCH  16  20
ENDBRANCH  11  16
TORSDOF 8
ENDMDL
MODEL 2
REMARK VINA RESULT:      -7.0      5.237      9.868
REMARK  Name = 38028485
REMARK  11 active torsions:
REMARK  status: ('A' for Active; 'I' for Inactive)
REMARK    1  A    between atoms: N_4  and  C_15
REMARK    2  A    between atoms: N_5  and  C_22
REMARK    3  A    between atoms: N_6  and  C_24
REMARK    4  A    between atoms: C_8  and  C_12
REMARK    5  A    between atoms: C_9  and  C_15
REMARK    6  A    between atoms: C_11  and  C_16
REMARK    7  A    between atoms: C_12  and  C_17
REMARK    8  A    between atoms: C_12  and  C_18
REMARK    9  A    between atoms: C_13  and  C_19
REMARK   10  A    between atoms: C_16  and  C_20
REMARK   11  A    between atoms: C_22  and  C_23
REMARK                            x       y       z     vdW  Elec       q    Type
REMARK                         _______ _______ _______ _____ _____    ______ ____
ROOT
ATOM      8  C   UNL     1      -5.027 -10.596  11.017  0.00  0.00    +0.000 C 
ATOM      9  C   UNL     1      -4.546  -9.686   9.860  0.00  0.00    +0.032 C 
ATOM     10  C   UNL     1      -4.416 -10.136  12.350  0.00  0.00    +0.012 C 
ATOM     11  C   UNL     1      -2.876 -10.156  12.322  0.00  0.00    +0.023 C 
ATOM     13  C   UNL     1      -2.328  -9.508  11.067  0.00  0.00    -0.073 C 
ATOM     14  C   UNL     1      -3.092  -9.294   9.981  0.00  0.00    -0.022 C 
ATOM     19  C   UNL     1      -0.890  -9.070  11.104  0.00  0.00    +0.039 C 
ENDROOT
BRANCH   8  12
ATOM     12  C   UNL     1      -6.555 -10.616  11.128  0.00  0.00    -0.013 C 
ATOM     17  C   UNL     1      -7.104  -9.194  11.178  0.00  0.00    +0.007 C 
ATOM     18  C   UNL     1      -6.989 -11.407  12.358  0.00  0.00    +0.007 C 
ENDBRANCH   8  12
BRANCH   9  15
ATOM     15  C   UNL     1      -4.784 -10.351   8.499  0.00  0.00    +0.113 C 
BRANCH  15   4
ATOM      3  O   UNL     1      -7.536 -10.061   7.760  0.00  0.00    -0.253 OA
ATOM      4  N   UNL     1      -5.322  -9.415   7.563  0.00  0.00    -0.299 N 
ATOM      6  N   UNL     1      -6.921  -8.324   6.305  0.00  0.00    -0.269 N 
ATOM     21  C   UNL     1      -6.692  -9.329   7.248  0.00  0.00    +0.304 C 
ATOM     34  H   UNL     1      -4.698  -8.730   7.150  0.00  0.00    +0.150 HD
ATOM     36  H   UNL     1      -6.107  -7.809   5.979  0.00  0.00    +0.156 HD
BRANCH   6  24
ATOM      1  F   UNL     1      -9.943  -8.167   2.576  0.00  0.00    -0.205 F 
ATOM     24  C   UNL     1      -8.157  -7.932   5.738  0.00  0.00    +0.037 A 
ATOM     27  C   UNL     1      -8.446  -8.249   4.411  0.00  0.00    +0.061 A 
ATOM     28  C   UNL     1      -9.086  -7.230   6.506  0.00  0.00    +0.023 A 
ATOM     30  C   UNL     1      -9.664  -7.864   3.851  0.00  0.00    +0.125 A 
ATOM     31  C   UNL     1     -10.304  -6.846   5.946  0.00  0.00    +0.005 A 
ATOM     33  C   UNL     1     -10.593  -7.162   4.620  0.00  0.00    +0.038 A 
ENDBRANCH   6  24
ENDBRANCH  15   4
ENDBRANCH   9  15
BRANCH  11  16
ATOM     16  C   UNL     1      -2.339 -11.582  12.483  0.00  0.00    +0.103 C 
BRANCH  16  20
ATOM      2  O   UNL     1      -2.326 -13.202  14.279  0.00  0.00    -0.276 OA
ATOM      5  N   UNL     1      -2.322 -10.934  14.784  0.00  0.00    -0.311 N 
ATOM     20  C   UNL     1      -2.328 -12.026  13.929  0.00  0.00    +0.214 C 
ATOM     35  H   UNL     1      -2.322  -9.994  14.398  0.00  0.00    +0.149 HD
BRANCH   5  22
ATOM     22  C   UNL     1      -2.313 -11.059  16.224  0.00  0.00    +0.141 C 
BRANCH  22  23
ATOM      7  N   UNL     1      -5.236 -11.439  18.592  0.00  0.00    -0.263 NA
ATOM     23  C   UNL     1      -3.688 -10.917  16.810  0.00  0.00    -0.012 A 
ATOM     25  C   UNL     1      -4.668 -10.171  16.166  0.00  0.00    +0.008 A 
ATOM     26  C   UNL     1      -4.019 -11.526  18.010  0.00  0.00    +0.115 A 
ATOM     29  C   UNL     1      -5.932 -10.058  16.733  0.00  0.00    +0.020 A 
ATOM     32  C   UNL     1      -6.164 -10.706  17.936  0.00  0.00    +0.111 A 
ENDBRANCH  22  23
ENDBRANCH   5  22
ENDBRANCH  16  20
ENDBRANCH  11  16
TORSDOF 8
ENDMDL
MODEL 3
REMARK VINA RESULT:      -6.8      2.976      3.421
REMARK  Name = 38028485
REMARK  11 active torsions:
REMARK  status: ('A' for Active; 'I' for Inactive)
REMARK    1  A    between atoms: N_4  and  C_15
REMARK    2  A    between atoms: N_5  and  C_22
REMARK    3  A    between atoms: N_6  and  C_24
REMARK    4  A    between atoms: C_8  and  C_12
REMARK    5  A    between atoms: C_9  and  C_15
REMARK    6  A    between atoms: C_11  and  C_16
REMARK    7  A    between atoms: C_12  and  C_17
REMARK    8  A    between atoms: C_12  and  C_18
REMARK    9  A    between atoms: C_13  and  C_19
REMARK   10  A    between atoms: C_16  and  C_20
REMARK   11  A    between atoms: C_22  and  C_23
REMARK                            x       y       z     vdW  Elec       q    Type
REMARK                         _______ _______ _______ _____ _____    ______ ____
ROOT
ATOM      8  C   UNL     1      -5.744 -10.626  15.171  0.00  0.00    +0.000 C 
ATOM      9  C   UNL     1      -6.613 -10.604  16.453  0.00  0.00    +0.032 C 
ATOM     10  C   UNL     1      -4.792 -11.833  15.189  0.00  0.00    +0.012 C 
ATOM     11  C   UNL     1      -3.857 -11.819  16.413  0.00  0.00    +0.023 C 
ATOM     13  C   UNL     1      -4.612 -11.534  17.695  0.00  0.00    -0.073 C 
ATOM     14  C   UNL     1      -5.847 -11.003  17.693  0.00  0.00    -0.022 C 
ATOM     19  C   UNL     1      -3.932 -11.915  18.980  0.00  0.00    +0.039 C 
ENDROOT
BRANCH   8  12
ATOM     12  C   UNL     1      -6.601 -10.660  13.903  0.00  0.00    -0.013 C 
ATOM     17  C   UNL     1      -6.610 -12.063  13.304  0.00  0.00    +0.007 C 
ATOM     18  C   UNL     1      -6.091  -9.642  12.887  0.00  0.00    +0.007 C 
ENDBRANCH   8  12
BRANCH   9  15
ATOM     15  C   UNL     1      -7.248  -9.224  16.666  0.00  0.00    +0.113 C 
BRANCH  15   4
ATOM      3  O   UNL     1      -9.634  -7.773  17.299  0.00  0.00    -0.253 OA
ATOM      4  N   UNL     1      -8.394  -9.058  15.828  0.00  0.00    -0.299 N 
ATOM      6  N   UNL     1     -10.491  -8.338  15.188  0.00  0.00    -0.269 N 
ATOM     21  C   UNL     1      -9.536  -8.328  16.207  0.00  0.00    +0.304 C 
ATOM     34  H   UNL     1      -8.361  -9.428  14.884  0.00  0.00    +0.150 HD
ATOM     36  H   UNL     1     -10.252  -8.850  14.342  0.00  0.00    +0.156 HD
BRANCH   6  24
ATOM      1  F   UNL     1     -13.351  -4.662  14.018  0.00  0.00    -0.205 F 
ATOM     24  C   UNL     1     -11.765  -7.721  15.186  0.00  0.00    +0.037 A 
ATOM     27  C   UNL     1     -11.933  -6.471  14.592  0.00  0.00    +0.061 A 
ATOM     28  C   UNL     1     -12.853  -8.364  15.778  0.00  0.00    +0.023 A 
ATOM     30  C   UNL     1     -13.188  -5.864  14.588  0.00  0.00    +0.125 A 
ATOM     31  C   UNL     1     -14.108  -7.757  15.775  0.00  0.00    +0.005 A 
ATOM     33  C   UNL     1     -14.276  -6.507  15.180  0.00  0.00    +0.038 A 
ENDBRANCH   6  24
ENDBRANCH  15   4
ENDBRANCH   9  15
BRANCH  11  16
ATOM     16  C   UNL     1      -2.708 -10.825  16.219  0.00  0.00    +0.103 C 
BRANCH  16  20
ATOM      2  O   UNL     1      -1.198 -12.063  14.793  0.00  0.00    -0.276 OA
ATOM      5  N   UNL     1      -2.162 -10.101  14.007  0.00  0.00    -0.311 N 
ATOM     20  C   UNL     1      -1.932 -11.092  14.949  0.00  0.00    +0.214 C 
ATOM     35  H   UNL     1      -2.792  -9.335  14.228  0.00  0.00    +0.149 HD
BRANCH   5  22
ATOM     22  C   UNL     1      -1.549 -10.098  12.698  0.00  0.00    +0.141 C 
BRANCH  22  23
ATOM      7  N   UNL     1      -3.771  -9.845   9.649  0.00  0.00    -0.263 NA
ATOM     23  C   UNL     1      -2.523 -10.479  11.620  0.00  0.00    -0.012 A 
ATOM     25  C   UNL     1      -3.075 -11.754  11.570  0.00  0.00    +0.008 A 
ATOM     26  C   UNL     1      -2.900  -9.569  10.645  0.00  0.00    +0.115 A 
ATOM     29  C   UNL     1      -3.975 -12.076  10.561  0.00  0.00    +0.020 A 
ATOM     32  C   UNL     1      -4.287 -11.096   9.633  0.00  0.00    +0.111 A 
ENDBRANCH  22  23
ENDBRANCH   5  22
ENDBRANCH  16  20
ENDBRANCH  11  16
TORSDOF 8
ENDMDL
MODEL 4
REMARK VINA RESULT:      -6.6     26.199     30.734
REMARK  Name = 38028485
REMARK  11 active torsions:
REMARK  status: ('A' for Active; 'I' for Inactive)
REMARK    1  A    between atoms: N_4  and  C_15
REMARK    2  A    between atoms: N_5  and  C_22
REMARK    3  A    between atoms: N_6  and  C_24
REMARK    4  A    between atoms: C_8  and  C_12
REMARK    5  A    between atoms: C_9  and  C_15
REMARK    6  A    between atoms: C_11  and  C_16
REMARK    7  A    between atoms: C_12  and  C_17
REMARK    8  A    between atoms: C_12  and  C_18
REMARK    9  A    between atoms: C_13  and  C_19
REMARK   10  A    between atoms: C_16  and  C_20
REMARK   11  A    between atoms: C_22  and  C_23
REMARK                            x       y       z     vdW  Elec       q    Type
REMARK                         _______ _______ _______ _____ _____    ______ ____
ROOT
ATOM      8  C   UNL     1      21.647  -7.617   3.264  0.00  0.00    +0.000 C 
ATOM      9  C   UNL     1      22.275  -7.020   1.981  0.00  0.00    +0.032 C 
ATOM     10  C   UNL     1      21.438  -9.132   3.104  0.00  0.00    +0.012 C 
ATOM     11  C   UNL     1      20.524  -9.470   1.911  0.00  0.00    +0.023 C 
ATOM     13  C   UNL     1      20.922  -8.706   0.664  0.00  0.00    -0.073 C 
ATOM     14  C   UNL     1      21.714  -7.622   0.713  0.00  0.00    -0.022 C 
ATOM     19  C   UNL     1      20.421  -9.244  -0.648  0.00  0.00    +0.039 C 
ENDROOT
BRANCH   8  12
ATOM     12  C   UNL     1      22.507  -7.342   4.501  0.00  0.00    -0.013 C 
ATOM     17  C   UNL     1      23.819  -8.114   4.420  0.00  0.00    +0.007 C 
ATOM     18  C   UNL     1      21.745  -7.703   5.772  0.00  0.00    +0.007 C 
ENDBRANCH   8  12
BRANCH   9  15
ATOM     15  C   UNL     1      22.106  -5.496   1.941  0.00  0.00    +0.113 C 
BRANCH  15   4
ATOM      3  O   UNL     1      19.392  -4.974   1.191  0.00  0.00    -0.253 OA
ATOM      4  N   UNL     1      21.642  -5.070   0.659  0.00  0.00    -0.299 N 
ATOM      6  N   UNL     1      20.135  -4.428  -0.968  0.00  0.00    -0.269 N 
ATOM     21  C   UNL     1      20.287  -4.832   0.361  0.00  0.00    +0.304 C 
ATOM     34  H   UNL     1      22.328  -4.864  -0.061  0.00  0.00    +0.150 HD
ATOM     36  H   UNL     1      20.983  -4.363  -1.525  0.00  0.00    +0.156 HD
BRANCH   6  24
ATOM      1  F   UNL     1      16.110  -5.756  -3.226  0.00  0.00    -0.205 F 
ATOM     24  C   UNL     1      18.936  -4.097  -1.643  0.00  0.00    +0.037 A 
ATOM     27  C   UNL     1      18.098  -5.109  -2.111  0.00  0.00    +0.061 A 
ATOM     28  C   UNL     1      18.591  -2.760  -1.839  0.00  0.00    +0.023 A 
ATOM     30  C   UNL     1      16.916  -4.784  -2.775  0.00  0.00    +0.125 A 
ATOM     31  C   UNL     1      17.409  -2.435  -2.503  0.00  0.00    +0.005 A 
ATOM     33  C   UNL     1      16.571  -3.447  -2.971  0.00  0.00    +0.038 A 
ENDBRANCH   6  24
ENDBRANCH  15   4
ENDBRANCH   9  15
BRANCH  11  16
ATOM     16  C   UNL     1      19.052  -9.230   2.257  0.00  0.00    +0.103 C 
BRANCH  16  20
ATOM      2  O   UNL     1      18.620 -11.470   1.454  0.00  0.00    -0.276 OA
ATOM      5  N   UNL     1      16.890 -10.241   2.400  0.00  0.00    -0.311 N 
ATOM     20  C   UNL     1      18.196 -10.446   1.981  0.00  0.00    +0.214 C 
ATOM     35  H   UNL     1      16.634  -9.356   2.830  0.00  0.00    +0.149 HD
BRANCH   5  22
ATOM     22  C   UNL     1      15.851 -11.235   2.261  0.00  0.00    +0.141 C 
BRANCH  22  23
ATOM      7  N   UNL     1      16.140 -12.785   5.697  0.00  0.00    -0.263 NA
ATOM     23  C   UNL     1      15.914 -12.271   3.346  0.00  0.00    -0.012 A 
ATOM     25  C   UNL     1      15.816 -13.626   3.050  0.00  0.00    +0.008 A 
ATOM     26  C   UNL     1      16.073 -11.906   4.673  0.00  0.00    +0.115 A 
ATOM     29  C   UNL     1      15.880 -14.561   4.077  0.00  0.00    +0.020 A 
ATOM     32  C   UNL     1      16.041 -14.094   5.371  0.00  0.00    +0.111 A 
ENDBRANCH  22  23
ENDBRANCH   5  22
ENDBRANCH  16  20
ENDBRANCH  11  16
TORSDOF 8
ENDMDL
MODEL 5
REMARK VINA RESULT:      -6.6     19.591     21.794
REMARK  Name = 38028485
REMARK  11 active torsions:
REMARK  status: ('A' for Active; 'I' for Inactive)
REMARK    1  A    between atoms: N_4  and  C_15
REMARK    2  A    between atoms: N_5  and  C_22
REMARK    3  A    between atoms: N_6  and  C_24
REMARK    4  A    between atoms: C_8  and  C_12
REMARK    5  A    between atoms: C_9  and  C_15
REMARK    6  A    between atoms: C_11  and  C_16
REMARK    7  A    between atoms: C_12  and  C_17
REMARK    8  A    between atoms: C_12  and  C_18
REMARK    9  A    between atoms: C_13  and  C_19
REMARK   10  A    between atoms: C_16  and  C_20
REMARK   11  A    between atoms: C_22  and  C_23
REMARK                            x       y       z     vdW  Elec       q    Type
REMARK                         _______ _______ _______ _____ _____    ______ ____
ROOT
ATOM      8  C   UNL     1     -12.373   8.801  19.726  0.00  0.00    +0.000 C 
ATOM      9  C   UNL     1     -11.541  10.004  20.234  0.00  0.00    +0.032 C 
ATOM     10  C   UNL     1     -11.591   8.023  18.655  0.00  0.00    +0.012 C 
ATOM     11  C   UNL     1     -11.222   8.906  17.448  0.00  0.00    +0.023 C 
ATOM     13  C   UNL     1     -10.638  10.235  17.881  0.00  0.00    -0.073 C 
ATOM     14  C   UNL     1     -10.779  10.704  19.133  0.00  0.00    -0.022 C 
ATOM     19  C   UNL     1      -9.848  10.994  16.851  0.00  0.00    +0.039 C 
ENDROOT
BRANCH   8  12
ATOM     12  C   UNL     1     -12.765   7.858  20.867  0.00  0.00    -0.013 C 
ATOM     17  C   UNL     1     -11.839   6.648  20.901  0.00  0.00    +0.007 C 
ATOM     18  C   UNL     1     -14.220   7.422  20.721  0.00  0.00    +0.007 C 
ENDBRANCH   8  12
BRANCH   9  15
ATOM     15  C   UNL     1     -12.429  11.019  20.965  0.00  0.00    +0.113 C 
BRANCH  15   4
ATOM      3  O   UNL     1     -13.261  10.020  23.517  0.00  0.00    -0.253 OA
ATOM      4  N   UNL     1     -11.872  11.357  22.237  0.00  0.00    -0.299 N 
ATOM      6  N   UNL     1     -11.601  11.335  24.530  0.00  0.00    -0.269 N 
ATOM     21  C   UNL     1     -12.334  10.824  23.456  0.00  0.00    +0.304 C 
ATOM     34  H   UNL     1     -11.057  11.962  22.264  0.00  0.00    +0.150 HD
ATOM     36  H   UNL     1     -10.863  11.998  24.305  0.00  0.00    +0.156 HD
BRANCH   6  24
ATOM      1  F   UNL     1     -14.065  11.760  28.629  0.00  0.00    -0.205 F 
ATOM     24  C   UNL     1     -11.761  11.045  25.906  0.00  0.00    +0.037 A 
ATOM     27  C   UNL     1     -12.855  11.556  26.603  0.00  0.00    +0.061 A 
ATOM     28  C   UNL     1     -10.825  10.247  26.564  0.00  0.00    +0.023 A 
ATOM     30  C   UNL     1     -13.014  11.269  27.958  0.00  0.00    +0.125 A 
ATOM     31  C   UNL     1     -10.984   9.960  27.919  0.00  0.00    +0.005 A 
ATOM     33  C   UNL     1     -12.078  10.471  28.617  0.00  0.00    +0.038 A 
ENDBRANCH   6  24
ENDBRANCH  15   4
ENDBRANCH   9  15
BRANCH  11  16
ATOM     16  C   UNL     1     -12.427   9.110  16.524  0.00  0.00    +0.103 C 
BRANCH  16  20
ATOM      2  O   UNL     1     -11.141   8.605  14.539  0.00  0.00    -0.276 OA
ATOM      5  N   UNL     1     -13.339   7.868  14.697  0.00  0.00    -0.311 N 
ATOM     20  C   UNL     1     -12.200   8.515  15.153  0.00  0.00    +0.214 C 
ATOM     35  H   UNL     1     -14.171   7.845  15.281  0.00  0.00    +0.149 HD
BRANCH   5  22
ATOM     22  C   UNL     1     -13.412   7.208  13.413  0.00  0.00    +0.141 C 
BRANCH  22  23
ATOM      7  N   UNL     1     -16.042   4.937  11.921  0.00  0.00    -0.263 NA
ATOM     23  C   UNL     1     -14.700   6.455  13.240  0.00  0.00    -0.012 A 
ATOM     25  C   UNL     1     -15.720   6.556  14.179  0.00  0.00    +0.008 A 
ATOM     26  C   UNL     1     -14.908   5.640  12.139  0.00  0.00    +0.115 A 
ATOM     29  C   UNL     1     -16.902   5.848  13.990  0.00  0.00    +0.020 A 
ATOM     32  C   UNL     1     -17.012   5.060  12.856  0.00  0.00    +0.111 A 
ENDBRANCH  22  23
ENDBRANCH   5  22
ENDBRANCH  16  20
ENDBRANCH  11  16
TORSDOF 8
ENDMDL
MODEL 6
REMARK VINA RESULT:      -6.6      1.079      1.366
REMARK  Name = 38028485
REMARK  11 active torsions:
REMARK  status: ('A' for Active; 'I' for Inactive)
REMARK    1  A    between atoms: N_4  and  C_15
REMARK    2  A    between atoms: N_5  and  C_22
REMARK    3  A    between atoms: N_6  and  C_24
REMARK    4  A    between atoms: C_8  and  C_12
REMARK    5  A    between atoms: C_9  and  C_15
REMARK    6  A    between atoms: C_11  and  C_16
REMARK    7  A    between atoms: C_12  and  C_17
REMARK    8  A    between atoms: C_12  and  C_18
REMARK    9  A    between atoms: C_13  and  C_19
REMARK   10  A    between atoms: C_16  and  C_20
REMARK   11  A    between atoms: C_22  and  C_23
REMARK                            x       y       z     vdW  Elec       q    Type
REMARK                         _______ _______ _______ _____ _____    ______ ____
ROOT
ATOM      8  C   UNL     1      -6.586 -11.099  16.123  0.00  0.00    +0.000 C 
ATOM      9  C   UNL     1      -7.054 -11.162  17.598  0.00  0.00    +0.032 C 
ATOM     10  C   UNL     1      -5.529 -12.181  15.850  0.00  0.00    +0.012 C 
ATOM     11  C   UNL     1      -4.295 -12.032  16.760  0.00  0.00    +0.023 C 
ATOM     13  C   UNL     1      -4.687 -11.819  18.208  0.00  0.00    -0.073 C 
ATOM     14  C   UNL     1      -5.927 -11.442  18.565  0.00  0.00    -0.022 C 
ATOM     19  C   UNL     1      -3.630 -12.091  19.242  0.00  0.00    +0.039 C 
ENDROOT
BRANCH   8  12
ATOM     12  C   UNL     1      -7.756 -11.261  15.148  0.00  0.00    -0.013 C 
ATOM     17  C   UNL     1      -8.566 -12.507  15.489  0.00  0.00    +0.007 C 
ATOM     18  C   UNL     1      -7.246 -11.324  13.711  0.00  0.00    +0.007 C 
ENDBRANCH   8  12
BRANCH   9  15
ATOM     15  C   UNL     1      -7.767  -9.866  18.007  0.00  0.00    +0.113 C 
BRANCH  15   4
ATOM      3  O   UNL     1     -10.595 -10.293  17.859  0.00  0.00    -0.253 OA
ATOM      4  N   UNL     1      -8.653 -10.099  19.103  0.00  0.00    -0.299 N 
ATOM      6  N   UNL     1     -10.645 -10.502  20.197  0.00  0.00    -0.269 N 
ATOM     21  C   UNL     1     -10.038 -10.301  18.955  0.00  0.00    +0.304 C 
ATOM     34  H   UNL     1      -8.259 -10.189  20.034  0.00  0.00    +0.150 HD
ATOM     36  H   UNL     1     -10.037 -10.475  21.012  0.00  0.00    +0.156 HD
BRANCH   6  24
ATOM      1  F   UNL     1     -15.102  -8.866  20.917  0.00  0.00    -0.205 F 
ATOM     24  C   UNL     1     -12.014 -10.738  20.466  0.00  0.00    +0.037 A 
ATOM     27  C   UNL     1     -12.900  -9.665  20.561  0.00  0.00    +0.061 A 
ATOM     28  C   UNL     1     -12.478 -12.043  20.634  0.00  0.00    +0.023 A 
ATOM     30  C   UNL     1     -14.250  -9.896  20.825  0.00  0.00    +0.125 A 
ATOM     31  C   UNL     1     -13.828 -12.274  20.897  0.00  0.00    +0.005 A 
ATOM     33  C   UNL     1     -14.714 -11.201  20.993  0.00  0.00    +0.038 A 
ENDBRANCH   6  24
ENDBRANCH  15   4
ENDBRANCH   9  15
BRANCH  11  16
ATOM     16  C   UNL     1      -3.378 -10.908  16.267  0.00  0.00    +0.103 C 
BRANCH  16  20
ATOM      2  O   UNL     1      -2.091 -12.385  14.849  0.00  0.00    -0.276 OA
ATOM      5  N   UNL     1      -2.636 -10.258  14.090  0.00  0.00    -0.311 N 
ATOM     20  C   UNL     1      -2.629 -11.294  15.011  0.00  0.00    +0.214 C 
ATOM     35  H   UNL     1      -3.114  -9.389  14.316  0.00  0.00    +0.149 HD
BRANCH   5  22
ATOM     22  C   UNL     1      -1.995 -10.345  12.798  0.00  0.00    +0.141 C 
BRANCH  22  23
ATOM      7  N   UNL     1      -5.060 -11.025  10.691  0.00  0.00    -0.263 NA
ATOM     23  C   UNL     1      -2.985 -10.266  11.672  0.00  0.00    -0.012 A 
ATOM     25  C   UNL     1      -2.781  -9.408  10.597  0.00  0.00    +0.008 A 
ATOM     26  C   UNL     1      -4.130 -11.046  11.671  0.00  0.00    +0.115 A 
ATOM     29  C   UNL     1      -3.715  -9.358   9.569  0.00  0.00    +0.020 A 
ATOM     32  C   UNL     1      -4.827 -10.178   9.662  0.00  0.00    +0.111 A 
ENDBRANCH  22  23
ENDBRANCH   5  22
ENDBRANCH  16  20
ENDBRANCH  11  16
TORSDOF 8
ENDMDL
MODEL 7
REMARK VINA RESULT:      -6.5     24.556     29.796
REMARK  Name = 38028485
REMARK  11 active torsions:
REMARK  status: ('A' for Active; 'I' for Inactive)
REMARK    1  A    between atoms: N_4  and  C_15
REMARK    2  A    between atoms: N_5  and  C_22
REMARK    3  A    between atoms: N_6  and  C_24
REMARK    4  A    between atoms: C_8  and  C_12
REMARK    5  A    between atoms: C_9  and  C_15
REMARK    6  A    between atoms: C_11  and  C_16
REMARK    7  A    between atoms: C_12  and  C_17
REMARK    8  A    between atoms: C_12  and  C_18
REMARK    9  A    between atoms: C_13  and  C_19
REMARK   10  A    between atoms: C_16  and  C_20
REMARK   11  A    between atoms: C_22  and  C_23
REMARK                            x       y       z     vdW  Elec       q    Type
REMARK                         _______ _______ _______ _____ _____    ______ ____
ROOT
ATOM      8  C   UNL     1      15.391   9.763   5.266  0.00  0.00    +0.000 C 
ATOM      9  C   UNL     1      15.972   8.331   5.366  0.00  0.00    +0.032 C 
ATOM     10  C   UNL     1      14.625  10.122   6.549  0.00  0.00    +0.012 C 
ATOM     11  C   UNL     1      13.467   9.144   6.828  0.00  0.00    +0.023 C 
ATOM     13  C   UNL     1      13.903   7.700   6.681  0.00  0.00    -0.073 C 
ATOM     14  C   UNL     1      15.031   7.357   6.036  0.00  0.00    -0.022 C 
ATOM     19  C   UNL     1      13.032   6.661   7.331  0.00  0.00    +0.039 C 
ENDROOT
BRANCH   8  12
ATOM     12  C   UNL     1      16.485  10.804   5.008  0.00  0.00    -0.013 C 
ATOM     17  C   UNL     1      17.581  10.696   6.062  0.00  0.00    +0.007 C 
ATOM     18  C   UNL     1      15.889  12.208   4.989  0.00  0.00    +0.007 C 
ENDBRANCH   8  12
BRANCH   9  15
ATOM     15  C   UNL     1      16.363   7.795   3.983  0.00  0.00    +0.113 C 
BRANCH  15   4
ATOM      3  O   UNL     1      14.755   7.338   1.658  0.00  0.00    -0.253 OA
ATOM      4  N   UNL     1      15.629   6.609   3.672  0.00  0.00    -0.299 N 
ATOM      6  N   UNL     1      14.255   5.193   2.473  0.00  0.00    -0.269 N 
ATOM     21  C   UNL     1      14.856   6.454   2.506  0.00  0.00    +0.304 C 
ATOM     34  H   UNL     1      15.719   5.808   4.290  0.00  0.00    +0.150 HD
ATOM     36  H   UNL     1      14.441   4.578   3.261  0.00  0.00    +0.156 HD
BRANCH   6  24
ATOM      1  F   UNL     1       9.898   4.705   0.516  0.00  0.00    -0.205 F 
ATOM     24  C   UNL     1      13.408   4.662   1.472  0.00  0.00    +0.037 A 
ATOM     27  C   UNL     1      12.044   4.951   1.488  0.00  0.00    +0.061 A 
ATOM     28  C   UNL     1      13.937   3.850   0.469  0.00  0.00    +0.023 A 
ATOM     30  C   UNL     1      11.209   4.429   0.501  0.00  0.00    +0.125 A 
ATOM     31  C   UNL     1      13.102   3.327  -0.518  0.00  0.00    +0.005 A 
ATOM     33  C   UNL     1      11.738   3.617  -0.502  0.00  0.00    +0.038 A 
ENDBRANCH   6  24
ENDBRANCH  15   4
ENDBRANCH   9  15
BRANCH  11  16
ATOM     16  C   UNL     1      12.261   9.448   5.935  0.00  0.00    +0.103 C 
BRANCH  16  20
ATOM      2  O   UNL     1      10.534   9.516   7.627  0.00  0.00    -0.276 OA
ATOM      5  N   UNL     1      10.322   8.053   5.835  0.00  0.00    -0.311 N 
ATOM     20  C   UNL     1      10.957   9.035   6.580  0.00  0.00    +0.214 C 
ATOM     35  H   UNL     1      10.751   7.718   4.976  0.00  0.00    +0.149 HD
BRANCH   5  22
ATOM     22  C   UNL     1       9.056   7.468   6.214  0.00  0.00    +0.141 C 
BRANCH  22  23
ATOM      7  N   UNL     1       9.074   5.478   9.429  0.00  0.00    -0.263 NA
ATOM     23  C   UNL     1       9.229   6.322   7.169  0.00  0.00    -0.012 A 
ATOM     25  C   UNL     1       9.686   5.085   6.729  0.00  0.00    +0.008 A 
ATOM     26  C   UNL     1       8.940   6.466   8.516  0.00  0.00    +0.115 A 
ATOM     29  C   UNL     1       9.838   4.044   7.638  0.00  0.00    +0.020 A 
ATOM     32  C   UNL     1       9.521   4.289   8.964  0.00  0.00    +0.111 A 
ENDBRANCH  22  23
ENDBRANCH   5  22
ENDBRANCH  16  20
ENDBRANCH  11  16
TORSDOF 8
ENDMDL
MODEL 8
REMARK VINA RESULT:      -6.5      3.510      6.510
REMARK  Name = 38028485
REMARK  11 active torsions:
REMARK  status: ('A' for Active; 'I' for Inactive)
REMARK    1  A    between atoms: N_4  and  C_15
REMARK    2  A    between atoms: N_5  and  C_22
REMARK    3  A    between atoms: N_6  and  C_24
REMARK    4  A    between atoms: C_8  and  C_12
REMARK    5  A    between atoms: C_9  and  C_15
REMARK    6  A    between atoms: C_11  and  C_16
REMARK    7  A    between atoms: C_12  and  C_17
REMARK    8  A    between atoms: C_12  and  C_18
REMARK    9  A    between atoms: C_13  and  C_19
REMARK   10  A    between atoms: C_16  and  C_20
REMARK   11  A    between atoms: C_22  and  C_23
REMARK                            x       y       z     vdW  Elec       q    Type
REMARK                         _______ _______ _______ _____ _____    ______ ____
ROOT
ATOM      8  C   UNL     1      -2.907 -12.407  12.562  0.00  0.00    +0.000 C 
ATOM      9  C   UNL     1      -1.892 -11.242  12.651  0.00  0.00    +0.032 C 
ATOM     10  C   UNL     1      -3.300 -12.666  11.099  0.00  0.00    +0.012 C 
ATOM     11  C   UNL     1      -3.925 -11.424  10.436  0.00  0.00    +0.023 C 
ATOM     13  C   UNL     1      -3.114 -10.174  10.708  0.00  0.00    -0.073 C 
ATOM     14  C   UNL     1      -2.201 -10.114  11.693  0.00  0.00    -0.022 C 
ATOM     19  C   UNL     1      -3.344  -9.004   9.791  0.00  0.00    +0.039 C 
ENDROOT
BRANCH   8  12
ATOM     12  C   UNL     1      -2.353 -13.693  13.185  0.00  0.00    -0.013 C 
ATOM     17  C   UNL     1      -2.298 -14.807  12.145  0.00  0.00    +0.007 C 
ATOM     18  C   UNL     1      -3.201 -14.112  14.382  0.00  0.00    +0.007 C 
ENDBRANCH   8  12
BRANCH   9  15
ATOM     15  C   UNL     1      -1.807 -10.689  14.079  0.00  0.00    +0.113 C 
BRANCH  15   4
ATOM      3  O   UNL     1      -3.043 -11.387  16.567  0.00  0.00    -0.253 OA
ATOM      4  N   UNL     1      -3.095 -10.273  14.539  0.00  0.00    -0.299 N 
ATOM      6  N   UNL     1      -4.908 -10.099  15.957  0.00  0.00    -0.269 N 
ATOM     21  C   UNL     1      -3.640 -10.657  15.779  0.00  0.00    +0.304 C 
ATOM     34  H   UNL     1      -3.620  -9.613  13.976  0.00  0.00    +0.150 HD
ATOM     36  H   UNL     1      -5.261  -9.516  15.201  0.00  0.00    +0.156 HD
BRANCH   6  24
ATOM      1  F   UNL     1      -5.649 -11.305  20.545  0.00  0.00    -0.205 F 
ATOM     24  C   UNL     1      -5.774 -10.248  17.066  0.00  0.00    +0.037 A 
ATOM     27  C   UNL     1      -5.275 -10.712  18.282  0.00  0.00    +0.061 A 
ATOM     28  C   UNL     1      -7.127  -9.930  16.943  0.00  0.00    +0.023 A 
ATOM     30  C   UNL     1      -6.128 -10.858  19.376  0.00  0.00    +0.125 A 
ATOM     31  C   UNL     1      -7.980 -10.075  18.037  0.00  0.00    +0.005 A 
ATOM     33  C   UNL     1      -7.480 -10.540  19.253  0.00  0.00    +0.038 A 
ENDBRANCH   6  24
ENDBRANCH  15   4
ENDBRANCH   9  15
BRANCH  11  16
ATOM     16  C   UNL     1      -5.382 -11.239  10.871  0.00  0.00    +0.103 C 
BRANCH  16  20
ATOM      2  O   UNL     1      -7.359 -12.153   9.820  0.00  0.00    -0.276 OA
ATOM      5  N   UNL     1      -5.938 -10.785   8.591  0.00  0.00    -0.311 N 
ATOM     20  C   UNL     1      -6.349 -11.461   9.730  0.00  0.00    +0.214 C 
ATOM     35  H   UNL     1      -5.085 -10.233   8.615  0.00  0.00    +0.149 HD
BRANCH   5  22
ATOM     22  C   UNL     1      -6.671 -10.819   7.346  0.00  0.00    +0.141 C 
BRANCH  22  23
ATOM      7  N   UNL     1      -3.724 -12.247   5.454  0.00  0.00    -0.263 NA
ATOM     23  C   UNL     1      -5.836 -11.349   6.216  0.00  0.00    -0.012 A 
ATOM     25  C   UNL     1      -6.350 -11.441   4.927  0.00  0.00    +0.008 A 
ATOM     26  C   UNL     1      -4.530 -11.761   6.425  0.00  0.00    +0.115 A 
ATOM     29  C   UNL     1      -5.552 -11.935   3.901  0.00  0.00    +0.020 A 
ATOM     32  C   UNL     1      -4.258 -12.321   4.214  0.00  0.00    +0.111 A 
ENDBRANCH  22  23
ENDBRANCH   5  22
ENDBRANCH  16  20
ENDBRANCH  11  16
TORSDOF 8
ENDMDL
MODEL 9
REMARK VINA RESULT:      -6.4      3.529      6.505
REMARK  Name = 38028485
REMARK  11 active torsions:
REMARK  status: ('A' for Active; 'I' for Inactive)
REMARK    1  A    between atoms: N_4  and  C_15
REMARK    2  A    between atoms: N_5  and  C_22
REMARK    3  A    between atoms: N_6  and  C_24
REMARK    4  A    between atoms: C_8  and  C_12
REMARK    5  A    between atoms: C_9  and  C_15
REMARK    6  A    between atoms: C_11  and  C_16
REMARK    7  A    between atoms: C_12  and  C_17
REMARK    8  A    between atoms: C_12  and  C_18
REMARK    9  A    between atoms: C_13  and  C_19
REMARK   10  A    between atoms: C_16  and  C_20
REMARK   11  A    between atoms: C_22  and  C_23
REMARK                            x       y       z     vdW  Elec       q    Type
REMARK                         _______ _______ _______ _____ _____    ______ ____
ROOT
ATOM      8  C   UNL     1      -2.928 -12.401  12.913  0.00  0.00    +0.000 C 
ATOM      9  C   UNL     1      -1.822 -11.318  12.917  0.00  0.00    +0.032 C 
ATOM     10  C   UNL     1      -3.382 -12.699  11.475  0.00  0.00    +0.012 C 
ATOM     11  C   UNL     1      -3.925 -11.444  10.765  0.00  0.00    +0.023 C 
ATOM     13  C   UNL     1      -3.010 -10.251  10.953  0.00  0.00    -0.073 C 
ATOM     14  C   UNL     1      -2.068 -10.217  11.911  0.00  0.00    -0.022 C 
ATOM     19  C   UNL     1      -3.175  -9.113   9.984  0.00  0.00    +0.039 C 
ENDROOT
BRANCH   8  12
ATOM     12  C   UNL     1      -2.459 -13.695  13.586  0.00  0.00    -0.013 C 
ATOM     17  C   UNL     1      -1.998 -14.703  12.539  0.00  0.00    +0.007 C 
ATOM     18  C   UNL     1      -3.574 -14.281  14.447  0.00  0.00    +0.007 C 
ENDBRANCH   8  12
BRANCH   9  15
ATOM     15  C   UNL     1      -1.653 -10.705  14.313  0.00  0.00    +0.113 C 
BRANCH  15   4
ATOM      3  O   UNL     1      -3.074 -11.633  16.620  0.00  0.00    -0.253 OA
ATOM      4  N   UNL     1      -2.901 -10.210  14.804  0.00  0.00    -0.299 N 
ATOM      6  N   UNL     1      -4.742 -10.039  16.185  0.00  0.00    -0.269 N 
ATOM     21  C   UNL     1      -3.543 -10.717  15.949  0.00  0.00    +0.304 C 
ATOM     34  H   UNL     1      -3.317  -9.406  14.344  0.00  0.00    +0.150 HD
ATOM     36  H   UNL     1      -4.988  -9.303  15.528  0.00  0.00    +0.156 HD
BRANCH   6  24
ATOM      1  F   UNL     1      -5.703 -11.300  20.718  0.00  0.00    -0.205 F 
ATOM     24  C   UNL     1      -5.669 -10.255  17.233  0.00  0.00    +0.037 A 
ATOM     27  C   UNL     1      -5.220 -10.680  18.483  0.00  0.00    +0.061 A 
ATOM     28  C   UNL     1      -7.030 -10.042  17.015  0.00  0.00    +0.023 A 
ATOM     30  C   UNL     1      -6.133 -10.891  19.516  0.00  0.00    +0.125 A 
ATOM     31  C   UNL     1      -7.943 -10.253  18.049  0.00  0.00    +0.005 A 
ATOM     33  C   UNL     1      -7.494 -10.678  19.299  0.00  0.00    +0.038 A 
ENDBRANCH   6  24
ENDBRANCH  15   4
ENDBRANCH   9  15
BRANCH  11  16
ATOM     16  C   UNL     1      -5.350 -11.122  11.226  0.00  0.00    +0.103 C 
BRANCH  16  20
ATOM      2  O   UNL     1      -7.348 -12.062  10.239  0.00  0.00    -0.276 OA
ATOM      5  N   UNL     1      -6.033 -10.606   8.994  0.00  0.00    -0.311 N 
ATOM     20  C   UNL     1      -6.366 -11.335  10.126  0.00  0.00    +0.214 C 
ATOM     35  H   UNL     1      -5.197 -10.027   8.998  0.00  0.00    +0.149 HD
BRANCH   5  22
ATOM     22  C   UNL     1      -6.826 -10.618   7.786  0.00  0.00    +0.141 C 
BRANCH  22  23
ATOM      7  N   UNL     1      -8.542  -7.810   5.925  0.00  0.00    -0.263 NA
ATOM     23  C   UNL     1      -7.421  -9.272   7.490  0.00  0.00    -0.012 A 
ATOM     25  C   UNL     1      -7.418  -8.261   8.444  0.00  0.00    +0.008 A 
ATOM     26  C   UNL     1      -7.991  -8.999   6.257  0.00  0.00    +0.115 A 
ATOM     29  C   UNL     1      -7.975  -7.025   8.140  0.00  0.00    +0.020 A 
ATOM     32  C   UNL     1      -8.520  -6.851   6.878  0.00  0.00    +0.111 A 
ENDBRANCH  22  23
ENDBRANCH   5  22
ENDBRANCH  16  20
ENDBRANCH  11  16
TORSDOF 8
ENDMDL
MODEL 10
REMARK VINA RESULT:      -6.4     25.471     28.892
REMARK  Name = 38028485
REMARK  11 active torsions:
REMARK  status: ('A' for Active; 'I' for Inactive)
REMARK    1  A    between atoms: N_4  and  C_15
REMARK    2  A    between atoms: N_5  and  C_22
REMARK    3  A    between atoms: N_6  and  C_24
REMARK    4  A    between atoms: C_8  and  C_12
REMARK    5  A    between atoms: C_9  and  C_15
REMARK    6  A    between atoms: C_11  and  C_16
REMARK    7  A    between atoms: C_12  and  C_17
REMARK    8  A    between atoms: C_12  and  C_18
REMARK    9  A    between atoms: C_13  and  C_19
REMARK   10  A    between atoms: C_16  and  C_20
REMARK   11  A    between atoms: C_22  and  C_23
REMARK                            x       y       z     vdW  Elec       q    Type
REMARK                         _______ _______ _______ _____ _____    ______ ____
ROOT
ATOM      8  C   UNL     1       8.739   8.613   5.602  0.00  0.00    +0.000 C 
ATOM      9  C   UNL     1       8.740   8.637   7.150  0.00  0.00    +0.032 C 
ATOM     10  C   UNL     1       8.252   7.249   5.087  0.00  0.00    +0.012 C 
ATOM     11  C   UNL     1       9.129   6.088   5.594  0.00  0.00    +0.023 C 
ATOM     13  C   UNL     1       9.398   6.194   7.081  0.00  0.00    -0.073 C 
ATOM     14  C   UNL     1       9.207   7.337   7.762  0.00  0.00    -0.022 C 
ATOM     19  C   UNL     1       9.852   4.941   7.778  0.00  0.00    +0.039 C 
ENDROOT
BRANCH   8  12
ATOM     12  C   UNL     1       7.869   9.728   5.015  0.00  0.00    -0.013 C 
ATOM     17  C   UNL     1       7.074   9.211   3.821  0.00  0.00    +0.007 C 
ATOM     18  C   UNL     1       8.732  10.921   4.615  0.00  0.00    +0.007 C 
ENDBRANCH   8  12
BRANCH   9  15
ATOM     15  C   UNL     1       9.599   9.790   7.684  0.00  0.00    +0.113 C 
BRANCH  15   4
ATOM      3  O   UNL     1      11.725  10.406   5.867  0.00  0.00    -0.253 OA
ATOM      4  N   UNL     1      10.966   9.392   7.804  0.00  0.00    -0.299 N 
ATOM      6  N   UNL     1      13.198   9.205   7.246  0.00  0.00    -0.269 N 
ATOM     21  C   UNL     1      11.961   9.732   6.868  0.00  0.00    +0.304 C 
ATOM     34  H   UNL     1      11.253   8.892   8.639  0.00  0.00    +0.150 HD
ATOM     36  H   UNL     1      13.220   8.665   8.108  0.00  0.00    +0.156 HD
BRANCH   6  24
ATOM      1  F   UNL     1      16.581   7.385   4.365  0.00  0.00    -0.205 F 
ATOM     24  C   UNL     1      14.436   9.326   6.572  0.00  0.00    +0.037 A 
ATOM     27  C   UNL     1      14.907   8.275   5.786  0.00  0.00    +0.061 A 
ATOM     28  C   UNL     1      15.184  10.498   6.692  0.00  0.00    +0.023 A 
ATOM     30  C   UNL     1      16.126   8.395   5.120  0.00  0.00    +0.125 A 
ATOM     31  C   UNL     1      16.403  10.617   6.025  0.00  0.00    +0.005 A 
ATOM     33  C   UNL     1      16.875   9.566   5.240  0.00  0.00    +0.038 A 
ENDBRANCH   6  24
ENDBRANCH  15   4
ENDBRANCH   9  15
BRANCH  11  16
ATOM     16  C   UNL     1      10.438   6.000   4.804  0.00  0.00    +0.103 C 
BRANCH  16  20
ATOM      2  O   UNL     1      10.488   3.614   4.408  0.00  0.00    -0.276 OA
ATOM      5  N   UNL     1      10.591   5.076   2.604  0.00  0.00    -0.311 N 
ATOM     20  C   UNL     1      10.505   4.753   3.950  0.00  0.00    +0.214 C 
ATOM     35  H   UNL     1      10.596   6.052   2.322  0.00  0.00    +0.149 HD
BRANCH   5  22
ATOM     22  C   UNL     1      10.670   4.082   1.558  0.00  0.00    +0.141 C 
BRANCH  22  23
ATOM      7  N   UNL     1      13.454   4.378  -0.984  0.00  0.00    -0.263 NA
ATOM     23  C   UNL     1      12.039   4.020   0.943  0.00  0.00    -0.012 A 
ATOM     25  C   UNL     1      13.132   3.569   1.673  0.00  0.00    +0.008 A 
ATOM     26  C   UNL     1      12.250   4.410  -0.370  0.00  0.00    +0.115 A 
ATOM     29  C   UNL     1      14.387   3.522   1.076  0.00  0.00    +0.020 A 
ATOM     32  C   UNL     1      14.494   3.933  -0.243  0.00  0.00    +0.111 A 
ENDBRANCH  22  23
ENDBRANCH   5  22
ENDBRANCH  16  20
ENDBRANCH  11  16
TORSDOF 8
ENDMDL
