MODEL 1
REMARK VINA RESULT:      -7.4      0.000      0.000
REMARK  Name = 26762206
REMARK  5 active torsions:
REMARK  status: ('A' for Active; 'I' for Inactive)
REMARK    1  A    between atoms: N_8  and  C_13
REMARK    2  A    between atoms: N_10  and  C_28
REMARK    3  A    between atoms: C_12  and  C_17
REMARK    4  A    between atoms: C_17  and  C_19
REMARK    5  A    between atoms: C_19  and  C_20
REMARK                            x       y       z     vdW  Elec       q    Type
REMARK                         _______ _______ _______ _____ _____    ______ ____
ROOT
ATOM      3  O   UNL     1      10.063  10.353   5.148  0.00  0.00    -0.274 OA
ATOM      6  N   UNL     1      11.251   7.517   6.677  0.00  0.00    -0.285 NA
ATOM      7  N   UNL     1       9.105   9.141   6.866  0.00  0.00    -0.313 N 
ATOM     11  C   UNL     1      11.485   8.950   6.522  0.00  0.00    +0.145 C 
ATOM     12  C   UNL     1      10.353   7.184   7.787  0.00  0.00    +0.075 C 
ATOM     13  C   UNL     1      13.313   7.640   5.614  0.00  0.00    +0.090 C 
ATOM     14  C   UNL     1      12.620   9.006   5.508  0.00  0.00    +0.052 C 
ATOM     15  C   UNL     1      12.574   6.904   6.733  0.00  0.00    +0.107 C 
ATOM     16  C   UNL     1       9.326   8.311   8.038  0.00  0.00    +0.123 C 
ATOM     18  C   UNL     1      10.168   9.557   6.075  0.00  0.00    +0.230 C 
ATOM     36  H   UNL     1       8.176   9.506   6.680  0.00  0.00    +0.149 HD
ENDROOT
BRANCH  13   8
ATOM      5  O   UNL     1      15.506   6.973   3.894  0.00  0.00    -0.252 OA
ATOM      8  N   UNL     1      13.243   6.918   4.365  0.00  0.00    -0.295 N 
ATOM     10  N   UNL     1      13.995   5.925   2.435  0.00  0.00    -0.267 N 
ATOM     21  C   UNL     1      14.368   6.632   3.581  0.00  0.00    +0.304 C 
ATOM     37  H   UNL     1      12.351   6.524   4.084  0.00  0.00    +0.151 HD
ATOM     38  H   UNL     1      13.005   5.719   2.324  0.00  0.00    +0.156 HD
BRANCH  10  28
ATOM      1  F   UNL     1      14.536   3.209   2.124  0.00  0.00    -0.203 F 
ATOM      2  F   UNL     1      17.271   4.078  -1.637  0.00  0.00    -0.205 F 
ATOM     28  C   UNL     1      14.831   5.452   1.397  0.00  0.00    +0.070 A 
ATOM     31  C   UNL     1      15.082   4.086   1.268  0.00  0.00    +0.147 A 
ATOM     32  C   UNL     1      15.404   6.353   0.500  0.00  0.00    +0.029 A 
ATOM     33  C   UNL     1      15.907   3.621   0.243  0.00  0.00    +0.078 A 
ATOM     34  C   UNL     1      16.229   5.889  -0.524  0.00  0.00    +0.040 A 
ATOM     35  C   UNL     1      16.479   4.523  -0.654  0.00  0.00    +0.126 A 
ENDBRANCH  10  28
ENDBRANCH  13   8
BRANCH  12  17
ATOM     17  C   UNL     1       9.632   5.874   7.459  0.00  0.00    +0.029 C 
BRANCH  17  19
ATOM     19  C   UNL     1       8.853   5.953   6.155  0.00  0.00    +0.098 C 
BRANCH  19  20
ATOM      4  O   UNL     1       9.974   4.053   5.287  0.00  0.00    -0.275 OA
ATOM      9  N   UNL     1       9.654   5.863   3.848  0.00  0.00    -0.271 N 
ATOM     20  C   UNL     1       9.553   5.186   5.057  0.00  0.00    +0.220 C 
ATOM     22  C   UNL     1       9.147   7.224   3.575  0.00  0.00    +0.118 C 
ATOM     23  C   UNL     1      10.259   5.370   2.674  0.00  0.00    +0.039 A 
ATOM     24  C   UNL     1       9.473   7.559   2.116  0.00  0.00    +0.056 C 
ATOM     25  C   UNL     1      10.174   6.323   1.656  0.00  0.00    -0.024 A 
ATOM     26  C   UNL     1      10.875   4.147   2.446  0.00  0.00    +0.024 A 
ATOM     27  C   UNL     1      10.697   6.080   0.395  0.00  0.00    +0.005 A 
ATOM     29  C   UNL     1      11.406   3.894   1.177  0.00  0.00    +0.002 A 
ATOM     30  C   UNL     1      11.317   4.853   0.158  0.00  0.00    +0.000 A 
ENDBRANCH  19  20
ENDBRANCH  17  19
ENDBRANCH  12  17
TORSDOF 5
ENDMDL
MODEL 2
REMARK VINA RESULT:      -7.2     30.637     34.892
REMARK  Name = 26762206
REMARK  5 active torsions:
REMARK  status: ('A' for Active; 'I' for Inactive)
REMARK    1  A    between atoms: N_8  and  C_13
REMARK    2  A    between atoms: N_10  and  C_28
REMARK    3  A    between atoms: C_12  and  C_17
REMARK    4  A    between atoms: C_17  and  C_19
REMARK    5  A    between atoms: C_19  and  C_20
REMARK                            x       y       z     vdW  Elec       q    Type
REMARK                         _______ _______ _______ _____ _____    ______ ____
ROOT
ATOM      3  O   UNL     1     -18.668   6.701  24.729  0.00  0.00    -0.274 OA
ATOM      6  N   UNL     1     -16.084   4.635  23.805  0.00  0.00    -0.285 NA
ATOM      7  N   UNL     1     -17.393   6.770  22.803  0.00  0.00    -0.313 N 
ATOM     11  C   UNL     1     -17.530   4.685  24.007  0.00  0.00    +0.145 C 
ATOM     12  C   UNL     1     -15.666   5.002  22.449  0.00  0.00    +0.075 C 
ATOM     13  C   UNL     1     -16.460   3.152  25.554  0.00  0.00    +0.090 C 
ATOM     14  C   UNL     1     -17.710   4.025  25.369  0.00  0.00    +0.052 C 
ATOM     15  C   UNL     1     -15.667   3.311  24.256  0.00  0.00    +0.107 C 
ATOM     16  C   UNL     1     -16.644   6.015  21.813  0.00  0.00    +0.123 C 
ATOM     18  C   UNL     1     -17.927   6.146  23.923  0.00  0.00    +0.230 C 
ATOM     36  H   UNL     1     -17.615   7.744  22.624  0.00  0.00    +0.149 HD
ENDROOT
BRANCH  13   8
ATOM      5  O   UNL     1     -16.658   2.120  28.220  0.00  0.00    -0.252 OA
ATOM      8  N   UNL     1     -15.693   3.573  26.703  0.00  0.00    -0.295 N 
ATOM     10  N   UNL     1     -14.977   3.617  28.885  0.00  0.00    -0.267 N 
ATOM     21  C   UNL     1     -15.852   3.014  27.977  0.00  0.00    +0.304 C 
ATOM     37  H   UNL     1     -14.942   4.243  26.564  0.00  0.00    +0.151 HD
ATOM     38  H   UNL     1     -14.369   4.347  28.521  0.00  0.00    +0.156 HD
BRANCH  10  28
ATOM      1  F   UNL     1     -13.488   1.437  29.775  0.00  0.00    -0.203 F 
ATOM      2  F   UNL     1     -14.396   2.526  34.289  0.00  0.00    -0.205 F 
ATOM     28  C   UNL     1     -14.828   3.337  30.263  0.00  0.00    +0.070 A 
ATOM     31  C   UNL     1     -14.076   2.237  30.676  0.00  0.00    +0.147 A 
ATOM     32  C   UNL     1     -15.434   4.163  31.210  0.00  0.00    +0.029 A 
ATOM     33  C   UNL     1     -13.930   1.963  32.037  0.00  0.00    +0.078 A 
ATOM     34  C   UNL     1     -15.288   3.888  32.570  0.00  0.00    +0.040 A 
ATOM     35  C   UNL     1     -14.536   2.789  32.983  0.00  0.00    +0.126 A 
ENDBRANCH  10  28
ENDBRANCH  13   8
BRANCH  12  17
ATOM     17  C   UNL     1     -14.257   5.595  22.513  0.00  0.00    +0.029 C 
BRANCH  17  19
ATOM     19  C   UNL     1     -14.186   6.988  21.906  0.00  0.00    +0.098 C 
BRANCH  19  20
ATOM      4  O   UNL     1     -11.957   6.662  21.169  0.00  0.00    -0.275 OA
ATOM      9  N   UNL     1     -13.452   7.645  19.670  0.00  0.00    -0.271 N 
ATOM     20  C   UNL     1     -13.079   7.079  20.882  0.00  0.00    +0.220 C 
ATOM     22  C   UNL     1     -14.801   8.144  19.329  0.00  0.00    +0.118 C 
ATOM     23  C   UNL     1     -12.611   7.842  18.556  0.00  0.00    +0.039 A 
ATOM     24  C   UNL     1     -14.753   8.674  17.892  0.00  0.00    +0.056 C 
ATOM     25  C   UNL     1     -13.328   8.435  17.514  0.00  0.00    -0.024 A 
ATOM     26  C   UNL     1     -11.266   7.537  18.403  0.00  0.00    +0.024 A 
ATOM     27  C   UNL     1     -12.724   8.734  16.303  0.00  0.00    +0.005 A 
ATOM     29  C   UNL     1     -10.649   7.836  17.184  0.00  0.00    +0.002 A 
ATOM     30  C   UNL     1     -11.373   8.430  16.141  0.00  0.00    +0.000 A 
ENDBRANCH  19  20
ENDBRANCH  17  19
ENDBRANCH  12  17
TORSDOF 5
ENDMDL
MODEL 3
REMARK VINA RESULT:      -7.1      2.040      4.977
REMARK  Name = 26762206
REMARK  5 active torsions:
REMARK  status: ('A' for Active; 'I' for Inactive)
REMARK    1  A    between atoms: N_8  and  C_13
REMARK    2  A    between atoms: N_10  and  C_28
REMARK    3  A    between atoms: C_12  and  C_17
REMARK    4  A    between atoms: C_17  and  C_19
REMARK    5  A    between atoms: C_19  and  C_20
REMARK                            x       y       z     vdW  Elec       q    Type
REMARK                         _______ _______ _______ _____ _____    ______ ____
ROOT
ATOM      3  O   UNL     1      10.508   4.526   8.212  0.00  0.00    -0.274 OA
ATOM      6  N   UNL     1       9.734   6.825   5.781  0.00  0.00    -0.285 NA
ATOM      7  N   UNL     1       9.543   6.611   8.463  0.00  0.00    -0.313 N 
ATOM     11  C   UNL     1       9.362   5.520   6.320  0.00  0.00    +0.145 C 
ATOM     12  C   UNL     1       9.032   7.945   6.415  0.00  0.00    +0.075 C 
ATOM     13  C   UNL     1      10.187   5.349   4.045  0.00  0.00    +0.090 C 
ATOM     14  C   UNL     1      10.010   4.546   5.342  0.00  0.00    +0.052 C 
ATOM     15  C   UNL     1       9.569   6.718   4.335  0.00  0.00    +0.107 C 
ATOM     16  C   UNL     1       8.682   7.629   7.887  0.00  0.00    +0.123 C 
ATOM     18  C   UNL     1       9.887   5.474   7.742  0.00  0.00    +0.230 C 
ATOM     36  H   UNL     1       9.815   6.680   9.439  0.00  0.00    +0.149 HD
ENDROOT
BRANCH  13   8
ATOM      5  O   UNL     1      11.363   4.683   1.517  0.00  0.00    -0.252 OA
ATOM      8  N   UNL     1      11.582   5.460   3.684  0.00  0.00    -0.295 N 
ATOM     10  N   UNL     1      13.456   5.325   2.364  0.00  0.00    -0.267 N 
ATOM     21  C   UNL     1      12.076   5.112   2.421  0.00  0.00    +0.304 C 
ATOM     37  H   UNL     1      12.219   5.892   4.346  0.00  0.00    +0.151 HD
ATOM     38  H   UNL     1      13.900   5.687   3.204  0.00  0.00    +0.156 HD
BRANCH  10  28
ATOM      1  F   UNL     1      15.104   3.080   2.252  0.00  0.00    -0.203 F 
ATOM      2  F   UNL     1      16.854   4.442  -1.927  0.00  0.00    -0.205 F 
ATOM     28  C   UNL     1      14.324   5.098   1.270  0.00  0.00    +0.070 A 
ATOM     31  C   UNL     1      15.136   3.964   1.244  0.00  0.00    +0.147 A 
ATOM     32  C   UNL     1      14.366   6.010   0.215  0.00  0.00    +0.029 A 
ATOM     33  C   UNL     1      15.991   3.742   0.164  0.00  0.00    +0.078 A 
ATOM     34  C   UNL     1      15.221   5.788  -0.864  0.00  0.00    +0.040 A 
ATOM     35  C   UNL     1      16.033   4.654  -0.891  0.00  0.00    +0.126 A 
ENDBRANCH  10  28
ENDBRANCH  13   8
BRANCH  12  17
ATOM     17  C   UNL     1       9.922   9.188   6.338  0.00  0.00    +0.029 C 
BRANCH  17  19
ATOM     19  C   UNL     1      10.824   9.331   7.554  0.00  0.00    +0.098 C 
BRANCH  19  20
ATOM      4  O   UNL     1      12.170  11.250   7.198  0.00  0.00    -0.275 OA
ATOM      9  N   UNL     1      13.166   9.163   6.876  0.00  0.00    -0.271 N 
ATOM     20  C   UNL     1      12.119  10.020   7.192  0.00  0.00    +0.220 C 
ATOM     22  C   UNL     1      13.101   7.687   6.870  0.00  0.00    +0.118 C 
ATOM     23  C   UNL     1      14.469   9.553   6.506  0.00  0.00    +0.039 A 
ATOM     24  C   UNL     1      14.484   7.161   6.470  0.00  0.00    +0.056 C 
ATOM     25  C   UNL     1      15.255   8.424   6.263  0.00  0.00    -0.024 A 
ATOM     26  C   UNL     1      15.003  10.827   6.370  0.00  0.00    +0.024 A 
ATOM     27  C   UNL     1      16.583   8.538   5.882  0.00  0.00    +0.005 A 
ATOM     29  C   UNL     1      16.342  10.951   5.985  0.00  0.00    +0.002 A 
ATOM     30  C   UNL     1      17.127   9.815   5.744  0.00  0.00    +0.000 A 
ENDBRANCH  19  20
ENDBRANCH  17  19
ENDBRANCH  12  17
TORSDOF 5
ENDMDL
MODEL 4
REMARK VINA RESULT:      -7.0     13.562     16.507
REMARK  Name = 26762206
REMARK  5 active torsions:
REMARK  status: ('A' for Active; 'I' for Inactive)
REMARK    1  A    between atoms: N_8  and  C_13
REMARK    2  A    between atoms: N_10  and  C_28
REMARK    3  A    between atoms: C_12  and  C_17
REMARK    4  A    between atoms: C_17  and  C_19
REMARK    5  A    between atoms: C_19  and  C_20
REMARK                            x       y       z     vdW  Elec       q    Type
REMARK                         _______ _______ _______ _____ _____    ______ ____
ROOT
ATOM      3  O   UNL     1      14.884   6.583  19.725  0.00  0.00    -0.274 OA
ATOM      6  N   UNL     1      11.803   8.093  19.563  0.00  0.00    -0.285 NA
ATOM      7  N   UNL     1      13.195   6.572  21.302  0.00  0.00    -0.313 N 
ATOM     11  C   UNL     1      12.608   7.010  19.004  0.00  0.00    +0.145 C 
ATOM     12  C   UNL     1      11.039   7.705  20.752  0.00  0.00    +0.075 C 
ATOM     13  C   UNL     1      12.049   8.669  17.325  0.00  0.00    +0.090 C 
ATOM     14  C   UNL     1      13.075   7.580  17.670  0.00  0.00    +0.052 C 
ATOM     15  C   UNL     1      11.015   8.613  18.450  0.00  0.00    +0.107 C 
ATOM     16  C   UNL     1      11.764   6.599  21.551  0.00  0.00    +0.123 C 
ATOM     18  C   UNL     1      13.700   6.717  20.017  0.00  0.00    +0.230 C 
ATOM     36  H   UNL     1      13.829   6.344  22.061  0.00  0.00    +0.149 HD
ENDROOT
BRANCH  13   8
ATOM      5  O   UNL     1      13.382   9.783  15.046  0.00  0.00    -0.252 OA
ATOM      8  N   UNL     1      12.674   9.968  17.239  0.00  0.00    -0.295 N 
ATOM     10  N   UNL     1      13.814  11.723  16.294  0.00  0.00    -0.267 N 
ATOM     21  C   UNL     1      13.306  10.439  16.082  0.00  0.00    +0.304 C 
ATOM     37  H   UNL     1      12.574  10.606  18.023  0.00  0.00    +0.151 HD
ATOM     38  H   UNL     1      13.666  12.130  17.214  0.00  0.00    +0.156 HD
BRANCH  10  28
ATOM      1  F   UNL     1      16.597  11.684  16.143  0.00  0.00    -0.203 F 
ATOM      2  F   UNL     1      16.561  14.927  12.698  0.00  0.00    -0.205 F 
ATOM     28  C   UNL     1      14.517  12.541  15.377  0.00  0.00    +0.070 A 
ATOM     31  C   UNL     1      15.910  12.497  15.327  0.00  0.00    +0.147 A 
ATOM     32  C   UNL     1      13.814  13.389  14.522  0.00  0.00    +0.029 A 
ATOM     33  C   UNL     1      16.601  13.304  14.422  0.00  0.00    +0.078 A 
ATOM     34  C   UNL     1      14.505  14.196  13.618  0.00  0.00    +0.040 A 
ATOM     35  C   UNL     1      15.899  14.153  13.567  0.00  0.00    +0.126 A 
ENDBRANCH  10  28
ENDBRANCH  13   8
BRANCH  12  17
ATOM     17  C   UNL     1      10.834   8.943  21.628  0.00  0.00    +0.029 C 
BRANCH  17  19
ATOM     19  C   UNL     1      12.135   9.443  22.238  0.00  0.00    +0.098 C 
BRANCH  19  20
ATOM      4  O   UNL     1      12.072  11.295  20.759  0.00  0.00    -0.275 OA
ATOM      9  N   UNL     1      14.169  10.429  21.308  0.00  0.00    -0.271 N 
ATOM     20  C   UNL     1      12.782  10.487  21.357  0.00  0.00    +0.220 C 
ATOM     22  C   UNL     1      15.019   9.457  22.027  0.00  0.00    +0.118 C 
ATOM     23  C   UNL     1      15.006  11.285  20.564  0.00  0.00    +0.039 A 
ATOM     24  C   UNL     1      16.479   9.770  21.684  0.00  0.00    +0.056 C 
ATOM     25  C   UNL     1      16.343  10.932  20.756  0.00  0.00    -0.024 A 
ATOM     26  C   UNL     1      14.668  12.345  19.734  0.00  0.00    +0.024 A 
ATOM     27  C   UNL     1      17.369  11.625  20.131  0.00  0.00    +0.005 A 
ATOM     29  C   UNL     1      15.696  13.049  19.099  0.00  0.00    +0.002 A 
ATOM     30  C   UNL     1      17.037  12.692  19.296  0.00  0.00    +0.000 A 
ENDBRANCH  19  20
ENDBRANCH  17  19
ENDBRANCH  12  17
TORSDOF 5
ENDMDL
MODEL 5
REMARK VINA RESULT:      -7.0     13.816     17.634
REMARK  Name = 26762206
REMARK  5 active torsions:
REMARK  status: ('A' for Active; 'I' for Inactive)
REMARK    1  A    between atoms: N_8  and  C_13
REMARK    2  A    between atoms: N_10  and  C_28
REMARK    3  A    between atoms: C_12  and  C_17
REMARK    4  A    between atoms: C_17  and  C_19
REMARK    5  A    between atoms: C_19  and  C_20
REMARK                            x       y       z     vdW  Elec       q    Type
REMARK                         _______ _______ _______ _____ _____    ______ ____
ROOT
ATOM      3  O   UNL     1      15.072   6.963  20.149  0.00  0.00    -0.274 OA
ATOM      6  N   UNL     1      11.877   8.059  19.527  0.00  0.00    -0.285 NA
ATOM      7  N   UNL     1      13.201   6.768  21.491  0.00  0.00    -0.313 N 
ATOM     11  C   UNL     1      12.879   7.077  19.121  0.00  0.00    +0.145 C 
ATOM     12  C   UNL     1      11.014   7.601  20.620  0.00  0.00    +0.075 C 
ATOM     13  C   UNL     1      12.348   8.613  17.320  0.00  0.00    +0.090 C 
ATOM     14  C   UNL     1      13.447   7.673  17.839  0.00  0.00    +0.052 C 
ATOM     15  C   UNL     1      11.187   8.449  18.302  0.00  0.00    +0.107 C 
ATOM     16  C   UNL     1      11.757   6.615  21.549  0.00  0.00    +0.123 C 
ATOM     18  C   UNL     1      13.852   6.949  20.278  0.00  0.00    +0.230 C 
ATOM     36  H   UNL     1      13.751   6.640  22.335  0.00  0.00    +0.149 HD
ENDROOT
BRANCH  13   8
ATOM      5  O   UNL     1      13.797   9.850  15.179  0.00  0.00    -0.252 OA
ATOM      8  N   UNL     1      12.811   9.980  17.267  0.00  0.00    -0.295 N 
ATOM     10  N   UNL     1      13.830  11.851  16.407  0.00  0.00    -0.267 N 
ATOM     21  C   UNL     1      13.516  10.508  16.178  0.00  0.00    +0.304 C 
ATOM     37  H   UNL     1      12.538  10.613  18.013  0.00  0.00    +0.151 HD
ATOM     38  H   UNL     1      13.522  12.250  17.290  0.00  0.00    +0.156 HD
BRANCH  10  28
ATOM      1  F   UNL     1      16.585  12.207  16.624  0.00  0.00    -0.203 F 
ATOM      2  F   UNL     1      16.570  15.317  13.059  0.00  0.00    -0.205 F 
ATOM     28  C   UNL     1      14.531  12.735  15.554  0.00  0.00    +0.070 A 
ATOM     31  C   UNL     1      15.910  12.891  15.689  0.00  0.00    +0.147 A 
ATOM     32  C   UNL     1      13.840  13.451  14.576  0.00  0.00    +0.029 A 
ATOM     33  C   UNL     1      16.600  13.764  14.846  0.00  0.00    +0.078 A 
ATOM     34  C   UNL     1      14.529  14.324  13.734  0.00  0.00    +0.040 A 
ATOM     35  C   UNL     1      15.909  14.479  13.868  0.00  0.00    +0.126 A 
ENDBRANCH  10  28
ENDBRANCH  13   8
BRANCH  12  17
ATOM     17  C   UNL     1      10.540   8.821  21.414  0.00  0.00    +0.029 C 
BRANCH  17  19
ATOM     19  C   UNL     1      11.658   9.824  21.657  0.00  0.00    +0.098 C 
BRANCH  19  20
ATOM      4  O   UNL     1      11.143  10.207  23.939  0.00  0.00    -0.275 OA
ATOM      9  N   UNL     1      11.306  12.073  22.546  0.00  0.00    -0.271 N 
ATOM     20  C   UNL     1      11.342  10.715  22.835  0.00  0.00    +0.220 C 
ATOM     22  C   UNL     1      11.545  12.680  21.219  0.00  0.00    +0.118 C 
ATOM     23  C   UNL     1      11.035  13.107  23.465  0.00  0.00    +0.039 A 
ATOM     24  C   UNL     1      11.411  14.199  21.370  0.00  0.00    +0.056 C 
ATOM     25  C   UNL     1      11.085  14.345  22.820  0.00  0.00    -0.024 A 
ATOM     26  C   UNL     1      10.748  13.028  24.821  0.00  0.00    +0.024 A 
ATOM     27  C   UNL     1      10.854  15.526  23.508  0.00  0.00    +0.005 A 
ATOM     29  C   UNL     1      10.513  14.215  25.522  0.00  0.00    +0.002 A 
ATOM     30  C   UNL     1      10.566  15.455  24.871  0.00  0.00    +0.000 A 
ENDBRANCH  19  20
ENDBRANCH  17  19
ENDBRANCH  12  17
TORSDOF 5
ENDMDL
MODEL 6
REMARK VINA RESULT:      -7.0     30.318     34.682
REMARK  Name = 26762206
REMARK  5 active torsions:
REMARK  status: ('A' for Active; 'I' for Inactive)
REMARK    1  A    between atoms: N_8  and  C_13
REMARK    2  A    between atoms: N_10  and  C_28
REMARK    3  A    between atoms: C_12  and  C_17
REMARK    4  A    between atoms: C_17  and  C_19
REMARK    5  A    between atoms: C_19  and  C_20
REMARK                            x       y       z     vdW  Elec       q    Type
REMARK                         _______ _______ _______ _____ _____    ______ ____
ROOT
ATOM      3  O   UNL     1     -18.361   7.159  24.474  0.00  0.00    -0.274 OA
ATOM      6  N   UNL     1     -15.799   5.046  23.598  0.00  0.00    -0.285 NA
ATOM      7  N   UNL     1     -16.918   7.321  22.677  0.00  0.00    -0.313 N 
ATOM     11  C   UNL     1     -17.254   5.154  23.680  0.00  0.00    +0.145 C 
ATOM     12  C   UNL     1     -15.247   5.501  22.318  0.00  0.00    +0.075 C 
ATOM     13  C   UNL     1     -16.396   3.445  25.173  0.00  0.00    +0.090 C 
ATOM     14  C   UNL     1     -17.585   4.394  24.958  0.00  0.00    +0.052 C 
ATOM     15  C   UNL     1     -15.484   3.670  23.966  0.00  0.00    +0.107 C 
ATOM     16  C   UNL     1     -16.118   6.613  21.692  0.00  0.00    +0.123 C 
ATOM     18  C   UNL     1     -17.577   6.636  23.689  0.00  0.00    +0.230 C 
ATOM     36  H   UNL     1     -17.080   8.317  22.565  0.00  0.00    +0.149 HD
ENDROOT
BRANCH  13   8
ATOM      5  O   UNL     1     -16.768   2.103  27.677  0.00  0.00    -0.252 OA
ATOM      8  N   UNL     1     -15.716   3.729  26.415  0.00  0.00    -0.295 N 
ATOM     10  N   UNL     1     -15.156   3.517  28.632  0.00  0.00    -0.267 N 
ATOM     21  C   UNL     1     -15.957   3.023  27.599  0.00  0.00    +0.304 C 
ATOM     37  H   UNL     1     -14.966   4.414  26.409  0.00  0.00    +0.151 HD
ATOM     38  H   UNL     1     -14.532   4.287  28.401  0.00  0.00    +0.156 HD
BRANCH  10  28
ATOM      1  F   UNL     1     -14.007   1.072  29.316  0.00  0.00    -0.203 F 
ATOM      2  F   UNL     1     -14.941   1.795  33.897  0.00  0.00    -0.205 F 
ATOM     28  C   UNL     1     -15.100   3.075  29.975  0.00  0.00    +0.070 A 
ATOM     31  C   UNL     1     -14.518   1.846  30.283  0.00  0.00    +0.147 A 
ATOM     32  C   UNL     1     -15.628   3.872  30.991  0.00  0.00    +0.029 A 
ATOM     33  C   UNL     1     -14.465   1.413  31.609  0.00  0.00    +0.078 A 
ATOM     34  C   UNL     1     -15.574   3.439  32.315  0.00  0.00    +0.040 A 
ATOM     35  C   UNL     1     -14.992   2.210  32.625  0.00  0.00    +0.126 A 
ENDBRANCH  10  28
ENDBRANCH  13   8
BRANCH  12  17
ATOM     17  C   UNL     1     -13.824   6.013  22.554  0.00  0.00    +0.029 C 
BRANCH  17  19
ATOM     19  C   UNL     1     -13.059   6.218  21.255  0.00  0.00    +0.098 C 
BRANCH  19  20
ATOM      4  O   UNL     1     -13.176   8.515  21.831  0.00  0.00    -0.275 OA
ATOM      9  N   UNL     1     -12.014   7.951  19.886  0.00  0.00    -0.271 N 
ATOM     20  C   UNL     1     -12.760   7.681  21.026  0.00  0.00    +0.220 C 
ATOM     22  C   UNL     1     -11.516   6.947  18.922  0.00  0.00    +0.118 C 
ATOM     23  C   UNL     1     -11.604   9.228  19.449  0.00  0.00    +0.039 A 
ATOM     24  C   UNL     1     -10.741   7.693  17.830  0.00  0.00    +0.056 C 
ATOM     25  C   UNL     1     -10.870   9.116  18.267  0.00  0.00    -0.024 A 
ATOM     26  C   UNL     1     -11.835  10.471  20.022  0.00  0.00    +0.024 A 
ATOM     27  C   UNL     1     -10.351  10.233  17.632  0.00  0.00    +0.005 A 
ATOM     29  C   UNL     1     -11.316  11.603  19.388  0.00  0.00    +0.002 A 
ATOM     30  C   UNL     1     -10.578  11.486  18.201  0.00  0.00    +0.000 A 
ENDBRANCH  19  20
ENDBRANCH  17  19
ENDBRANCH  12  17
TORSDOF 5
ENDMDL
MODEL 7
REMARK VINA RESULT:      -6.9     24.437     27.416
REMARK  Name = 26762206
REMARK  5 active torsions:
REMARK  status: ('A' for Active; 'I' for Inactive)
REMARK    1  A    between atoms: N_8  and  C_13
REMARK    2  A    between atoms: N_10  and  C_28
REMARK    3  A    between atoms: C_12  and  C_17
REMARK    4  A    between atoms: C_17  and  C_19
REMARK    5  A    between atoms: C_19  and  C_20
REMARK                            x       y       z     vdW  Elec       q    Type
REMARK                         _______ _______ _______ _____ _____    ______ ____
ROOT
ATOM      3  O   UNL     1      -8.506 -13.931  16.624  0.00  0.00    -0.274 OA
ATOM      6  N   UNL     1      -7.071 -10.912  17.415  0.00  0.00    -0.285 NA
ATOM      7  N   UNL     1      -7.555 -13.274  18.625  0.00  0.00    -0.313 N 
ATOM     11  C   UNL     1      -8.346 -11.563  17.121  0.00  0.00    +0.145 C 
ATOM     12  C   UNL     1      -6.716 -10.932  18.837  0.00  0.00    +0.075 C 
ATOM     13  C   UNL     1      -7.778  -9.903  15.445  0.00  0.00    +0.090 C 
ATOM     14  C   UNL     1      -8.600 -11.181  15.668  0.00  0.00    +0.052 C 
ATOM     15  C   UNL     1      -7.153  -9.589  16.805  0.00  0.00    +0.107 C 
ATOM     16  C   UNL     1      -7.291 -12.180  19.544  0.00  0.00    +0.123 C 
ATOM     18  C   UNL     1      -8.148 -13.042  17.391  0.00  0.00    +0.230 C 
ATOM     36  H   UNL     1      -7.400 -14.230  18.929  0.00  0.00    +0.149 HD
ENDROOT
BRANCH  13   8
ATOM      5  O   UNL     1      -8.111  -9.580  12.617  0.00  0.00    -0.252 OA
ATOM      8  N   UNL     1      -6.770 -10.098  14.428  0.00  0.00    -0.295 N 
ATOM     10  N   UNL     1      -5.860 -10.175  12.321  0.00  0.00    -0.267 N 
ATOM     21  C   UNL     1      -7.017  -9.918  13.062  0.00  0.00    +0.304 C 
ATOM     37  H   UNL     1      -5.817 -10.288  14.722  0.00  0.00    +0.151 HD
ATOM     38  H   UNL     1      -5.030 -10.446  12.844  0.00  0.00    +0.156 HD
BRANCH  10  28
ATOM      1  F   UNL     1      -4.832  -7.898  11.088  0.00  0.00    -0.203 F 
ATOM      2  F   UNL     1      -5.212  -9.909   6.822  0.00  0.00    -0.205 F 
ATOM     28  C   UNL     1      -5.694 -10.105  10.918  0.00  0.00    +0.070 A 
ATOM     31  C   UNL     1      -5.176  -8.951  10.332  0.00  0.00    +0.147 A 
ATOM     32  C   UNL     1      -6.048 -11.194  10.121  0.00  0.00    +0.029 A 
ATOM     33  C   UNL     1      -5.014  -8.884   8.947  0.00  0.00    +0.078 A 
ATOM     34  C   UNL     1      -5.886 -11.127   8.738  0.00  0.00    +0.040 A 
ATOM     35  C   UNL     1      -5.367  -9.973   8.150  0.00  0.00    +0.126 A 
ENDBRANCH  10  28
ENDBRANCH  13   8
BRANCH  12  17
ATOM     17  C   UNL     1      -5.190 -10.909  18.961  0.00  0.00    +0.029 C 
BRANCH  17  19
ATOM     19  C   UNL     1      -4.523 -11.979  18.110  0.00  0.00    +0.098 C 
BRANCH  19  20
ATOM      4  O   UNL     1      -3.324 -10.272  16.984  0.00  0.00    -0.275 OA
ATOM      9  N   UNL     1      -3.946 -12.149  15.742  0.00  0.00    -0.271 N 
ATOM     20  C   UNL     1      -3.868 -11.373  16.891  0.00  0.00    +0.220 C 
ATOM     22  C   UNL     1      -4.599 -13.470  15.635  0.00  0.00    +0.118 C 
ATOM     23  C   UNL     1      -3.417 -11.811  14.480  0.00  0.00    +0.039 A 
ATOM     24  C   UNL     1      -4.436 -13.956  14.191  0.00  0.00    +0.056 C 
ATOM     25  C   UNL     1      -3.683 -12.829  13.562  0.00  0.00    -0.024 A 
ATOM     26  C   UNL     1      -2.723 -10.674  14.091  0.00  0.00    +0.024 A 
ATOM     27  C   UNL     1      -3.265 -12.739  12.243  0.00  0.00    +0.005 A 
ATOM     29  C   UNL     1      -2.298 -10.574  12.762  0.00  0.00    +0.002 A 
ATOM     30  C   UNL     1      -2.566 -11.599  11.844  0.00  0.00    +0.000 A 
ENDBRANCH  19  20
ENDBRANCH  17  19
ENDBRANCH  12  17
TORSDOF 5
ENDMDL
MODEL 8
REMARK VINA RESULT:      -6.8     13.413     16.441
REMARK  Name = 26762206
REMARK  5 active torsions:
REMARK  status: ('A' for Active; 'I' for Inactive)
REMARK    1  A    between atoms: N_8  and  C_13
REMARK    2  A    between atoms: N_10  and  C_28
REMARK    3  A    between atoms: C_12  and  C_17
REMARK    4  A    between atoms: C_17  and  C_19
REMARK    5  A    between atoms: C_19  and  C_20
REMARK                            x       y       z     vdW  Elec       q    Type
REMARK                         _______ _______ _______ _____ _____    ______ ____
ROOT
ATOM      3  O   UNL     1      11.293   7.651  17.042  0.00  0.00    -0.274 OA
ATOM      6  N   UNL     1      14.210   8.679  18.534  0.00  0.00    -0.285 NA
ATOM      7  N   UNL     1      12.443   6.657  18.783  0.00  0.00    -0.313 N 
ATOM     11  C   UNL     1      12.796   9.008  18.375  0.00  0.00    +0.145 C 
ATOM     12  C   UNL     1      14.484   7.790  19.667  0.00  0.00    +0.075 C 
ATOM     13  C   UNL     1      14.227  10.716  17.417  0.00  0.00    +0.090 C 
ATOM     14  C   UNL     1      12.815  10.117  17.331  0.00  0.00    +0.052 C 
ATOM     15  C   UNL     1      14.913   9.958  18.553  0.00  0.00    +0.107 C 
ATOM     16  C   UNL     1      13.290   6.850  19.947  0.00  0.00    +0.123 C 
ATOM     18  C   UNL     1      12.098   7.725  17.965  0.00  0.00    +0.230 C 
ATOM     36  H   UNL     1      12.014   5.751  18.623  0.00  0.00    +0.149 HD
ENDROOT
BRANCH  13   8
ATOM      5  O   UNL     1      15.863  12.682  16.123  0.00  0.00    -0.252 OA
ATOM      8  N   UNL     1      14.937  10.564  16.168  0.00  0.00    -0.295 N 
ATOM     10  N   UNL     1      16.283  11.144  14.400  0.00  0.00    -0.267 N 
ATOM     21  C   UNL     1      15.719  11.578  15.603  0.00  0.00    +0.304 C 
ATOM     37  H   UNL     1      14.942   9.650  15.724  0.00  0.00    +0.151 HD
ATOM     38  H   UNL     1      16.064  10.195  14.106  0.00  0.00    +0.156 HD
BRANCH  10  28
ATOM      1  F   UNL     1      15.428  11.955  11.875  0.00  0.00    -0.203 F 
ATOM      2  F   UNL     1      19.614  13.978  10.993  0.00  0.00    -0.205 F 
ATOM     28  C   UNL     1      17.131  11.867  13.529  0.00  0.00    +0.070 A 
ATOM     31  C   UNL     1      16.673  12.258  12.271  0.00  0.00    +0.147 A 
ATOM     32  C   UNL     1      18.427  12.189  13.930  0.00  0.00    +0.029 A 
ATOM     33  C   UNL     1      17.512  12.972  11.414  0.00  0.00    +0.078 A 
ATOM     34  C   UNL     1      19.266  12.901  13.073  0.00  0.00    +0.040 A 
ATOM     35  C   UNL     1      18.808  13.294  11.815  0.00  0.00    +0.126 A 
ENDBRANCH  10  28
ENDBRANCH  13   8
BRANCH  12  17
ATOM     17  C   UNL     1      15.740   6.972  19.355  0.00  0.00    +0.029 C 
BRANCH  17  19
ATOM     19  C   UNL     1      16.942   7.422  20.171  0.00  0.00    +0.098 C 
BRANCH  19  20
ATOM      4  O   UNL     1      18.032   5.536  19.236  0.00  0.00    -0.275 OA
ATOM      9  N   UNL     1      19.019   6.533  21.102  0.00  0.00    -0.271 N 
ATOM     20  C   UNL     1      18.051   6.397  20.116  0.00  0.00    +0.220 C 
ATOM     22  C   UNL     1      19.038   7.568  22.157  0.00  0.00    +0.118 C 
ATOM     23  C   UNL     1      20.151   5.709  21.268  0.00  0.00    +0.039 A 
ATOM     24  C   UNL     1      20.289   7.340  23.012  0.00  0.00    +0.056 C 
ATOM     25  C   UNL     1      20.903   6.144  22.361  0.00  0.00    -0.024 A 
ATOM     26  C   UNL     1      20.557   4.609  20.526  0.00  0.00    +0.024 A 
ATOM     27  C   UNL     1      22.071   5.498  22.736  0.00  0.00    +0.005 A 
ATOM     29  C   UNL     1      21.733   3.950  20.898  0.00  0.00    +0.002 A 
ATOM     30  C   UNL     1      22.486   4.392  21.995  0.00  0.00    +0.000 A 
ENDBRANCH  19  20
ENDBRANCH  17  19
ENDBRANCH  12  17
TORSDOF 5
ENDMDL
MODEL 9
REMARK VINA RESULT:      -6.7     25.627     29.000
REMARK  Name = 26762206
REMARK  5 active torsions:
REMARK  status: ('A' for Active; 'I' for Inactive)
REMARK    1  A    between atoms: N_8  and  C_13
REMARK    2  A    between atoms: N_10  and  C_28
REMARK    3  A    between atoms: C_12  and  C_17
REMARK    4  A    between atoms: C_17  and  C_19
REMARK    5  A    between atoms: C_19  and  C_20
REMARK                            x       y       z     vdW  Elec       q    Type
REMARK                         _______ _______ _______ _____ _____    ______ ____
ROOT
ATOM      3  O   UNL     1     -11.563 -11.703  18.407  0.00  0.00    -0.274 OA
ATOM      6  N   UNL     1      -8.801 -10.175  17.054  0.00  0.00    -0.285 NA
ATOM      7  N   UNL     1      -9.484 -12.616  17.977  0.00  0.00    -0.313 N 
ATOM     11  C   UNL     1      -9.649 -10.224  18.242  0.00  0.00    +0.145 C 
ATOM     12  C   UNL     1      -7.688 -11.128  17.086  0.00  0.00    +0.075 C 
ATOM     13  C   UNL     1      -9.751  -8.057  17.158  0.00  0.00    +0.090 C 
ATOM     14  C   UNL     1     -10.537  -8.997  18.083  0.00  0.00    +0.052 C 
ATOM     15  C   UNL     1      -8.426  -8.774  16.894  0.00  0.00    +0.107 C 
ATOM     16  C   UNL     1      -8.051 -12.391  17.898  0.00  0.00    +0.123 C 
ATOM     18  C   UNL     1     -10.361 -11.564  18.210  0.00  0.00    +0.230 C 
ATOM     36  H   UNL     1      -9.842 -13.566  17.963  0.00  0.00    +0.149 HD
ENDROOT
BRANCH  13   8
ATOM      5  O   UNL     1     -11.416  -5.796  16.585  0.00  0.00    -0.252 OA
ATOM      8  N   UNL     1     -10.472  -7.803  15.932  0.00  0.00    -0.295 N 
ATOM     10  N   UNL     1     -11.838  -6.693  14.457  0.00  0.00    -0.267 N 
ATOM     21  C   UNL     1     -11.267  -6.668  15.733  0.00  0.00    +0.304 C 
ATOM     37  H   UNL     1     -10.327  -8.431  15.147  0.00  0.00    +0.151 HD
ATOM     38  H   UNL     1     -11.613  -7.491  13.868  0.00  0.00    +0.156 HD
BRANCH  10  28
ATOM      1  F   UNL     1     -14.603  -6.835  14.773  0.00  0.00    -0.203 F 
ATOM      2  F   UNL     1     -15.207  -2.932  12.169  0.00  0.00    -0.205 F 
ATOM     28  C   UNL     1     -12.699  -5.734  13.874  0.00  0.00    +0.070 A 
ATOM     31  C   UNL     1     -14.079  -5.834  14.051  0.00  0.00    +0.147 A 
ATOM     32  C   UNL     1     -12.167  -4.687  13.122  0.00  0.00    +0.029 A 
ATOM     33  C   UNL     1     -14.927  -4.887  13.474  0.00  0.00    +0.078 A 
ATOM     34  C   UNL     1     -13.014  -3.741  12.545  0.00  0.00    +0.040 A 
ATOM     35  C   UNL     1     -14.394  -3.840  12.722  0.00  0.00    +0.126 A 
ENDBRANCH  10  28
ENDBRANCH  13   8
BRANCH  12  17
ATOM     17  C   UNL     1      -7.328 -11.509  15.648  0.00  0.00    +0.029 C 
BRANCH  17  19
ATOM     19  C   UNL     1      -6.000 -10.914  15.205  0.00  0.00    +0.098 C 
BRANCH  19  20
ATOM      4  O   UNL     1      -7.201  -9.693  13.566  0.00  0.00    -0.275 OA
ATOM      9  N   UNL     1      -4.990 -10.262  13.078  0.00  0.00    -0.271 N 
ATOM     20  C   UNL     1      -6.133 -10.226  13.867  0.00  0.00    +0.220 C 
ATOM     22  C   UNL     1      -3.709 -10.902  13.442  0.00  0.00    +0.118 C 
ATOM     23  C   UNL     1      -4.855  -9.697  11.793  0.00  0.00    +0.039 A 
ATOM     24  C   UNL     1      -2.734 -10.691  12.279  0.00  0.00    +0.056 C 
ATOM     25  C   UNL     1      -3.567  -9.928  11.303  0.00  0.00    -0.024 A 
ATOM     26  C   UNL     1      -5.785  -9.000  11.035  0.00  0.00    +0.024 A 
ATOM     27  C   UNL     1      -3.179  -9.470  10.053  0.00  0.00    +0.005 A 
ATOM     29  C   UNL     1      -5.402  -8.536   9.772  0.00  0.00    +0.002 A 
ATOM     30  C   UNL     1      -4.108  -8.768   9.285  0.00  0.00    +0.000 A 
ENDBRANCH  19  20
ENDBRANCH  17  19
ENDBRANCH  12  17
TORSDOF 5
ENDMDL
MODEL 10
REMARK VINA RESULT:      -6.7     24.939     28.598
REMARK  Name = 26762206
REMARK  5 active torsions:
REMARK  status: ('A' for Active; 'I' for Inactive)
REMARK    1  A    between atoms: N_8  and  C_13
REMARK    2  A    between atoms: N_10  and  C_28
REMARK    3  A    between atoms: C_12  and  C_17
REMARK    4  A    between atoms: C_17  and  C_19
REMARK    5  A    between atoms: C_19  and  C_20
REMARK                            x       y       z     vdW  Elec       q    Type
REMARK                         _______ _______ _______ _____ _____    ______ ____
ROOT
ATOM      3  O   UNL     1      -4.079  -8.421   9.652  0.00  0.00    -0.274 OA
ATOM      6  N   UNL     1      -4.263 -10.750  12.170  0.00  0.00    -0.285 NA
ATOM      7  N   UNL     1      -2.347  -9.454  10.782  0.00  0.00    -0.313 N 
ATOM     11  C   UNL     1      -4.497 -10.546  10.743  0.00  0.00    +0.145 C 
ATOM     12  C   UNL     1      -2.901 -11.193  12.485  0.00  0.00    +0.075 C 
ATOM     13  C   UNL     1      -6.556 -11.032  11.930  0.00  0.00    +0.090 C 
ATOM     14  C   UNL     1      -6.007 -10.355  10.666  0.00  0.00    +0.052 C 
ATOM     15  C   UNL     1      -5.333 -11.631  12.625  0.00  0.00    +0.107 C 
ATOM     16  C   UNL     1      -1.881 -10.652  11.458  0.00  0.00    +0.123 C 
ATOM     18  C   UNL     1      -3.658  -9.350  10.334  0.00  0.00    +0.230 C 
ATOM     36  H   UNL     1      -1.683  -8.725  10.542  0.00  0.00    +0.149 HD
ENDROOT
BRANCH  13   8
ATOM      5  O   UNL     1      -8.282 -11.637  14.137  0.00  0.00    -0.252 OA
ATOM      8  N   UNL     1      -7.240 -10.084  12.778  0.00  0.00    -0.295 N 
ATOM     10  N   UNL     1      -8.589  -9.336  14.480  0.00  0.00    -0.267 N 
ATOM     21  C   UNL     1      -8.068 -10.464  13.841  0.00  0.00    +0.304 C 
ATOM     37  H   UNL     1      -7.042  -9.095  12.655  0.00  0.00    +0.151 HD
ATOM     38  H   UNL     1      -8.312  -8.429  14.109  0.00  0.00    +0.156 HD
BRANCH  10  28
ATOM      1  F   UNL     1      -7.621  -9.159  17.087  0.00  0.00    -0.203 F 
ATOM      2  F   UNL     1     -12.018  -9.169  18.832  0.00  0.00    -0.205 F 
ATOM     28  C   UNL     1      -9.462  -9.294  15.592  0.00  0.00    +0.070 A 
ATOM     31  C   UNL     1      -8.946  -9.205  16.884  0.00  0.00    +0.147 A 
ATOM     32  C   UNL     1     -10.842  -9.339  15.393  0.00  0.00    +0.029 A 
ATOM     33  C   UNL     1      -9.810  -9.163  17.980  0.00  0.00    +0.078 A 
ATOM     34  C   UNL     1     -11.705  -9.298  16.488  0.00  0.00    +0.040 A 
ATOM     35  C   UNL     1     -11.189  -9.209  17.781  0.00  0.00    +0.126 A 
ENDBRANCH  10  28
ENDBRANCH  13   8
BRANCH  12  17
ATOM     17  C   UNL     1      -2.542 -10.711  13.893  0.00  0.00    +0.029 C 
BRANCH  17  19
ATOM     19  C   UNL     1      -2.704 -11.805  14.938  0.00  0.00    +0.098 C 
BRANCH  19  20
ATOM      4  O   UNL     1      -2.923 -10.290  16.748  0.00  0.00    -0.275 OA
ATOM      9  N   UNL     1      -4.522 -11.980  16.560  0.00  0.00    -0.271 N 
ATOM     20  C   UNL     1      -3.389 -11.275  16.176  0.00  0.00    +0.220 C 
ATOM     22  C   UNL     1      -5.080 -13.162  15.870  0.00  0.00    +0.118 C 
ATOM     23  C   UNL     1      -5.337 -11.691  17.674  0.00  0.00    +0.039 A 
ATOM     24  C   UNL     1      -6.331 -13.603  16.637  0.00  0.00    +0.056 C 
ATOM     25  C   UNL     1      -6.388 -12.608  17.749  0.00  0.00    -0.024 A 
ATOM     26  C   UNL     1      -5.213 -10.681  18.618  0.00  0.00    +0.024 A 
ATOM     27  C   UNL     1      -7.334 -12.539  18.760  0.00  0.00    +0.005 A 
ATOM     29  C   UNL     1      -6.162 -10.605  19.642  0.00  0.00    +0.002 A 
ATOM     30  C   UNL     1      -7.216 -11.527  19.712  0.00  0.00    +0.000 A 
ENDBRANCH  19  20
ENDBRANCH  17  19
ENDBRANCH  12  17
TORSDOF 5
ENDMDL
