MODEL 1
REMARK VINA RESULT:      -7.1      0.000      0.000
REMARK  Name = 45784181
REMARK  3 active torsions:
REMARK  status: ('A' for Active; 'I' for Inactive)
REMARK    1  A    between atoms: N_4  and  C_7
REMARK    2  A    between atoms: C_8  and  C_16
REMARK    3  A    between atoms: C_17  and  C_20
REMARK                            x       y       z     vdW  Elec       q    Type
REMARK                         _______ _______ _______ _____ _____    ______ ____
ROOT
ATOM      4  N   UNL     1      12.011   8.798  20.060  0.00  0.00    -0.299 NA
ATOM      8  C   UNL     1      13.832   7.513  19.328  0.00  0.00    +0.090 C 
ATOM      9  C   UNL     1      13.443   8.928  19.779  0.00  0.00    +0.097 C 
ATOM     10  C   UNL     1      11.882   7.529  20.777  0.00  0.00    +0.085 C 
ATOM     11  C   UNL     1      12.783   6.595  19.978  0.00  0.00    +0.029 C 
ENDROOT
BRANCH   8  16
ATOM      1 CL   UNL     1      20.968   5.178  20.458  0.00  0.00    -0.083 Cl
ATOM      2  O   UNL     1      15.884   7.976  20.558  0.00  0.00    -0.439 OA
ATOM      6  N   UNL     1      15.999   6.184  19.175  0.00  0.00    -0.213 NA
ATOM     16  C   UNL     1      15.267   7.166  19.652  0.00  0.00    +0.201 A 
ATOM     18  C   UNL     1      17.205   6.350  19.812  0.00  0.00    +0.111 A 
ATOM     19  C   UNL     1      17.138   7.445  20.660  0.00  0.00    +0.155 A 
ATOM     21  C   UNL     1      18.402   5.624  19.735  0.00  0.00    +0.051 A 
ATOM     22  C   UNL     1      18.183   7.893  21.458  0.00  0.00    +0.050 A 
ATOM     23  C   UNL     1      19.480   6.047  20.526  0.00  0.00    +0.043 A 
ATOM     24  C   UNL     1      19.371   7.159  21.370  0.00  0.00    +0.024 A 
ENDBRANCH   8  16
BRANCH   4   7
ATOM      3  O   UNL     1      13.171  13.680  23.614  0.00  0.00    -0.276 OA
ATOM      5  N   UNL     1      11.822  11.932  22.889  0.00  0.00    -0.302 N 
ATOM      7  C   UNL     1      11.490   9.926  20.828  0.00  0.00    +0.060 C 
ATOM     12  C   UNL     1      11.427   9.565  22.317  0.00  0.00    +0.038 C 
ATOM     13  C   UNL     1      12.373  11.162  20.612  0.00  0.00    +0.038 C 
ATOM     14  C   UNL     1      10.974  10.763  23.153  0.00  0.00    +0.109 C 
ATOM     15  C   UNL     1      11.902  12.328  21.481  0.00  0.00    +0.109 C 
ATOM     17  C   UNL     1      12.493  12.678  23.858  0.00  0.00    +0.212 C 
ATOM     20  C   UNL     1      12.364  12.205  25.284  0.00  0.00    +0.109 C 
ENDBRANCH   4   7
TORSDOF 2
ENDMDL
MODEL 2
REMARK VINA RESULT:      -6.8     27.398     29.678
REMARK  Name = 45784181
REMARK  3 active torsions:
REMARK  status: ('A' for Active; 'I' for Inactive)
REMARK    1  A    between atoms: N_4  and  C_7
REMARK    2  A    between atoms: C_8  and  C_16
REMARK    3  A    between atoms: C_17  and  C_20
REMARK                            x       y       z     vdW  Elec       q    Type
REMARK                         _______ _______ _______ _____ _____    ______ ____
ROOT
ATOM      4  N   UNL     1      -3.986 -10.981  15.965  0.00  0.00    -0.299 NA
ATOM      8  C   UNL     1      -5.601 -10.194  17.472  0.00  0.00    +0.090 C 
ATOM      9  C   UNL     1      -5.131 -10.069  16.016  0.00  0.00    +0.097 C 
ATOM     10  C   UNL     1      -4.417 -12.170  16.700  0.00  0.00    +0.085 C 
ATOM     11  C   UNL     1      -5.108 -11.579  17.923  0.00  0.00    +0.029 C 
ENDROOT
BRANCH   8  16
ATOM      1 CL   UNL     1     -13.071  -9.676  18.734  0.00  0.00    -0.083 Cl
ATOM      2  O   UNL     1      -7.600  -8.896  16.961  0.00  0.00    -0.439 OA
ATOM      6  N   UNL     1      -7.951 -10.665  18.334  0.00  0.00    -0.213 NA
ATOM     16  C   UNL     1      -7.087  -9.966  17.632  0.00  0.00    +0.201 A 
ATOM     18  C   UNL     1      -9.139 -10.010  18.116  0.00  0.00    +0.111 A 
ATOM     19  C   UNL     1      -8.928  -8.927  17.276  0.00  0.00    +0.155 A 
ATOM     21  C   UNL     1     -10.436 -10.261  18.585  0.00  0.00    +0.051 A 
ATOM     22  C   UNL     1      -9.918  -8.051  16.850  0.00  0.00    +0.050 A 
ATOM     23  C   UNL     1     -11.462  -9.397  18.178  0.00  0.00    +0.043 A 
ATOM     24  C   UNL     1     -11.207  -8.315  17.327  0.00  0.00    +0.024 A 
ENDBRANCH   8  16
BRANCH   4   7
ATOM      3  O   UNL     1      -1.424  -9.063  10.714  0.00  0.00    -0.276 OA
ATOM      5  N   UNL     1      -2.868 -10.420  11.927  0.00  0.00    -0.302 N 
ATOM      7  C   UNL     1      -3.581 -11.290  14.595  0.00  0.00    +0.060 C 
ATOM     12  C   UNL     1      -4.638 -10.782  13.607  0.00  0.00    +0.038 C 
ATOM     13  C   UNL     1      -2.217 -10.658  14.294  0.00  0.00    +0.038 C 
ATOM     14  C   UNL     1      -4.192 -11.009  12.162  0.00  0.00    +0.109 C 
ATOM     15  C   UNL     1      -1.819 -10.887  12.837  0.00  0.00    +0.109 C 
ATOM     17  C   UNL     1      -2.555  -9.516  10.913  0.00  0.00    +0.212 C 
ATOM     20  C   UNL     1      -3.690  -9.082  10.021  0.00  0.00    +0.109 C 
ENDBRANCH   4   7
TORSDOF 2
ENDMDL
MODEL 3
REMARK VINA RESULT:      -6.8      3.094      4.810
REMARK  Name = 45784181
REMARK  3 active torsions:
REMARK  status: ('A' for Active; 'I' for Inactive)
REMARK    1  A    between atoms: N_4  and  C_7
REMARK    2  A    between atoms: C_8  and  C_16
REMARK    3  A    between atoms: C_17  and  C_20
REMARK                            x       y       z     vdW  Elec       q    Type
REMARK                         _______ _______ _______ _____ _____    ______ ____
ROOT
ATOM      4  N   UNL     1      16.626   7.362  20.379  0.00  0.00    -0.299 NA
ATOM      8  C   UNL     1      18.817   6.584  20.072  0.00  0.00    +0.090 C 
ATOM      9  C   UNL     1      17.886   7.221  21.113  0.00  0.00    +0.097 C 
ATOM     10  C   UNL     1      16.473   6.105  19.647  0.00  0.00    +0.085 C 
ATOM     11  C   UNL     1      17.873   5.862  19.095  0.00  0.00    +0.029 C 
ENDROOT
BRANCH   8  16
ATOM      1 CL   UNL     1      24.054   1.694  22.587  0.00  0.00    -0.083 Cl
ATOM      2  O   UNL     1      20.410   6.154  21.866  0.00  0.00    -0.439 OA
ATOM      6  N   UNL     1      20.360   4.566  20.249  0.00  0.00    -0.213 NA
ATOM     16  C   UNL     1      19.880   5.706  20.693  0.00  0.00    +0.201 A 
ATOM     18  C   UNL     1      21.288   4.222  21.203  0.00  0.00    +0.111 A 
ATOM     19  C   UNL     1      21.321   5.191  22.194  0.00  0.00    +0.155 A 
ATOM     21  C   UNL     1      22.141   3.114  21.309  0.00  0.00    +0.051 A 
ATOM     22  C   UNL     1      22.148   5.155  23.309  0.00  0.00    +0.050 A 
ATOM     23  C   UNL     1      22.991   3.043  22.422  0.00  0.00    +0.043 A 
ATOM     24  C   UNL     1      22.993   4.044  23.401  0.00  0.00    +0.024 A 
ENDBRANCH   8  16
BRANCH   4   7
ATOM      3  O   UNL     1      10.668   8.766  20.959  0.00  0.00    -0.276 OA
ATOM      5  N   UNL     1      12.867   8.763  21.709  0.00  0.00    -0.302 N 
ATOM      7  C   UNL     1      15.495   7.632  21.263  0.00  0.00    +0.060 C 
ATOM     12  C   UNL     1      15.284   9.145  21.403  0.00  0.00    +0.038 C 
ATOM     13  C   UNL     1      14.228   6.963  20.716  0.00  0.00    +0.038 C 
ATOM     14  C   UNL     1      14.046   9.451  22.247  0.00  0.00    +0.109 C 
ATOM     15  C   UNL     1      13.012   7.311  21.573  0.00  0.00    +0.109 C 
ATOM     17  C   UNL     1      11.659   9.373  21.375  0.00  0.00    +0.212 C 
ATOM     20  C   UNL     1      11.589  10.870  21.540  0.00  0.00    +0.109 C 
ENDBRANCH   4   7
TORSDOF 2
ENDMDL
MODEL 4
REMARK VINA RESULT:      -6.7      1.752      2.129
REMARK  Name = 45784181
REMARK  3 active torsions:
REMARK  status: ('A' for Active; 'I' for Inactive)
REMARK    1  A    between atoms: N_4  and  C_7
REMARK    2  A    between atoms: C_8  and  C_16
REMARK    3  A    between atoms: C_17  and  C_20
REMARK                            x       y       z     vdW  Elec       q    Type
REMARK                         _______ _______ _______ _____ _____    ______ ____
ROOT
ATOM      4  N   UNL     1      14.237   9.048  20.472  0.00  0.00    -0.299 NA
ATOM      8  C   UNL     1      15.812   7.436  19.824  0.00  0.00    +0.090 C 
ATOM      9  C   UNL     1      15.674   8.912  20.223  0.00  0.00    +0.097 C 
ATOM     10  C   UNL     1      13.869   7.848  21.222  0.00  0.00    +0.085 C 
ATOM     11  C   UNL     1      14.603   6.742  20.473  0.00  0.00    +0.029 C 
ENDROOT
BRANCH   8  16
ATOM      1 CL   UNL     1      22.523   4.091  21.018  0.00  0.00    -0.083 Cl
ATOM      2  O   UNL     1      17.680   7.268  21.380  0.00  0.00    -0.439 OA
ATOM      6  N   UNL     1      17.884   5.987  19.522  0.00  0.00    -0.213 NA
ATOM     16  C   UNL     1      17.155   6.849  20.194  0.00  0.00    +0.201 A 
ATOM     18  C   UNL     1      18.988   5.814  20.322  0.00  0.00    +0.111 A 
ATOM     19  C   UNL     1      18.866   6.596  21.461  0.00  0.00    +0.155 A 
ATOM     21  C   UNL     1      20.132   5.018  20.165  0.00  0.00    +0.051 A 
ATOM     22  C   UNL     1      19.805   6.658  22.482  0.00  0.00    +0.050 A 
ATOM     23  C   UNL     1      21.103   5.056  21.176  0.00  0.00    +0.043 A 
ATOM     24  C   UNL     1      20.941   5.860  22.311  0.00  0.00    +0.024 A 
ENDBRANCH   8  16
BRANCH   4   7
ATOM      3  O   UNL     1      13.256  11.837  25.863  0.00  0.00    -0.276 OA
ATOM      5  N   UNL     1      12.943  11.613  23.571  0.00  0.00    -0.302 N 
ATOM      7  C   UNL     1      13.912  10.277  21.193  0.00  0.00    +0.060 C 
ATOM     12  C   UNL     1      12.421  10.296  21.553  0.00  0.00    +0.038 C 
ATOM     13  C   UNL     1      14.770  10.387  22.459  0.00  0.00    +0.038 C 
ATOM     14  C   UNL     1      12.075  11.527  22.391  0.00  0.00    +0.109 C 
ATOM     15  C   UNL     1      14.379  11.616  23.279  0.00  0.00    +0.109 C 
ATOM     17  C   UNL     1      12.504  11.729  24.890  0.00  0.00    +0.212 C 
ATOM     20  C   UNL     1      11.012  11.716  25.109  0.00  0.00    +0.109 C 
ENDBRANCH   4   7
TORSDOF 2
ENDMDL
MODEL 5
REMARK VINA RESULT:      -6.5      3.681      8.259
REMARK  Name = 45784181
REMARK  3 active torsions:
REMARK  status: ('A' for Active; 'I' for Inactive)
REMARK    1  A    between atoms: N_4  and  C_7
REMARK    2  A    between atoms: C_8  and  C_16
REMARK    3  A    between atoms: C_17  and  C_20
REMARK                            x       y       z     vdW  Elec       q    Type
REMARK                         _______ _______ _______ _____ _____    ______ ____
ROOT
ATOM      4  N   UNL     1      14.665   7.298  20.559  0.00  0.00    -0.299 NA
ATOM      8  C   UNL     1      12.806   8.310  21.569  0.00  0.00    +0.090 C 
ATOM      9  C   UNL     1      14.342   8.299  21.578  0.00  0.00    +0.097 C 
ATOM     10  C   UNL     1      13.747   7.575  19.454  0.00  0.00    +0.085 C 
ATOM     11  C   UNL     1      12.421   7.812  20.166  0.00  0.00    +0.029 C 
ENDROOT
BRANCH   8  16
ATOM      1 CL   UNL     1       9.672  14.731  24.139  0.00  0.00    -0.083 Cl
ATOM      2  O   UNL     1      12.359  10.642  21.018  0.00  0.00    -0.439 OA
ATOM      6  N   UNL     1      11.608   9.994  23.056  0.00  0.00    -0.213 NA
ATOM     16  C   UNL     1      12.226   9.653  21.947  0.00  0.00    +0.201 A 
ATOM     18  C   UNL     1      11.302  11.319  22.853  0.00  0.00    +0.111 A 
ATOM     19  C   UNL     1      11.760  11.718  21.607  0.00  0.00    +0.155 A 
ATOM     21  C   UNL     1      10.643  12.254  23.665  0.00  0.00    +0.051 A 
ATOM     22  C   UNL     1      11.616  12.996  21.083  0.00  0.00    +0.050 A 
ATOM     23  C   UNL     1      10.479  13.555  23.169  0.00  0.00    +0.043 A 
ATOM     24  C   UNL     1      10.957  13.917  21.904  0.00  0.00    +0.024 A 
ENDBRANCH   8  16
BRANCH   4   7
ATOM      3  O   UNL     1      20.130   4.501  20.213  0.00  0.00    -0.276 OA
ATOM      5  N   UNL     1      18.788   6.393  20.351  0.00  0.00    -0.302 N 
ATOM      7  C   UNL     1      16.065   7.356  20.146  0.00  0.00    +0.060 C 
ATOM     12  C   UNL     1      16.953   7.707  21.347  0.00  0.00    +0.038 C 
ATOM     13  C   UNL     1      16.491   6.014  19.538  0.00  0.00    +0.038 C 
ATOM     14  C   UNL     1      18.433   7.680  20.961  0.00  0.00    +0.109 C 
ATOM     15  C   UNL     1      17.978   6.020  19.188  0.00  0.00    +0.109 C 
ATOM     17  C   UNL     1      19.828   5.562  20.767  0.00  0.00    +0.212 C 
ATOM     20  C   UNL     1      20.613   6.014  21.972  0.00  0.00    +0.109 C 
ENDBRANCH   4   7
TORSDOF 2
ENDMDL
MODEL 6
REMARK VINA RESULT:      -6.5     27.546     29.236
REMARK  Name = 45784181
REMARK  3 active torsions:
REMARK  status: ('A' for Active; 'I' for Inactive)
REMARK    1  A    between atoms: N_4  and  C_7
REMARK    2  A    between atoms: C_8  and  C_16
REMARK    3  A    between atoms: C_17  and  C_20
REMARK                            x       y       z     vdW  Elec       q    Type
REMARK                         _______ _______ _______ _____ _____    ______ ____
ROOT
ATOM      4  N   UNL     1      -2.382 -10.950  12.160  0.00  0.00    -0.299 NA
ATOM      8  C   UNL     1      -2.642 -10.831  14.487  0.00  0.00    +0.090 C 
ATOM      9  C   UNL     1      -3.210 -10.287  13.169  0.00  0.00    +0.097 C 
ATOM     10  C   UNL     1      -2.268 -12.335  12.617  0.00  0.00    +0.085 C 
ATOM     11  C   UNL     1      -2.004 -12.179  14.109  0.00  0.00    +0.029 C 
ENDROOT
BRANCH   8  16
ATOM      1 CL   UNL     1      -8.353 -10.957  19.490  0.00  0.00    -0.083 Cl
ATOM      2  O   UNL     1      -3.219 -11.310  16.806  0.00  0.00    -0.439 OA
ATOM      6  N   UNL     1      -4.959 -10.628  15.524  0.00  0.00    -0.213 NA
ATOM     16  C   UNL     1      -3.676 -10.905  15.588  0.00  0.00    +0.201 A 
ATOM     18  C   UNL     1      -5.398 -10.868  16.804  0.00  0.00    +0.111 A 
ATOM     19  C   UNL     1      -4.336 -11.286  17.592  0.00  0.00    +0.155 A 
ATOM     21  C   UNL     1      -6.670 -10.759  17.384  0.00  0.00    +0.051 A 
ATOM     22  C   UNL     1      -4.429 -11.611  18.938  0.00  0.00    +0.050 A 
ATOM     23  C   UNL     1      -6.804 -11.080  18.742  0.00  0.00    +0.043 A 
ATOM     24  C   UNL     1      -5.705 -11.497  19.502  0.00  0.00    +0.024 A 
ENDBRANCH   8  16
BRANCH   4   7
ATOM      3  O   UNL     1      -6.713  -8.594   8.486  0.00  0.00    -0.276 OA
ATOM      5  N   UNL     1      -5.182 -10.240   9.075  0.00  0.00    -0.302 N 
ATOM      7  C   UNL     1      -2.954 -10.853  10.819  0.00  0.00    +0.060 C 
ATOM     12  C   UNL     1      -4.156 -11.797  10.690  0.00  0.00    +0.038 C 
ATOM     13  C   UNL     1      -3.374  -9.407  10.530  0.00  0.00    +0.038 C 
ATOM     14  C   UNL     1      -4.831 -11.642   9.325  0.00  0.00    +0.109 C 
ATOM     15  C   UNL     1      -4.063  -9.299   9.170  0.00  0.00    +0.109 C 
ATOM     17  C   UNL     1      -6.450  -9.775   8.728  0.00  0.00    +0.212 C 
ATOM     20  C   UNL     1      -7.550 -10.804   8.654  0.00  0.00    +0.109 C 
ENDBRANCH   4   7
TORSDOF 2
ENDMDL
MODEL 7
REMARK VINA RESULT:      -6.5      4.335      9.560
REMARK  Name = 45784181
REMARK  3 active torsions:
REMARK  status: ('A' for Active; 'I' for Inactive)
REMARK    1  A    between atoms: N_4  and  C_7
REMARK    2  A    between atoms: C_8  and  C_16
REMARK    3  A    between atoms: C_17  and  C_20
REMARK                            x       y       z     vdW  Elec       q    Type
REMARK                         _______ _______ _______ _____ _____    ______ ____
ROOT
ATOM      4  N   UNL     1      20.000   6.654  21.323  0.00  0.00    -0.299 NA
ATOM      8  C   UNL     1      18.040   7.705  20.577  0.00  0.00    +0.090 C 
ATOM      9  C   UNL     1      18.719   6.332  20.690  0.00  0.00    +0.097 C 
ATOM     10  C   UNL     1      19.669   7.612  22.378  0.00  0.00    +0.085 C 
ATOM     11  C   UNL     1      18.688   8.552  21.686  0.00  0.00    +0.029 C 
ENDROOT
BRANCH   8  16
ATOM      1 CL   UNL     1      10.534   7.347  21.668  0.00  0.00    -0.083 Cl
ATOM      2  O   UNL     1      15.893   7.495  19.444  0.00  0.00    -0.439 OA
ATOM      6  N   UNL     1      15.755   7.655  21.700  0.00  0.00    -0.213 NA
ATOM     16  C   UNL     1      16.532   7.622  20.641  0.00  0.00    +0.201 A 
ATOM     18  C   UNL     1      14.492   7.543  21.170  0.00  0.00    +0.111 A 
ATOM     19  C   UNL     1      14.573   7.444  19.789  0.00  0.00    +0.155 A 
ATOM     21  C   UNL     1      13.229   7.514  21.779  0.00  0.00    +0.051 A 
ATOM     22  C   UNL     1      13.481   7.316  18.940  0.00  0.00    +0.050 A 
ATOM     23  C   UNL     1      12.103   7.386  20.954  0.00  0.00    +0.043 A 
ATOM     24  C   UNL     1      12.229   7.289  19.563  0.00  0.00    +0.024 A 
ENDBRANCH   8  16
BRANCH   4   7
ATOM      3  O   UNL     1      25.284   3.672  22.316  0.00  0.00    -0.276 OA
ATOM      5  N   UNL     1      22.994   3.734  21.930  0.00  0.00    -0.302 N 
ATOM      7  C   UNL     1      20.678   5.468  21.842  0.00  0.00    +0.060 C 
ATOM     12  C   UNL     1      21.003   4.504  20.694  0.00  0.00    +0.038 C 
ATOM     13  C   UNL     1      21.959   5.875  22.580  0.00  0.00    +0.038 C 
ATOM     14  C   UNL     1      21.798   3.299  21.200  0.00  0.00    +0.109 C 
ATOM     15  C   UNL     1      22.734   4.645  23.048  0.00  0.00    +0.109 C 
ATOM     17  C   UNL     1      24.298   3.320  21.663  0.00  0.00    +0.212 C 
ATOM     20  C   UNL     1      24.484   2.385  20.494  0.00  0.00    +0.109 C 
ENDBRANCH   4   7
TORSDOF 2
ENDMDL
MODEL 8
REMARK VINA RESULT:      -6.3     27.505     30.264
REMARK  Name = 45784181
REMARK  3 active torsions:
REMARK  status: ('A' for Active; 'I' for Inactive)
REMARK    1  A    between atoms: N_4  and  C_7
REMARK    2  A    between atoms: C_8  and  C_16
REMARK    3  A    between atoms: C_17  and  C_20
REMARK                            x       y       z     vdW  Elec       q    Type
REMARK                         _______ _______ _______ _____ _____    ______ ____
ROOT
ATOM      4  N   UNL     1      -6.524 -11.035  17.672  0.00  0.00    -0.299 NA
ATOM      8  C   UNL     1      -8.421  -9.657  17.701  0.00  0.00    +0.090 C 
ATOM      9  C   UNL     1      -7.012  -9.776  17.105  0.00  0.00    +0.097 C 
ATOM     10  C   UNL     1      -7.654 -11.958  17.568  0.00  0.00    +0.085 C 
ATOM     11  C   UNL     1      -8.832 -11.104  18.023  0.00  0.00    +0.029 C 
ENDROOT
BRANCH   8  16
ATOM      1 CL   UNL     1     -13.203  -6.518  12.707  0.00  0.00    -0.083 Cl
ATOM      2  O   UNL     1      -9.764  -7.676  17.236  0.00  0.00    -0.439 OA
ATOM      6  N   UNL     1      -9.892  -9.294  15.654  0.00  0.00    -0.213 NA
ATOM     16  C   UNL     1      -9.380  -8.910  16.802  0.00  0.00    +0.201 A 
ATOM     18  C   UNL     1     -10.684  -8.232  15.290  0.00  0.00    +0.111 A 
ATOM     19  C   UNL     1     -10.608  -7.240  16.256  0.00  0.00    +0.155 A 
ATOM     21  C   UNL     1     -11.496  -8.023  14.166  0.00  0.00    +0.051 A 
ATOM     22  C   UNL     1     -11.284  -6.028  16.201  0.00  0.00    +0.050 A 
ATOM     23  C   UNL     1     -12.195  -6.811  14.076  0.00  0.00    +0.043 A 
ATOM     24  C   UNL     1     -12.090  -5.835  15.074  0.00  0.00    +0.024 A 
ENDBRANCH   8  16
BRANCH   4   7
ATOM      3  O   UNL     1      -1.627  -9.812  14.160  0.00  0.00    -0.276 OA
ATOM      5  N   UNL     1      -3.293 -11.224  14.954  0.00  0.00    -0.302 N 
ATOM      7  C   UNL     1      -5.335 -11.532  16.984  0.00  0.00    +0.060 C 
ATOM     12  C   UNL     1      -5.641 -11.750  15.497  0.00  0.00    +0.038 C 
ATOM     13  C   UNL     1      -4.176 -10.541  17.153  0.00  0.00    +0.038 C 
ATOM     14  C   UNL     1      -4.385 -12.179  14.736  0.00  0.00    +0.109 C 
ATOM     15  C   UNL     1      -2.951 -10.994  16.360  0.00  0.00    +0.109 C 
ATOM     17  C   UNL     1      -2.567 -10.584  13.950  0.00  0.00    +0.212 C 
ATOM     20  C   UNL     1      -2.982 -10.871  12.529  0.00  0.00    +0.109 C 
ENDBRANCH   4   7
TORSDOF 2
ENDMDL
MODEL 9
REMARK VINA RESULT:      -6.3      3.827      6.636
REMARK  Name = 45784181
REMARK  3 active torsions:
REMARK  status: ('A' for Active; 'I' for Inactive)
REMARK    1  A    between atoms: N_4  and  C_7
REMARK    2  A    between atoms: C_8  and  C_16
REMARK    3  A    between atoms: C_17  and  C_20
REMARK                            x       y       z     vdW  Elec       q    Type
REMARK                         _______ _______ _______ _____ _____    ______ ____
ROOT
ATOM      4  N   UNL     1      18.395   7.341  21.533  0.00  0.00    -0.299 NA
ATOM      8  C   UNL     1      20.287   6.087  22.125  0.00  0.00    +0.090 C 
ATOM      9  C   UNL     1      19.113   6.127  21.136  0.00  0.00    +0.097 C 
ATOM     10  C   UNL     1      19.440   8.336  21.770  0.00  0.00    +0.085 C 
ATOM     11  C   UNL     1      20.485   7.551  22.554  0.00  0.00    +0.029 C 
ENDROOT
BRANCH   8  16
ATOM      1 CL   UNL     1      26.699   3.452  19.029  0.00  0.00    -0.083 Cl
ATOM      2  O   UNL     1      21.575   4.066  21.682  0.00  0.00    -0.439 OA
ATOM      6  N   UNL     1      22.538   5.978  20.941  0.00  0.00    -0.213 NA
ATOM     16  C   UNL     1      21.516   5.421  21.551  0.00  0.00    +0.201 A 
ATOM     18  C   UNL     1      23.348   4.910  20.639  0.00  0.00    +0.111 A 
ATOM     19  C   UNL     1      22.761   3.737  21.091  0.00  0.00    +0.155 A 
ATOM     21  C   UNL     1      24.587   4.840  19.987  0.00  0.00    +0.051 A 
ATOM     22  C   UNL     1      23.312   2.471  20.948  0.00  0.00    +0.050 A 
ATOM     23  C   UNL     1      25.175   3.577  19.826  0.00  0.00    +0.043 A 
ATOM     24  C   UNL     1      24.548   2.417  20.297  0.00  0.00    +0.024 A 
ENDBRANCH   8  16
BRANCH   4   7
ATOM      3  O   UNL     1      12.670   9.145  20.202  0.00  0.00    -0.276 OA
ATOM      5  N   UNL     1      14.698   8.152  19.653  0.00  0.00    -0.302 N 
ATOM      7  C   UNL     1      17.434   7.775  20.522  0.00  0.00    +0.060 C 
ATOM     12  C   UNL     1      16.559   6.592  20.087  0.00  0.00    +0.038 C 
ATOM     13  C   UNL     1      16.564   8.910  21.076  0.00  0.00    +0.038 C 
ATOM     14  C   UNL     1      15.481   7.042  19.099  0.00  0.00    +0.109 C 
ATOM     15  C   UNL     1      15.488   9.314  20.069  0.00  0.00    +0.109 C 
ATOM     17  C   UNL     1      13.308   8.183  19.765  0.00  0.00    +0.212 C 
ATOM     20  C   UNL     1      12.567   6.948  19.319  0.00  0.00    +0.109 C 
ENDBRANCH   4   7
TORSDOF 2
ENDMDL
MODEL 10
REMARK VINA RESULT:      -6.2     27.157     29.939
REMARK  Name = 45784181
REMARK  3 active torsions:
REMARK  status: ('A' for Active; 'I' for Inactive)
REMARK    1  A    between atoms: N_4  and  C_7
REMARK    2  A    between atoms: C_8  and  C_16
REMARK    3  A    between atoms: C_17  and  C_20
REMARK                            x       y       z     vdW  Elec       q    Type
REMARK                         _______ _______ _______ _____ _____    ______ ____
ROOT
ATOM      4  N   UNL     1     -14.329   6.395  21.358  0.00  0.00    -0.299 NA
ATOM      8  C   UNL     1     -15.586   4.674  22.337  0.00  0.00    +0.090 C 
ATOM      9  C   UNL     1     -14.159   5.232  22.232  0.00  0.00    +0.097 C 
ATOM     10  C   UNL     1     -15.547   7.051  21.836  0.00  0.00    +0.085 C 
ATOM     11  C   UNL     1     -16.498   5.880  22.055  0.00  0.00    +0.029 C 
ENDROOT
BRANCH   8  16
ATOM      1 CL   UNL     1     -16.679   1.810  29.284  0.00  0.00    -0.083 Cl
ATOM      2  O   UNL     1     -16.287   2.685  23.560  0.00  0.00    -0.439 OA
ATOM      6  N   UNL     1     -15.707   4.442  24.870  0.00  0.00    -0.213 NA
ATOM     16  C   UNL     1     -15.848   3.973  23.650  0.00  0.00    +0.201 A 
ATOM     18  C   UNL     1     -16.083   3.383  25.661  0.00  0.00    +0.111 A 
ATOM     19  C   UNL     1     -16.438   2.306  24.863  0.00  0.00    +0.155 A 
ATOM     21  C   UNL     1     -16.153   3.246  27.055  0.00  0.00    +0.051 A 
ATOM     22  C   UNL     1     -16.866   1.075  25.340  0.00  0.00    +0.050 A 
ATOM     23  C   UNL     1     -16.582   2.016  27.574  0.00  0.00    +0.043 A 
ATOM     24  C   UNL     1     -16.931   0.953  26.732  0.00  0.00    +0.024 A 
ENDBRANCH   8  16
BRANCH   4   7
ATOM      3  O   UNL     1     -11.448  11.293  19.011  0.00  0.00    -0.276 OA
ATOM      5  N   UNL     1     -11.468   9.236  20.090  0.00  0.00    -0.302 N 
ATOM      7  C   UNL     1     -13.171   7.285  21.386  0.00  0.00    +0.060 C 
ATOM     12  C   UNL     1     -12.170   6.880  20.297  0.00  0.00    +0.038 C 
ATOM     13  C   UNL     1     -13.620   8.739  21.188  0.00  0.00    +0.038 C 
ATOM     14  C   UNL     1     -10.993   7.856  20.244  0.00  0.00    +0.109 C 
ATOM     15  C   UNL     1     -12.416   9.677  21.117  0.00  0.00    +0.109 C 
ATOM     17  C   UNL     1     -11.060  10.124  19.096  0.00  0.00    +0.212 C 
ATOM     20  C   UNL     1     -10.086   9.594  18.075  0.00  0.00    +0.109 C 
ENDBRANCH   4   7
TORSDOF 2
ENDMDL
