REMARK  Name = 75368558
REMARK  2 active torsions:
REMARK  status: ('A' for Active; 'I' for Inactive)
REMARK    1  A    between atoms: N_4  and  C_13
REMARK    2  A    between atoms: C_13  and  C_14
REMARK                            x       y       z     vdW  Elec       q    Type
REMARK                         _______ _______ _______ _____ _____    ______ ____
ROOT
ATOM      2  O   UNL     1      -4.183   1.768   0.011  0.00  0.00    -0.253 OA
ATOM      3  N   UNL     1      -2.244   0.456   0.246  0.00  0.00    -0.279 N 
ATOM      4  N   UNL     1       0.394  -0.433  -0.150  0.00  0.00    -0.293 NA
ATOM      5  N   UNL     1      -4.225  -0.578   0.019  0.00  0.00    -0.297 N 
ATOM      7  C   UNL     1      -1.944  -0.950   0.418  0.00  0.00    +0.109 C 
ATOM      8  C   UNL     1      -0.735  -1.343  -0.431  0.00  0.00    +0.109 C 
ATOM      9  C   UNL     1      -1.176   1.428   0.353  0.00  0.00    +0.125 C 
ATOM     10  C   UNL     1      -3.249  -1.644   0.038  0.00  0.00    +0.129 C 
ATOM     11  C   UNL     1       0.035   0.965  -0.462  0.00  0.00    +0.104 C 
ATOM     12  C   UNL     1      -3.614   0.688   0.087  0.00  0.00    +0.303 C 
ATOM     17  H   UNL     1      -5.222  -0.717  -0.113  0.00  0.00    +0.150 HD
ENDROOT
BRANCH   4  13
ATOM     13  C   UNL     1       1.575  -0.837  -0.913  0.00  0.00    +0.147 C 
BRANCH  13  14
ATOM      1  S   UNL     1       3.887   0.679  -1.198  0.00  0.00    -0.079 S 
ATOM      6  N   UNL     1       3.235  -0.622   0.939  0.00  0.00    -0.251 NA
ATOM     14  C   UNL     1       2.848  -0.336  -0.284  0.00  0.00    +0.092 A 
ATOM     15  C   UNL     1       4.953   0.754   0.144  0.00  0.00    +0.066 A 
ATOM     16  C   UNL     1       4.442   0.004   1.183  0.00  0.00    +0.119 A 
ENDBRANCH  13  14
ENDBRANCH   4  13
TORSDOF 2
