MODEL 1
REMARK VINA RESULT:      -6.5      0.000      0.000
REMARK  Name = 45783375
REMARK  8 active torsions:
REMARK  status: ('A' for Active; 'I' for Inactive)
REMARK    1  A    between atoms: O_2  and  C_27
REMARK    2  A    between atoms: O_2  and  C_28
REMARK    3  A    between atoms: N_3  and  C_9
REMARK    4  A    between atoms: N_6  and  C_25
REMARK    5  A    between atoms: C_8  and  C_9
REMARK    6  A    between atoms: C_10  and  C_19
REMARK    7  A    between atoms: C_20  and  C_21
REMARK    8  A    between atoms: C_25  and  C_27
REMARK                            x       y       z     vdW  Elec       q    Type
REMARK                         _______ _______ _______ _____ _____    ______ ____
ROOT
ATOM      1  O   UNL     1      14.446   9.153  22.792  0.00  0.00    -0.336 OA
ATOM      4  N   UNL     1      15.847   9.637  21.112  0.00  0.00    -0.190 NA
ATOM      5  N   UNL     1      14.823   7.925  22.232  0.00  0.00    -0.056 NA
ATOM     19  C   UNL     1      15.095  10.108  22.074  0.00  0.00    +0.245 A 
ATOM     20  C   UNL     1      15.649   8.294  21.249  0.00  0.00    +0.205 A 
ENDROOT
BRANCH  20  21
ATOM      6  N   UNL     1      14.591   7.628  18.698  0.00  0.00    -0.326 N 
ATOM      7  N   UNL     1      16.371   6.120  18.302  0.00  0.00    -0.240 NA
ATOM     21  C   UNL     1      16.291   7.346  20.384  0.00  0.00    +0.062 A 
ATOM     22  C   UNL     1      15.789   7.009  19.137  0.00  0.00    +0.130 A 
ATOM     23  C   UNL     1      17.467   6.731  20.800  0.00  0.00    +0.016 A 
ATOM     24  C   UNL     1      18.095   5.811  19.967  0.00  0.00    +0.020 A 
ATOM     26  C   UNL     1      17.512   5.542  18.739  0.00  0.00    +0.113 A 
ATOM     29  H   UNL     1      13.977   7.977  19.427  0.00  0.00    +0.148 HD
BRANCH   6  25
ATOM     25  C   UNL     1      13.999   7.345  17.432  0.00  0.00    +0.131 C 
BRANCH  25  27
ATOM     27  C   UNL     1      14.112   8.557  16.523  0.00  0.00    +0.178 C 
BRANCH  27   2
ATOM      2  O   UNL     1      13.149   8.460  15.482  0.00  0.00    -0.381 OA
ATOM     28  C   UNL     1      12.182   9.497  15.567  0.00  0.00    +0.194 C 
ENDBRANCH  27   2
ENDBRANCH  25  27
ENDBRANCH   6  25
ENDBRANCH  20  21
BRANCH  19  10
ATOM      3  N   UNL     1      13.438  11.805  22.825  0.00  0.00    -0.291 NA
ATOM     10  C   UNL     1      14.851  11.544  22.488  0.00  0.00    +0.146 C 
ATOM     13  C   UNL     1      13.441  12.879  23.818  0.00  0.00    +0.085 C 
ATOM     14  C   UNL     1      15.634  11.938  23.754  0.00  0.00    +0.030 C 
ATOM     15  C   UNL     1      14.584  12.466  24.722  0.00  0.00    +0.017 C 
BRANCH   3   9
ATOM      9  C   UNL     1      12.623  12.136  21.662  0.00  0.00    +0.088 C 
BRANCH   9   8
ATOM      8  C   UNL     1      11.657  10.999  21.333  0.00  0.00    +0.003 C 
ATOM     11  C   UNL     1      12.229  10.103  20.226  0.00  0.00    +0.005 C 
ATOM     12  C   UNL     1      11.338  10.178  22.590  0.00  0.00    +0.005 C 
ATOM     16  C   UNL     1      11.304   8.928  19.917  0.00  0.00    +0.000 C 
ATOM     17  C   UNL     1      10.415   9.003  22.277  0.00  0.00    +0.000 C 
ATOM     18  C   UNL     1      10.983   8.120  21.171  0.00  0.00    +0.000 C 
ENDBRANCH   9   8
ENDBRANCH   3   9
ENDBRANCH  19  10
TORSDOF 7
ENDMDL
MODEL 2
REMARK VINA RESULT:      -6.1     15.100     20.267
REMARK  Name = 45783375
REMARK  8 active torsions:
REMARK  status: ('A' for Active; 'I' for Inactive)
REMARK    1  A    between atoms: O_2  and  C_27
REMARK    2  A    between atoms: O_2  and  C_28
REMARK    3  A    between atoms: N_3  and  C_9
REMARK    4  A    between atoms: N_6  and  C_25
REMARK    5  A    between atoms: C_8  and  C_9
REMARK    6  A    between atoms: C_10  and  C_19
REMARK    7  A    between atoms: C_20  and  C_21
REMARK    8  A    between atoms: C_25  and  C_27
REMARK                            x       y       z     vdW  Elec       q    Type
REMARK                         _______ _______ _______ _____ _____    ______ ____
ROOT
ATOM      1  O   UNL     1      11.535   3.109   2.764  0.00  0.00    -0.336 OA
ATOM      4  N   UNL     1      11.850   5.249   2.185  0.00  0.00    -0.190 NA
ATOM      5  N   UNL     1      10.631   3.857   3.530  0.00  0.00    -0.056 NA
ATOM     19  C   UNL     1      12.213   4.005   2.000  0.00  0.00    +0.245 A 
ATOM     20  C   UNL     1      10.878   5.109   3.131  0.00  0.00    +0.205 A 
ENDROOT
BRANCH  20  21
ATOM      6  N   UNL     1      10.837   5.692   5.911  0.00  0.00    -0.326 N 
ATOM      7  N   UNL     1       9.484   7.597   5.539  0.00  0.00    -0.240 NA
ATOM     21  C   UNL     1      10.171   6.240   3.660  0.00  0.00    +0.062 A 
ATOM     22  C   UNL     1      10.141   6.539   5.013  0.00  0.00    +0.130 A 
ATOM     23  C   UNL     1       9.484   7.081   2.791  0.00  0.00    +0.016 A 
ATOM     24  C   UNL     1       8.796   8.180   3.296  0.00  0.00    +0.020 A 
ATOM     26  C   UNL     1       8.827   8.392   4.665  0.00  0.00    +0.113 A 
ATOM     29  H   UNL     1      10.996   4.741   5.594  0.00  0.00    +0.148 HD
BRANCH   6  25
ATOM     25  C   UNL     1      10.863   5.919   7.318  0.00  0.00    +0.131 C 
BRANCH  25  27
ATOM     27  C   UNL     1       9.997   4.892   8.027  0.00  0.00    +0.178 C 
BRANCH  27   2
ATOM      2  O   UNL     1       9.298   5.518   9.095  0.00  0.00    -0.381 OA
ATOM     28  C   UNL     1       9.007   4.598  10.138  0.00  0.00    +0.194 C 
ENDBRANCH  27   2
ENDBRANCH  25  27
ENDBRANCH   6  25
ENDBRANCH  20  21
BRANCH  19  10
ATOM      3  N   UNL     1      13.217   4.045  -0.276  0.00  0.00    -0.291 NA
ATOM     10  C   UNL     1      13.264   3.439   1.070  0.00  0.00    +0.146 C 
ATOM     13  C   UNL     1      14.581   3.994  -0.801  0.00  0.00    +0.085 C 
ATOM     14  C   UNL     1      14.699   3.700   1.565  0.00  0.00    +0.030 C 
ATOM     15  C   UNL     1      15.397   4.401   0.409  0.00  0.00    +0.017 C 
BRANCH   3   9
ATOM      9  C   UNL     1      12.262   3.394  -1.164  0.00  0.00    +0.088 C 
BRANCH   9   8
ATOM      8  C   UNL     1      11.403   4.427  -1.892  0.00  0.00    +0.003 C 
ATOM     11  C   UNL     1      10.787   3.824  -3.161  0.00  0.00    +0.005 C 
ATOM     12  C   UNL     1      10.312   4.976  -0.962  0.00  0.00    +0.005 C 
ATOM     16  C   UNL     1       9.880   4.822  -3.877  0.00  0.00    +0.000 C 
ATOM     17  C   UNL     1       9.406   5.972  -1.682  0.00  0.00    +0.000 C 
ATOM     18  C   UNL     1       8.802   5.371  -2.947  0.00  0.00    +0.000 C 
ENDBRANCH   9   8
ENDBRANCH   3   9
ENDBRANCH  19  10
TORSDOF 7
ENDMDL
MODEL 3
REMARK VINA RESULT:      -6.0      2.168      4.816
REMARK  Name = 45783375
REMARK  8 active torsions:
REMARK  status: ('A' for Active; 'I' for Inactive)
REMARK    1  A    between atoms: O_2  and  C_27
REMARK    2  A    between atoms: O_2  and  C_28
REMARK    3  A    between atoms: N_3  and  C_9
REMARK    4  A    between atoms: N_6  and  C_25
REMARK    5  A    between atoms: C_8  and  C_9
REMARK    6  A    between atoms: C_10  and  C_19
REMARK    7  A    between atoms: C_20  and  C_21
REMARK    8  A    between atoms: C_25  and  C_27
REMARK                            x       y       z     vdW  Elec       q    Type
REMARK                         _______ _______ _______ _____ _____    ______ ____
ROOT
ATOM      1  O   UNL     1      14.328   6.609  20.543  0.00  0.00    -0.336 OA
ATOM      4  N   UNL     1      15.918   7.409  19.183  0.00  0.00    -0.190 NA
ATOM      5  N   UNL     1      15.537   6.478  21.238  0.00  0.00    -0.056 NA
ATOM     19  C   UNL     1      14.642   7.165  19.343  0.00  0.00    +0.245 A 
ATOM     20  C   UNL     1      16.427   6.971  20.371  0.00  0.00    +0.205 A 
ENDROOT
BRANCH  20  21
ATOM      6  N   UNL     1      17.609   9.272  21.543  0.00  0.00    -0.326 N 
ATOM      7  N   UNL     1      19.741   8.248  21.516  0.00  0.00    -0.240 NA
ATOM     21  C   UNL     1      17.830   7.040  20.661  0.00  0.00    +0.062 A 
ATOM     22  C   UNL     1      18.423   8.154  21.232  0.00  0.00    +0.130 A 
ATOM     23  C   UNL     1      18.642   5.951  20.363  0.00  0.00    +0.016 A 
ATOM     24  C   UNL     1      20.004   6.010  20.641  0.00  0.00    +0.020 A 
ATOM     26  C   UNL     1      20.500   7.171  21.212  0.00  0.00    +0.113 A 
ATOM     29  H   UNL     1      16.749   9.358  21.011  0.00  0.00    +0.148 HD
BRANCH   6  25
ATOM     25  C   UNL     1      18.129  10.462  22.132  0.00  0.00    +0.131 C 
BRANCH  25  27
ATOM     27  C   UNL     1      17.205  11.633  21.842  0.00  0.00    +0.178 C 
BRANCH  27   2
ATOM      2  O   UNL     1      16.291  11.272  20.814  0.00  0.00    -0.381 OA
ATOM     28  C   UNL     1      16.054  12.354  19.924  0.00  0.00    +0.194 C 
ENDBRANCH  27   2
ENDBRANCH  25  27
ENDBRANCH   6  25
ENDBRANCH  20  21
BRANCH  19  10
ATOM      3  N   UNL     1      12.718   8.622  18.741  0.00  0.00    -0.291 NA
ATOM     10  C   UNL     1      13.490   7.413  18.392  0.00  0.00    +0.146 C 
ATOM     13  C   UNL     1      12.168   9.138  17.487  0.00  0.00    +0.085 C 
ATOM     14  C   UNL     1      13.956   7.651  16.943  0.00  0.00    +0.030 C 
ATOM     15  C   UNL     1      13.345   8.987  16.545  0.00  0.00    +0.017 C 
BRANCH   3   9
ATOM      9  C   UNL     1      11.679   8.372  19.732  0.00  0.00    +0.088 C 
BRANCH   9   8
ATOM      8  C   UNL     1      11.531   9.563  20.678  0.00  0.00    +0.003 C 
ATOM     11  C   UNL     1      10.941   9.119  22.023  0.00  0.00    +0.005 C 
ATOM     12  C   UNL     1      12.880  10.267  20.878  0.00  0.00    +0.005 C 
ATOM     16  C   UNL     1      10.833  10.284  23.004  0.00  0.00    +0.000 C 
ATOM     17  C   UNL     1      12.770  11.430  21.862  0.00  0.00    +0.000 C 
ATOM     18  C   UNL     1      12.175  10.985  23.194  0.00  0.00    +0.000 C 
ENDBRANCH   9   8
ENDBRANCH   3   9
ENDBRANCH  19  10
TORSDOF 7
ENDMDL
MODEL 4
REMARK VINA RESULT:      -5.9     26.489     29.163
REMARK  Name = 45783375
REMARK  8 active torsions:
REMARK  status: ('A' for Active; 'I' for Inactive)
REMARK    1  A    between atoms: O_2  and  C_27
REMARK    2  A    between atoms: O_2  and  C_28
REMARK    3  A    between atoms: N_3  and  C_9
REMARK    4  A    between atoms: N_6  and  C_25
REMARK    5  A    between atoms: C_8  and  C_9
REMARK    6  A    between atoms: C_10  and  C_19
REMARK    7  A    between atoms: C_20  and  C_21
REMARK    8  A    between atoms: C_25  and  C_27
REMARK                            x       y       z     vdW  Elec       q    Type
REMARK                         _______ _______ _______ _____ _____    ______ ____
ROOT
ATOM      1  O   UNL     1      -4.961  -9.706  16.113  0.00  0.00    -0.336 OA
ATOM      4  N   UNL     1      -5.229 -11.768  16.947  0.00  0.00    -0.190 NA
ATOM      5  N   UNL     1      -6.144  -9.673  16.863  0.00  0.00    -0.056 NA
ATOM     19  C   UNL     1      -4.487 -10.976  16.216  0.00  0.00    +0.245 A 
ATOM     20  C   UNL     1      -6.233 -10.925  17.322  0.00  0.00    +0.205 A 
ENDROOT
BRANCH  20  21
ATOM      6  N   UNL     1      -8.856  -9.863  17.072  0.00  0.00    -0.326 N 
ATOM      7  N   UNL     1      -9.636 -11.252  18.821  0.00  0.00    -0.240 NA
ATOM     21  C   UNL     1      -7.314 -11.365  18.158  0.00  0.00    +0.062 A 
ATOM     22  C   UNL     1      -8.599 -10.858  18.049  0.00  0.00    +0.130 A 
ATOM     23  C   UNL     1      -7.078 -12.341  19.120  0.00  0.00    +0.016 A 
ATOM     24  C   UNL     1      -8.120 -12.772  19.934  0.00  0.00    +0.020 A 
ATOM     26  C   UNL     1      -9.369 -12.202  19.746  0.00  0.00    +0.113 A 
ATOM     29  H   UNL     1      -8.056  -9.315  16.773  0.00  0.00    +0.148 HD
BRANCH   6  25
ATOM     25  C   UNL     1     -10.145  -9.283  16.886  0.00  0.00    +0.131 C 
BRANCH  25  27
ATOM     27  C   UNL     1     -10.008  -7.884  16.312  0.00  0.00    +0.178 C 
BRANCH  27   2
ATOM      2  O   UNL     1     -10.842  -6.989  17.037  0.00  0.00    -0.381 OA
ATOM     28  C   UNL     1     -11.501  -6.074  16.173  0.00  0.00    +0.194 C 
ENDBRANCH  27   2
ENDBRANCH  25  27
ENDBRANCH   6  25
ENDBRANCH  20  21
BRANCH  19  10
ATOM      3  N   UNL     1      -3.036 -10.458  14.262  0.00  0.00    -0.291 NA
ATOM     10  C   UNL     1      -3.196 -11.274  15.482  0.00  0.00    +0.146 C 
ATOM     13  C   UNL     1      -1.596 -10.289  14.063  0.00  0.00    +0.085 C 
ATOM     14  C   UNL     1      -1.946 -10.964  16.327  0.00  0.00    +0.030 C 
ATOM     15  C   UNL     1      -1.116 -10.015  15.474  0.00  0.00    +0.017 C 
BRANCH   3   9
ATOM      9  C   UNL     1      -3.685 -11.040  13.094  0.00  0.00    +0.088 C 
BRANCH   9   8
ATOM      8  C   UNL     1      -3.984  -9.967  12.047  0.00  0.00    +0.003 C 
ATOM     11  C   UNL     1      -3.236 -10.262  10.740  0.00  0.00    +0.005 C 
ATOM     12  C   UNL     1      -5.495  -9.858  11.799  0.00  0.00    +0.005 C 
ATOM     16  C   UNL     1      -3.561  -9.232   9.661  0.00  0.00    +0.000 C 
ATOM     17  C   UNL     1      -5.816  -8.830  10.717  0.00  0.00    +0.000 C 
ATOM     18  C   UNL     1      -5.063  -9.121   9.423  0.00  0.00    +0.000 C 
ENDBRANCH   9   8
ENDBRANCH   3   9
ENDBRANCH  19  10
TORSDOF 7
ENDMDL
MODEL 5
REMARK VINA RESULT:      -5.8      2.430      8.005
REMARK  Name = 45783375
REMARK  8 active torsions:
REMARK  status: ('A' for Active; 'I' for Inactive)
REMARK    1  A    between atoms: O_2  and  C_27
REMARK    2  A    between atoms: O_2  and  C_28
REMARK    3  A    between atoms: N_3  and  C_9
REMARK    4  A    between atoms: N_6  and  C_25
REMARK    5  A    between atoms: C_8  and  C_9
REMARK    6  A    between atoms: C_10  and  C_19
REMARK    7  A    between atoms: C_20  and  C_21
REMARK    8  A    between atoms: C_25  and  C_27
REMARK                            x       y       z     vdW  Elec       q    Type
REMARK                         _______ _______ _______ _____ _____    ______ ____
ROOT
ATOM      1  O   UNL     1      11.370   9.442  21.445  0.00  0.00    -0.336 OA
ATOM      4  N   UNL     1      12.405  11.362  20.936  0.00  0.00    -0.190 NA
ATOM      5  N   UNL     1      10.843  10.410  22.310  0.00  0.00    -0.056 NA
ATOM     19  C   UNL     1      12.282  10.086  20.670  0.00  0.00    +0.245 A 
ATOM     20  C   UNL     1      11.503  11.514  21.948  0.00  0.00    +0.205 A 
ENDROOT
BRANCH  20  21
ATOM      6  N   UNL     1      12.885  12.278  24.309  0.00  0.00    -0.326 N 
ATOM      7  N   UNL     1      11.765  14.362  24.345  0.00  0.00    -0.240 NA
ATOM     21  C   UNL     1      11.285  12.784  22.578  0.00  0.00    +0.062 A 
ATOM     22  C   UNL     1      11.950  13.173  23.729  0.00  0.00    +0.130 A 
ATOM     23  C   UNL     1      10.372  13.674  22.021  0.00  0.00    +0.016 A 
ATOM     24  C   UNL     1      10.155  14.907  22.626  0.00  0.00    +0.020 A 
ATOM     26  C   UNL     1      10.870  15.201  23.776  0.00  0.00    +0.113 A 
ATOM     29  H   UNL     1      12.752  11.295  24.094  0.00  0.00    +0.148 HD
BRANCH   6  25
ATOM     25  C   UNL     1      13.616  12.591  25.492  0.00  0.00    +0.131 C 
BRANCH  25  27
ATOM     27  C   UNL     1      14.736  11.583  25.692  0.00  0.00    +0.178 C 
BRANCH  27   2
ATOM      2  O   UNL     1      14.628  11.006  26.987  0.00  0.00    -0.381 OA
ATOM     28  C   UNL     1      15.807  11.216  27.751  0.00  0.00    +0.194 C 
ENDBRANCH  27   2
ENDBRANCH  25  27
ENDBRANCH   6  25
ENDBRANCH  20  21
BRANCH  19  10
ATOM      3  N   UNL     1      12.771   7.800  19.820  0.00  0.00    -0.291 NA
ATOM     10  C   UNL     1      13.003   9.246  19.637  0.00  0.00    +0.146 C 
ATOM     13  C   UNL     1      12.870   7.193  18.493  0.00  0.00    +0.085 C 
ATOM     14  C   UNL     1      12.532   9.538  18.199  0.00  0.00    +0.030 C 
ATOM     15  C   UNL     1      12.112   8.187  17.637  0.00  0.00    +0.017 C 
BRANCH   3   9
ATOM      9  C   UNL     1      13.689   7.188  20.772  0.00  0.00    +0.088 C 
BRANCH   9   8
ATOM      8  C   UNL     1      15.138   7.528  20.426  0.00  0.00    +0.003 C 
ATOM     11  C   UNL     1      15.816   8.264  21.589  0.00  0.00    +0.005 C 
ATOM     12  C   UNL     1      15.918   6.260  20.054  0.00  0.00    +0.005 C 
ATOM     16  C   UNL     1      17.282   8.567  21.287  0.00  0.00    +0.000 C 
ATOM     17  C   UNL     1      17.384   6.566  19.754  0.00  0.00    +0.000 C 
ATOM     18  C   UNL     1      18.051   7.305  20.910  0.00  0.00    +0.000 C 
ENDBRANCH   9   8
ENDBRANCH   3   9
ENDBRANCH  19  10
TORSDOF 7
ENDMDL
MODEL 6
REMARK VINA RESULT:      -5.8      2.620      4.971
REMARK  Name = 45783375
REMARK  8 active torsions:
REMARK  status: ('A' for Active; 'I' for Inactive)
REMARK    1  A    between atoms: O_2  and  C_27
REMARK    2  A    between atoms: O_2  and  C_28
REMARK    3  A    between atoms: N_3  and  C_9
REMARK    4  A    between atoms: N_6  and  C_25
REMARK    5  A    between atoms: C_8  and  C_9
REMARK    6  A    between atoms: C_10  and  C_19
REMARK    7  A    between atoms: C_20  and  C_21
REMARK    8  A    between atoms: C_25  and  C_27
REMARK                            x       y       z     vdW  Elec       q    Type
REMARK                         _______ _______ _______ _____ _____    ______ ____
ROOT
ATOM      1  O   UNL     1      14.506   6.738  19.563  0.00  0.00    -0.336 OA
ATOM      4  N   UNL     1      15.746   7.736  21.138  0.00  0.00    -0.190 NA
ATOM      5  N   UNL     1      15.821   6.298  19.361  0.00  0.00    -0.056 NA
ATOM     19  C   UNL     1      14.551   7.581  20.628  0.00  0.00    +0.245 A 
ATOM     20  C   UNL     1      16.491   6.930  20.329  0.00  0.00    +0.205 A 
ENDROOT
BRANCH  20  21
ATOM      6  N   UNL     1      18.084   8.976  21.487  0.00  0.00    -0.326 N 
ATOM      7  N   UNL     1      20.032   7.652  21.262  0.00  0.00    -0.240 NA
ATOM     21  C   UNL     1      17.906   6.779  20.513  0.00  0.00    +0.062 A 
ATOM     22  C   UNL     1      18.698   7.766  21.076  0.00  0.00    +0.130 A 
ATOM     23  C   UNL     1      18.523   5.597  20.115  0.00  0.00    +0.016 A 
ATOM     24  C   UNL     1      19.894   5.443  20.290  0.00  0.00    +0.020 A 
ATOM     26  C   UNL     1      20.597   6.490  20.863  0.00  0.00    +0.113 A 
ATOM     29  H   UNL     1      17.212   9.212  21.026  0.00  0.00    +0.148 HD
BRANCH   6  25
ATOM     25  C   UNL     1      18.817  10.048  22.076  0.00  0.00    +0.131 C 
BRANCH  25  27
ATOM     27  C   UNL     1      18.269  11.380  21.593  0.00  0.00    +0.178 C 
BRANCH  27   2
ATOM      2  O   UNL     1      17.708  11.219  20.297  0.00  0.00    -0.381 OA
ATOM     28  C   UNL     1      16.636  12.126  20.076  0.00  0.00    +0.194 C 
ENDBRANCH  27   2
ENDBRANCH  25  27
ENDBRANCH   6  25
ENDBRANCH  20  21
BRANCH  19  10
ATOM      3  N   UNL     1      12.418   8.637  19.906  0.00  0.00    -0.291 NA
ATOM     10  C   UNL     1      13.236   8.200  21.054  0.00  0.00    +0.146 C 
ATOM     13  C   UNL     1      11.021   8.535  20.330  0.00  0.00    +0.085 C 
ATOM     14  C   UNL     1      12.336   7.214  21.822  0.00  0.00    +0.030 C 
ATOM     15  C   UNL     1      11.015   7.211  21.067  0.00  0.00    +0.017 C 
BRANCH   3   9
ATOM      9  C   UNL     1      12.752   9.978  19.441  0.00  0.00    +0.088 C 
BRANCH   9   8
ATOM      8  C   UNL     1      13.693   9.918  18.239  0.00  0.00    +0.003 C 
ATOM     11  C   UNL     1      13.130   8.988  17.156  0.00  0.00    +0.005 C 
ATOM     12  C   UNL     1      13.942  11.324  17.676  0.00  0.00    +0.005 C 
ATOM     16  C   UNL     1      14.027   8.954  15.921  0.00  0.00    +0.000 C 
ATOM     17  C   UNL     1      14.838  11.286  16.440  0.00  0.00    +0.000 C 
ATOM     18  C   UNL     1      14.279  10.354  15.369  0.00  0.00    +0.000 C 
ENDBRANCH   9   8
ENDBRANCH   3   9
ENDBRANCH  19  10
TORSDOF 7
ENDMDL
MODEL 7
REMARK VINA RESULT:      -5.7     27.447     29.241
REMARK  Name = 45783375
REMARK  8 active torsions:
REMARK  status: ('A' for Active; 'I' for Inactive)
REMARK    1  A    between atoms: O_2  and  C_27
REMARK    2  A    between atoms: O_2  and  C_28
REMARK    3  A    between atoms: N_3  and  C_9
REMARK    4  A    between atoms: N_6  and  C_25
REMARK    5  A    between atoms: C_8  and  C_9
REMARK    6  A    between atoms: C_10  and  C_19
REMARK    7  A    between atoms: C_20  and  C_21
REMARK    8  A    between atoms: C_25  and  C_27
REMARK                            x       y       z     vdW  Elec       q    Type
REMARK                         _______ _______ _______ _____ _____    ______ ____
ROOT
ATOM      1  O   UNL     1      -6.766 -10.672  12.453  0.00  0.00    -0.336 OA
ATOM      4  N   UNL     1      -5.228  -9.654  13.723  0.00  0.00    -0.190 NA
ATOM      5  N   UNL     1      -7.079 -10.996  13.780  0.00  0.00    -0.056 NA
ATOM     19  C   UNL     1      -5.664  -9.879  12.510  0.00  0.00    +0.245 A 
ATOM     20  C   UNL     1      -6.127 -10.359  14.468  0.00  0.00    +0.205 A 
ENDROOT
BRANCH  20  21
ATOM      6  N   UNL     1      -8.116  -9.190  16.125  0.00  0.00    -0.326 N 
ATOM      7  N   UNL     1      -6.959  -9.872  18.073  0.00  0.00    -0.240 NA
ATOM     21  C   UNL     1      -6.047 -10.407  15.899  0.00  0.00    +0.062 A 
ATOM     22  C   UNL     1      -7.008  -9.843  16.723  0.00  0.00    +0.130 A 
ATOM     23  C   UNL     1      -4.967 -11.045  16.501  0.00  0.00    +0.016 A 
ATOM     24  C   UNL     1      -4.882 -11.095  17.888  0.00  0.00    +0.020 A 
ATOM     26  C   UNL     1      -5.895 -10.499  18.623  0.00  0.00    +0.113 A 
ATOM     29  H   UNL     1      -7.972  -8.843  15.182  0.00  0.00    +0.148 HD
BRANCH   6  25
ATOM     25  C   UNL     1      -9.153  -8.580  16.891  0.00  0.00    +0.131 C 
BRANCH  25  27
ATOM     27  C   UNL     1     -10.241  -8.058  15.968  0.00  0.00    +0.178 C 
BRANCH  27   2
ATOM      2  O   UNL     1     -10.043  -6.669  15.740  0.00  0.00    -0.381 OA
ATOM     28  C   UNL     1     -11.267  -5.951  15.797  0.00  0.00    +0.194 C 
ENDBRANCH  27   2
ENDBRANCH  25  27
ENDBRANCH   6  25
ENDBRANCH  20  21
BRANCH  19  10
ATOM      3  N   UNL     1      -4.103 -10.296  10.618  0.00  0.00    -0.291 NA
ATOM     10  C   UNL     1      -5.119  -9.387  11.186  0.00  0.00    +0.146 C 
ATOM     13  C   UNL     1      -4.184 -10.149   9.164  0.00  0.00    +0.085 C 
ATOM     14  C   UNL     1      -6.204  -9.284  10.098  0.00  0.00    +0.030 C 
ATOM     15  C   UNL     1      -5.681 -10.116   8.936  0.00  0.00    +0.017 C 
BRANCH   3   9
ATOM      9  C   UNL     1      -2.760 -10.040  11.121  0.00  0.00    +0.088 C 
BRANCH   9   8
ATOM      8  C   UNL     1      -2.263 -11.212  11.966  0.00  0.00    +0.003 C 
ATOM     11  C   UNL     1      -2.165 -10.812  13.444  0.00  0.00    +0.005 C 
ATOM     12  C   UNL     1      -3.176 -12.433  11.790  0.00  0.00    +0.005 C 
ATOM     16  C   UNL     1      -1.721 -11.983  14.317  0.00  0.00    +0.000 C 
ATOM     17  C   UNL     1      -2.731 -13.601  12.666  0.00  0.00    +0.000 C 
ATOM     18  C   UNL     1      -2.627 -13.197  14.133  0.00  0.00    +0.000 C 
ENDBRANCH   9   8
ENDBRANCH   3   9
ENDBRANCH  19  10
TORSDOF 7
ENDMDL
MODEL 8
REMARK VINA RESULT:      -5.7     26.656     28.955
REMARK  Name = 45783375
REMARK  8 active torsions:
REMARK  status: ('A' for Active; 'I' for Inactive)
REMARK    1  A    between atoms: O_2  and  C_27
REMARK    2  A    between atoms: O_2  and  C_28
REMARK    3  A    between atoms: N_3  and  C_9
REMARK    4  A    between atoms: N_6  and  C_25
REMARK    5  A    between atoms: C_8  and  C_9
REMARK    6  A    between atoms: C_10  and  C_19
REMARK    7  A    between atoms: C_20  and  C_21
REMARK    8  A    between atoms: C_25  and  C_27
REMARK                            x       y       z     vdW  Elec       q    Type
REMARK                         _______ _______ _______ _____ _____    ______ ____
ROOT
ATOM      1  O   UNL     1      -2.256 -10.324  14.790  0.00  0.00    -0.336 OA
ATOM      4  N   UNL     1      -4.357 -11.086  14.938  0.00  0.00    -0.190 NA
ATOM      5  N   UNL     1      -2.579 -10.314  16.153  0.00  0.00    -0.056 NA
ATOM     19  C   UNL     1      -3.357 -10.792  14.145  0.00  0.00    +0.245 A 
ATOM     20  C   UNL     1      -3.833 -10.777  16.158  0.00  0.00    +0.205 A 
ENDROOT
BRANCH  20  21
ATOM      6  N   UNL     1      -6.457  -9.727  16.443  0.00  0.00    -0.326 N 
ATOM      7  N   UNL     1      -6.607 -10.574  18.647  0.00  0.00    -0.240 NA
ATOM     21  C   UNL     1      -4.589 -10.941  17.366  0.00  0.00    +0.062 A 
ATOM     22  C   UNL     1      -5.871 -10.435  17.522  0.00  0.00    +0.130 A 
ATOM     23  C   UNL     1      -4.029 -11.634  18.434  0.00  0.00    +0.016 A 
ATOM     24  C   UNL     1      -4.756 -11.797  19.608  0.00  0.00    +0.020 A 
ATOM     26  C   UNL     1      -6.029 -11.252  19.664  0.00  0.00    +0.113 A 
ATOM     29  H   UNL     1      -5.811  -9.307  15.783  0.00  0.00    +0.148 HD
BRANCH   6  25
ATOM     25  C   UNL     1      -7.768  -9.172  16.511  0.00  0.00    +0.131 C 
BRANCH  25  27
ATOM     27  C   UNL     1      -8.715  -9.966  15.628  0.00  0.00    +0.178 C 
BRANCH  27   2
ATOM      2  O   UNL     1      -8.983  -9.232  14.440  0.00  0.00    -0.381 OA
ATOM     28  C   UNL     1      -8.974 -10.072  13.294  0.00  0.00    +0.194 C 
ENDBRANCH  27   2
ENDBRANCH  25  27
ENDBRANCH   6  25
ENDBRANCH  20  21
BRANCH  19  10
ATOM      3  N   UNL     1      -4.087  -9.893  11.944  0.00  0.00    -0.291 NA
ATOM     10  C   UNL     1      -3.261 -10.901  12.638  0.00  0.00    +0.146 C 
ATOM     13  C   UNL     1      -3.421  -9.618  10.671  0.00  0.00    +0.085 C 
ATOM     14  C   UNL     1      -1.832 -10.662  12.115  0.00  0.00    +0.030 C 
ATOM     15  C   UNL     1      -1.966  -9.547  11.089  0.00  0.00    +0.017 C 
BRANCH   3   9
ATOM      9  C   UNL     1      -5.470 -10.315  11.759  0.00  0.00    +0.088 C 
BRANCH   9   8
ATOM      8  C   UNL     1      -5.969  -9.946  10.362  0.00  0.00    +0.003 C 
ATOM     11  C   UNL     1      -6.578 -11.170   9.664  0.00  0.00    +0.005 C 
ATOM     12  C   UNL     1      -6.983  -8.797  10.435  0.00  0.00    +0.005 C 
ATOM     16  C   UNL     1      -7.132 -10.814   8.286  0.00  0.00    +0.000 C 
ATOM     17  C   UNL     1      -7.537  -8.446   9.056  0.00  0.00    +0.000 C 
ATOM     18  C   UNL     1      -8.134  -9.666   8.362  0.00  0.00    +0.000 C 
ENDBRANCH   9   8
ENDBRANCH   3   9
ENDBRANCH  19  10
TORSDOF 7
ENDMDL
MODEL 9
REMARK VINA RESULT:      -5.6     27.412     28.964
REMARK  Name = 45783375
REMARK  8 active torsions:
REMARK  status: ('A' for Active; 'I' for Inactive)
REMARK    1  A    between atoms: O_2  and  C_27
REMARK    2  A    between atoms: O_2  and  C_28
REMARK    3  A    between atoms: N_3  and  C_9
REMARK    4  A    between atoms: N_6  and  C_25
REMARK    5  A    between atoms: C_8  and  C_9
REMARK    6  A    between atoms: C_10  and  C_19
REMARK    7  A    between atoms: C_20  and  C_21
REMARK    8  A    between atoms: C_25  and  C_27
REMARK                            x       y       z     vdW  Elec       q    Type
REMARK                         _______ _______ _______ _____ _____    ______ ____
ROOT
ATOM      1  O   UNL     1      -4.465 -12.205  16.599  0.00  0.00    -0.336 OA
ATOM      4  N   UNL     1      -4.712 -10.192  15.650  0.00  0.00    -0.190 NA
ATOM      5  N   UNL     1      -3.888 -12.301  15.326  0.00  0.00    -0.056 NA
ATOM     19  C   UNL     1      -4.925 -10.931  16.709  0.00  0.00    +0.245 A 
ATOM     20  C   UNL     1      -4.074 -11.075  14.829  0.00  0.00    +0.205 A 
ENDROOT
BRANCH  20  21
ATOM      6  N   UNL     1      -5.824  -9.867  12.945  0.00  0.00    -0.326 N 
ATOM      7  N   UNL     1      -4.089  -9.747  11.341  0.00  0.00    -0.240 NA
ATOM     21  C   UNL     1      -3.634 -10.701  13.515  0.00  0.00    +0.062 A 
ATOM     22  C   UNL     1      -4.474 -10.110  12.584  0.00  0.00    +0.130 A 
ATOM     23  C   UNL     1      -2.313 -10.932  13.146  0.00  0.00    +0.016 A 
ATOM     24  C   UNL     1      -1.880 -10.572  11.875  0.00  0.00    +0.020 A 
ATOM     26  C   UNL     1      -2.798  -9.988  11.017  0.00  0.00    +0.113 A 
ATOM     29  H   UNL     1      -6.199 -10.452  13.685  0.00  0.00    +0.148 HD
BRANCH   6  25
ATOM     25  C   UNL     1      -6.761  -9.265  12.055  0.00  0.00    +0.131 C 
BRANCH  25  27
ATOM     27  C   UNL     1      -7.539 -10.340  11.316  0.00  0.00    +0.178 C 
BRANCH  27   2
ATOM      2  O   UNL     1      -7.924  -9.852  10.037  0.00  0.00    -0.381 OA
ATOM     28  C   UNL     1      -7.246  -8.646   9.713  0.00  0.00    +0.194 C 
ENDBRANCH  27   2
ENDBRANCH  25  27
ENDBRANCH   6  25
ENDBRANCH  20  21
BRANCH  19  10
ATOM      3  N   UNL     1      -7.074 -10.578  17.911  0.00  0.00    -0.291 NA
ATOM     10  C   UNL     1      -5.601 -10.568  18.014  0.00  0.00    +0.146 C 
ATOM     13  C   UNL     1      -7.579 -10.920  19.241  0.00  0.00    +0.085 C 
ATOM     14  C   UNL     1      -5.281 -11.563  19.146  0.00  0.00    +0.030 C 
ATOM     15  C   UNL     1      -6.636 -12.031  19.657  0.00  0.00    +0.017 C 
BRANCH   3   9
ATOM      9  C   UNL     1      -7.623  -9.319  17.424  0.00  0.00    +0.088 C 
BRANCH   9   8
ATOM      8  C   UNL     1      -9.146  -9.391  17.327  0.00  0.00    +0.003 C 
ATOM     11  C   UNL     1      -9.751  -7.984  17.237  0.00  0.00    +0.005 C 
ATOM     12  C   UNL     1      -9.573 -10.248  16.127  0.00  0.00    +0.005 C 
ATOM     16  C   UNL     1     -11.270  -8.032  17.085  0.00  0.00    +0.000 C 
ATOM     17  C   UNL     1     -11.092 -10.292  15.977  0.00  0.00    +0.000 C 
ATOM     18  C   UNL     1     -11.690  -8.891  15.896  0.00  0.00    +0.000 C 
ENDBRANCH   9   8
ENDBRANCH   3   9
ENDBRANCH  19  10
TORSDOF 7
ENDMDL
MODEL 10
REMARK VINA RESULT:      -5.6     26.583     28.903
REMARK  Name = 45783375
REMARK  8 active torsions:
REMARK  status: ('A' for Active; 'I' for Inactive)
REMARK    1  A    between atoms: O_2  and  C_27
REMARK    2  A    between atoms: O_2  and  C_28
REMARK    3  A    between atoms: N_3  and  C_9
REMARK    4  A    between atoms: N_6  and  C_25
REMARK    5  A    between atoms: C_8  and  C_9
REMARK    6  A    between atoms: C_10  and  C_19
REMARK    7  A    between atoms: C_20  and  C_21
REMARK    8  A    between atoms: C_25  and  C_27
REMARK                            x       y       z     vdW  Elec       q    Type
REMARK                         _______ _______ _______ _____ _____    ______ ____
ROOT
ATOM      1  O   UNL     1      -6.511 -12.182  16.961  0.00  0.00    -0.336 OA
ATOM      4  N   UNL     1      -5.331 -10.290  17.168  0.00  0.00    -0.190 NA
ATOM      5  N   UNL     1      -5.423 -12.304  16.087  0.00  0.00    -0.056 NA
ATOM     19  C   UNL     1      -6.380 -10.968  17.557  0.00  0.00    +0.245 A 
ATOM     20  C   UNL     1      -4.775 -11.150  16.266  0.00  0.00    +0.205 A 
ENDROOT
BRANCH  20  21
ATOM      6  N   UNL     1      -4.743 -10.742  13.455  0.00  0.00    -0.326 N 
ATOM      7  N   UNL     1      -2.416 -10.315  13.497  0.00  0.00    -0.240 NA
ATOM     21  C   UNL     1      -3.569 -10.824  15.560  0.00  0.00    +0.062 A 
ATOM     22  C   UNL     1      -3.535 -10.622  14.189  0.00  0.00    +0.130 A 
ATOM     23  C   UNL     1      -2.376 -10.702  16.265  0.00  0.00    +0.016 A 
ATOM     24  C   UNL     1      -1.204 -10.387  15.587  0.00  0.00    +0.020 A 
ATOM     26  C   UNL     1      -1.276 -10.206  14.215  0.00  0.00    +0.113 A 
ATOM     29  H   UNL     1      -5.464 -11.318  13.877  0.00  0.00    +0.148 HD
BRANCH   6  25
ATOM     25  C   UNL     1      -4.806 -10.553  12.044  0.00  0.00    +0.131 C 
BRANCH  25  27
ATOM     27  C   UNL     1      -5.638  -9.323  11.721  0.00  0.00    +0.178 C 
BRANCH  27   2
ATOM      2  O   UNL     1      -4.905  -8.468  10.853  0.00  0.00    -0.381 OA
ATOM     28  C   UNL     1      -3.809  -9.147  10.256  0.00  0.00    +0.194 C 
ENDBRANCH  27   2
ENDBRANCH  25  27
ENDBRANCH   6  25
ENDBRANCH  20  21
BRANCH  19  10
ATOM      3  N   UNL     1      -8.751 -10.310  17.926  0.00  0.00    -0.291 NA
ATOM     10  C   UNL     1      -7.449 -10.591  18.562  0.00  0.00    +0.146 C 
ATOM     13  C   UNL     1      -9.776 -10.658  18.910  0.00  0.00    +0.085 C 
ATOM     14  C   UNL     1      -7.742 -11.720  19.569  0.00  0.00    +0.030 C 
ATOM     15  C   UNL     1      -9.241 -11.960  19.471  0.00  0.00    +0.017 C 
BRANCH   3   9
ATOM      9  C   UNL     1      -8.878  -8.933  17.466  0.00  0.00    +0.088 C 
BRANCH   9   8
ATOM      8  C   UNL     1     -10.234  -8.705  16.799  0.00  0.00    +0.003 C 
ATOM     11  C   UNL     1     -10.602  -7.215  16.814  0.00  0.00    +0.005 C 
ATOM     12  C   UNL     1     -10.231  -9.252  15.365  0.00  0.00    +0.005 C 
ATOM     16  C   UNL     1     -11.929  -6.956  16.104  0.00  0.00    +0.000 C 
ATOM     17  C   UNL     1     -11.558  -8.989  14.657  0.00  0.00    +0.000 C 
ATOM     18  C   UNL     1     -11.925  -7.509  14.682  0.00  0.00    +0.000 C 
ENDBRANCH   9   8
ENDBRANCH   3   9
ENDBRANCH  19  10
TORSDOF 7
ENDMDL
