MODEL 1
REMARK VINA RESULT:      -7.3      0.000      0.000
REMARK  Name = 26743165
REMARK  9 active torsions:
REMARK  status: ('A' for Active; 'I' for Inactive)
REMARK    1  A    between atoms: O_4  and  C_20
REMARK    2  A    between atoms: O_4  and  C_26
REMARK    3  A    between atoms: N_6  and  C_19
REMARK    4  A    between atoms: C_8  and  C_14
REMARK    5  A    between atoms: C_9  and  C_13
REMARK    6  A    between atoms: C_13  and  C_15
REMARK    7  A    between atoms: C_14  and  C_16
REMARK    8  A    between atoms: C_18  and  C_20
REMARK    9  A    between atoms: C_19  and  C_21
REMARK                            x       y       z     vdW  Elec       q    Type
REMARK                         _______ _______ _______ _____ _____    ______ ____
ROOT
ATOM      5  N   UNL     1     -18.560   5.700  20.783  0.00  0.00    -0.316 NA
ATOM      8  C   UNL     1     -15.673   6.305  20.786  0.00  0.00    +0.004 C 
ATOM      9  C   UNL     1     -16.322   5.324  21.791  0.00  0.00    +0.012 C 
ATOM     10  C   UNL     1     -16.549   6.385  19.525  0.00  0.00    +0.019 C 
ATOM     11  C   UNL     1     -17.803   5.659  22.035  0.00  0.00    +0.085 C 
ATOM     12  C   UNL     1     -18.012   6.680  19.849  0.00  0.00    +0.081 C 
ATOM     33  H   UNL     1     -19.533   5.933  20.985  0.00  0.00    +0.122 HD
ENDROOT
BRANCH   9  13
ATOM     13  C   UNL     1     -15.566   5.236  23.118  0.00  0.00    +0.064 C 
BRANCH  13  15
ATOM      3  O   UNL     1     -16.491   1.939  24.230  0.00  0.00    -0.356 OA
ATOM      7  N   UNL     1     -16.158   2.854  23.238  0.00  0.00    -0.083 NA
ATOM     15  C   UNL     1     -15.952   4.005  23.886  0.00  0.00    +0.084 A 
ATOM     17  C   UNL     1     -16.137   3.878  25.274  0.00  0.00    +0.074 A 
ATOM     18  C   UNL     1     -16.475   2.560  25.437  0.00  0.00    +0.175 A 
BRANCH  18  20
ATOM     20  C   UNL     1     -16.805   1.733  26.603  0.00  0.00    +0.306 C 
BRANCH  20   4
ATOM      4  O   UNL     1     -16.784   2.524  27.795  0.00  0.00    -0.484 OA
BRANCH   4  26
ATOM     26  C   UNL     1     -15.825   2.212  28.717  0.00  0.00    +0.121 A 
ATOM     28  C   UNL     1     -15.050   3.223  29.286  0.00  0.00    +0.045 A 
ATOM     29  C   UNL     1     -15.618   0.883  29.087  0.00  0.00    +0.045 A 
ATOM     30  C   UNL     1     -14.071   2.904  30.227  0.00  0.00    +0.004 A 
ATOM     31  C   UNL     1     -14.640   0.565  30.028  0.00  0.00    +0.004 A 
ATOM     32  C   UNL     1     -13.865   1.575  30.598  0.00  0.00    +0.000 A 
ENDBRANCH   4  26
ENDBRANCH  20   4
ENDBRANCH  18  20
ENDBRANCH  13  15
ENDBRANCH   9  13
BRANCH   8  14
ATOM     14  C   UNL     1     -15.413   7.703  21.360  0.00  0.00    +0.099 C 
BRANCH  14  16
ATOM      2  O   UNL     1     -13.493   8.953  22.139  0.00  0.00    -0.276 OA
ATOM      6  N   UNL     1     -13.167   7.041  20.858  0.00  0.00    -0.311 N 
ATOM     16  C   UNL     1     -13.935   7.994  21.513  0.00  0.00    +0.214 C 
ATOM     34  H   UNL     1     -13.630   6.294  20.350  0.00  0.00    +0.149 HD
BRANCH   6  19
ATOM     19  C   UNL     1     -11.723   7.072  20.837  0.00  0.00    +0.139 C 
BRANCH  19  21
ATOM      1  F   UNL     1      -9.740  10.004  16.457  0.00  0.00    -0.205 F 
ATOM     21  C   UNL     1     -11.194   7.854  19.669  0.00  0.00    -0.030 A 
ATOM     22  C   UNL     1     -11.248   7.312  18.384  0.00  0.00    +0.008 A 
ATOM     23  C   UNL     1     -10.649   9.122  19.868  0.00  0.00    +0.008 A 
ATOM     24  C   UNL     1     -10.757   8.037  17.300  0.00  0.00    +0.038 A 
ATOM     25  C   UNL     1     -10.157   9.848  18.783  0.00  0.00    +0.038 A 
ATOM     27  C   UNL     1     -10.211   9.306  17.499  0.00  0.00    +0.123 A 
ENDBRANCH  19  21
ENDBRANCH   6  19
ENDBRANCH  14  16
ENDBRANCH   8  14
TORSDOF 9
ENDMDL
MODEL 2
REMARK VINA RESULT:      -6.9     18.587     21.095
REMARK  Name = 26743165
REMARK  9 active torsions:
REMARK  status: ('A' for Active; 'I' for Inactive)
REMARK    1  A    between atoms: O_4  and  C_20
REMARK    2  A    between atoms: O_4  and  C_26
REMARK    3  A    between atoms: N_6  and  C_19
REMARK    4  A    between atoms: C_8  and  C_14
REMARK    5  A    between atoms: C_9  and  C_13
REMARK    6  A    between atoms: C_13  and  C_15
REMARK    7  A    between atoms: C_14  and  C_16
REMARK    8  A    between atoms: C_18  and  C_20
REMARK    9  A    between atoms: C_19  and  C_21
REMARK                            x       y       z     vdW  Elec       q    Type
REMARK                         _______ _______ _______ _____ _____    ______ ____
ROOT
ATOM      5  N   UNL     1      -5.861 -12.400  19.453  0.00  0.00    -0.316 NA
ATOM      8  C   UNL     1      -6.765 -11.173  16.926  0.00  0.00    +0.004 C 
ATOM      9  C   UNL     1      -5.275 -11.236  17.339  0.00  0.00    +0.012 C 
ATOM     10  C   UNL     1      -7.530 -12.304  17.634  0.00  0.00    +0.019 C 
ATOM     11  C   UNL     1      -5.111 -11.287  18.867  0.00  0.00    +0.085 C 
ATOM     12  C   UNL     1      -7.287 -12.317  19.142  0.00  0.00    +0.081 C 
ATOM     33  H   UNL     1      -5.735 -12.397  20.465  0.00  0.00    +0.122 HD
ENDROOT
BRANCH   9  13
ATOM     13  C   UNL     1      -4.441 -10.097  16.748  0.00  0.00    +0.064 C 
BRANCH  13  15
ATOM      3  O   UNL     1      -1.582 -11.470  15.044  0.00  0.00    -0.356 OA
ATOM      7  N   UNL     1      -2.259 -11.081  16.194  0.00  0.00    -0.083 NA
ATOM     15  C   UNL     1      -3.433 -10.613  15.762  0.00  0.00    +0.084 A 
ATOM     17  C   UNL     1      -3.554 -10.683  14.363  0.00  0.00    +0.074 A 
ATOM     18  C   UNL     1      -2.364 -11.229  13.961  0.00  0.00    +0.175 A 
BRANCH  18  20
ATOM     20  C   UNL     1      -1.799 -11.584  12.654  0.00  0.00    +0.306 C 
BRANCH  20   4
ATOM      4  O   UNL     1      -2.818 -12.110  11.800  0.00  0.00    -0.484 OA
BRANCH   4  26
ATOM     26  C   UNL     1      -3.319 -11.260  10.854  0.00  0.00    +0.121 A 
ATOM     28  C   UNL     1      -2.877  -9.938  10.801  0.00  0.00    +0.045 A 
ATOM     29  C   UNL     1      -4.273 -11.714   9.943  0.00  0.00    +0.045 A 
ATOM     30  C   UNL     1      -3.389  -9.070   9.836  0.00  0.00    +0.004 A 
ATOM     31  C   UNL     1      -4.784 -10.847   8.978  0.00  0.00    +0.004 A 
ATOM     32  C   UNL     1      -4.342  -9.524   8.924  0.00  0.00    +0.000 A 
ENDBRANCH   4  26
ENDBRANCH  20   4
ENDBRANCH  18  20
ENDBRANCH  13  15
ENDBRANCH   9  13
BRANCH   8  14
ATOM     14  C   UNL     1      -7.429  -9.816  17.190  0.00  0.00    +0.099 C 
BRANCH  14  16
ATOM      2  O   UNL     1      -9.400 -10.268  15.861  0.00  0.00    -0.276 OA
ATOM      6  N   UNL     1      -9.639  -9.322  17.969  0.00  0.00    -0.311 N 
ATOM     16  C   UNL     1      -8.916  -9.841  16.905  0.00  0.00    +0.214 C 
ATOM     34  H   UNL     1      -9.142  -8.975  18.785  0.00  0.00    +0.149 HD
BRANCH   6  19
ATOM     19  C   UNL     1     -11.080  -9.221  17.970  0.00  0.00    +0.139 C 
BRANCH  19  21
ATOM      1  F   UNL     1     -12.911  -5.146  14.542  0.00  0.00    -0.205 F 
ATOM     21  C   UNL     1     -11.568  -8.134  17.056  0.00  0.00    -0.030 A 
ATOM     22  C   UNL     1     -10.792  -6.992  16.853  0.00  0.00    +0.008 A 
ATOM     23  C   UNL     1     -12.797  -8.266  16.410  0.00  0.00    +0.008 A 
ATOM     24  C   UNL     1     -11.246  -5.983  16.005  0.00  0.00    +0.038 A 
ATOM     25  C   UNL     1     -13.251  -7.256  15.561  0.00  0.00    +0.038 A 
ATOM     27  C   UNL     1     -12.475  -6.114  15.359  0.00  0.00    +0.123 A 
ENDBRANCH  19  21
ENDBRANCH   6  19
ENDBRANCH  14  16
ENDBRANCH   8  14
TORSDOF 9
ENDMDL
MODEL 3
REMARK VINA RESULT:      -6.8     28.897     32.282
REMARK  Name = 26743165
REMARK  9 active torsions:
REMARK  status: ('A' for Active; 'I' for Inactive)
REMARK    1  A    between atoms: O_4  and  C_20
REMARK    2  A    between atoms: O_4  and  C_26
REMARK    3  A    between atoms: N_6  and  C_19
REMARK    4  A    between atoms: C_8  and  C_14
REMARK    5  A    between atoms: C_9  and  C_13
REMARK    6  A    between atoms: C_13  and  C_15
REMARK    7  A    between atoms: C_14  and  C_16
REMARK    8  A    between atoms: C_18  and  C_20
REMARK    9  A    between atoms: C_19  and  C_21
REMARK                            x       y       z     vdW  Elec       q    Type
REMARK                         _______ _______ _______ _____ _____    ______ ____
ROOT
ATOM      5  N   UNL     1      14.051  -7.975  30.475  0.00  0.00    -0.316 NA
ATOM      8  C   UNL     1      12.880  -5.422  31.381  0.00  0.00    +0.004 C 
ATOM      9  C   UNL     1      14.352  -5.550  30.921  0.00  0.00    +0.012 C 
ATOM     10  C   UNL     1      12.053  -6.545  30.734  0.00  0.00    +0.019 C 
ATOM     11  C   UNL     1      14.892  -6.975  31.136  0.00  0.00    +0.085 C 
ATOM     12  C   UNL     1      12.671  -7.925  30.954  0.00  0.00    +0.081 C 
ATOM     33  H   UNL     1      14.434  -8.904  30.646  0.00  0.00    +0.122 HD
ENDROOT
BRANCH   9  13
ATOM     13  C   UNL     1      15.277  -4.523  31.576  0.00  0.00    +0.064 C 
BRANCH  13  15
ATOM      3  O   UNL     1      16.975  -2.097  29.527  0.00  0.00    -0.356 OA
ATOM      7  N   UNL     1      16.165  -2.450  30.600  0.00  0.00    -0.083 NA
ATOM     15  C   UNL     1      16.086  -3.783  30.550  0.00  0.00    +0.084 A 
ATOM     17  C   UNL     1      16.819  -4.321  29.479  0.00  0.00    +0.074 A 
ATOM     18  C   UNL     1      17.358  -3.220  28.868  0.00  0.00    +0.175 A 
BRANCH  18  20
ATOM     20  C   UNL     1      18.225  -3.029  27.699  0.00  0.00    +0.306 C 
BRANCH  20   4
ATOM      4  O   UNL     1      17.716  -3.757  26.579  0.00  0.00    -0.484 OA
BRANCH   4  26
ATOM     26  C   UNL     1      17.363  -3.020  25.482  0.00  0.00    +0.121 A 
ATOM     28  C   UNL     1      16.621  -3.608  24.457  0.00  0.00    +0.045 A 
ATOM     29  C   UNL     1      17.745  -1.682  25.388  0.00  0.00    +0.045 A 
ATOM     30  C   UNL     1      16.262  -2.856  23.338  0.00  0.00    +0.004 A 
ATOM     31  C   UNL     1      17.386  -0.931  24.270  0.00  0.00    +0.004 A 
ATOM     32  C   UNL     1      16.644  -1.517  23.244  0.00  0.00    +0.000 A 
ENDBRANCH   4  26
ENDBRANCH  20   4
ENDBRANCH  18  20
ENDBRANCH  13  15
ENDBRANCH   9  13
BRANCH   8  14
ATOM     14  C   UNL     1      12.700  -5.418  32.904  0.00  0.00    +0.099 C 
BRANCH  14  16
ATOM      2  O   UNL     1      10.536  -4.346  33.054  0.00  0.00    -0.276 OA
ATOM      6  N   UNL     1      10.835  -6.450  33.994  0.00  0.00    -0.311 N 
ATOM     16  C   UNL     1      11.245  -5.316  33.308  0.00  0.00    +0.214 C 
ATOM     34  H   UNL     1      11.505  -7.193  34.171  0.00  0.00    +0.149 HD
BRANCH   6  19
ATOM     19  C   UNL     1       9.494  -6.623  34.501  0.00  0.00    +0.139 C 
BRANCH  19  21
ATOM      1  F   UNL     1       6.047  -8.838  30.638  0.00  0.00    -0.205 F 
ATOM     21  C   UNL     1       8.574  -7.214  33.472  0.00  0.00    -0.030 A 
ATOM     22  C   UNL     1       7.258  -6.763  33.371  0.00  0.00    +0.008 A 
ATOM     23  C   UNL     1       9.037  -8.213  32.616  0.00  0.00    +0.008 A 
ATOM     24  C   UNL     1       6.404  -7.312  32.415  0.00  0.00    +0.038 A 
ATOM     25  C   UNL     1       8.183  -8.763  31.659  0.00  0.00    +0.038 A 
ATOM     27  C   UNL     1       6.866  -8.312  31.558  0.00  0.00    +0.123 A 
ENDBRANCH  19  21
ENDBRANCH   6  19
ENDBRANCH  14  16
ENDBRANCH   8  14
TORSDOF 9
ENDMDL
MODEL 4
REMARK VINA RESULT:      -6.7     19.005     21.692
REMARK  Name = 26743165
REMARK  9 active torsions:
REMARK  status: ('A' for Active; 'I' for Inactive)
REMARK    1  A    between atoms: O_4  and  C_20
REMARK    2  A    between atoms: O_4  and  C_26
REMARK    3  A    between atoms: N_6  and  C_19
REMARK    4  A    between atoms: C_8  and  C_14
REMARK    5  A    between atoms: C_9  and  C_13
REMARK    6  A    between atoms: C_13  and  C_15
REMARK    7  A    between atoms: C_14  and  C_16
REMARK    8  A    between atoms: C_18  and  C_20
REMARK    9  A    between atoms: C_19  and  C_21
REMARK                            x       y       z     vdW  Elec       q    Type
REMARK                         _______ _______ _______ _____ _____    ______ ____
ROOT
ATOM      5  N   UNL     1      -6.350 -12.878  18.974  0.00  0.00    -0.316 NA
ATOM      8  C   UNL     1      -6.568 -10.993  16.715  0.00  0.00    +0.004 C 
ATOM      9  C   UNL     1      -5.207 -11.458  17.288  0.00  0.00    +0.012 C 
ATOM     10  C   UNL     1      -7.634 -12.054  17.032  0.00  0.00    +0.019 C 
ATOM     11  C   UNL     1      -5.322 -11.856  18.769  0.00  0.00    +0.085 C 
ATOM     12  C   UNL     1      -7.662 -12.429  18.513  0.00  0.00    +0.081 C 
ATOM     33  H   UNL     1      -6.402 -13.110  19.966  0.00  0.00    +0.122 HD
ENDROOT
BRANCH   9  13
ATOM     13  C   UNL     1      -4.092 -10.429  17.094  0.00  0.00    +0.064 C 
BRANCH  13  15
ATOM      3  O   UNL     1      -1.203 -11.207  15.091  0.00  0.00    -0.356 OA
ATOM      7  N   UNL     1      -1.806 -10.694  16.234  0.00  0.00    -0.083 NA
ATOM     15  C   UNL     1      -3.116 -10.872  16.043  0.00  0.00    +0.084 A 
ATOM     17  C   UNL     1      -3.397 -11.489  14.811  0.00  0.00    +0.074 A 
ATOM     18  C   UNL     1      -2.161 -11.678  14.253  0.00  0.00    +0.175 A 
BRANCH  18  20
ATOM     20  C   UNL     1      -1.695 -12.260  12.989  0.00  0.00    +0.306 C 
BRANCH  20   4
ATOM      4  O   UNL     1      -2.802 -12.498  12.115  0.00  0.00    -0.484 OA
BRANCH   4  26
ATOM     26  C   UNL     1      -3.118 -11.493  11.244  0.00  0.00    +0.121 A 
ATOM     28  C   UNL     1      -2.451 -10.270  11.320  0.00  0.00    +0.045 A 
ATOM     29  C   UNL     1      -4.109 -11.689  10.282  0.00  0.00    +0.045 A 
ATOM     30  C   UNL     1      -2.775  -9.244  10.432  0.00  0.00    +0.004 A 
ATOM     31  C   UNL     1      -4.432 -10.663   9.394  0.00  0.00    +0.004 A 
ATOM     32  C   UNL     1      -3.765  -9.440   9.469  0.00  0.00    +0.000 A 
ENDBRANCH   4  26
ENDBRANCH  20   4
ENDBRANCH  18  20
ENDBRANCH  13  15
ENDBRANCH   9  13
BRANCH   8  14
ATOM     14  C   UNL     1      -7.011  -9.609  17.204  0.00  0.00    +0.099 C 
BRANCH  14  16
ATOM      2  O   UNL     1      -8.693  -9.251  15.502  0.00  0.00    -0.276 OA
ATOM      6  N   UNL     1      -9.227  -8.871  17.732  0.00  0.00    -0.311 N 
ATOM     16  C   UNL     1      -8.384  -9.233  16.691  0.00  0.00    +0.214 C 
ATOM     34  H   UNL     1      -8.869  -8.871  18.683  0.00  0.00    +0.149 HD
BRANCH   6  19
ATOM     19  C   UNL     1     -10.598  -8.463  17.531  0.00  0.00    +0.139 C 
BRANCH  19  21
ATOM      1  F   UNL     1     -14.186 -11.544  20.587  0.00  0.00    -0.205 F 
ATOM     21  C   UNL     1     -11.555  -9.284  18.346  0.00  0.00    -0.030 A 
ATOM     22  C   UNL     1     -12.895  -9.374  17.968  0.00  0.00    +0.008 A 
ATOM     23  C   UNL     1     -11.104  -9.957  19.482  0.00  0.00    +0.008 A 
ATOM     24  C   UNL     1     -13.783 -10.137  18.724  0.00  0.00    +0.038 A 
ATOM     25  C   UNL     1     -11.993 -10.721  20.239  0.00  0.00    +0.038 A 
ATOM     27  C   UNL     1     -13.333 -10.810  19.860  0.00  0.00    +0.123 A 
ENDBRANCH  19  21
ENDBRANCH   6  19
ENDBRANCH  14  16
ENDBRANCH   8  14
TORSDOF 9
ENDMDL
MODEL 5
REMARK VINA RESULT:      -6.7     19.823     21.472
REMARK  Name = 26743165
REMARK  9 active torsions:
REMARK  status: ('A' for Active; 'I' for Inactive)
REMARK    1  A    between atoms: O_4  and  C_20
REMARK    2  A    between atoms: O_4  and  C_26
REMARK    3  A    between atoms: N_6  and  C_19
REMARK    4  A    between atoms: C_8  and  C_14
REMARK    5  A    between atoms: C_9  and  C_13
REMARK    6  A    between atoms: C_13  and  C_15
REMARK    7  A    between atoms: C_14  and  C_16
REMARK    8  A    between atoms: C_18  and  C_20
REMARK    9  A    between atoms: C_19  and  C_21
REMARK                            x       y       z     vdW  Elec       q    Type
REMARK                         _______ _______ _______ _____ _____    ______ ____
ROOT
ATOM      5  N   UNL     1      -4.067 -12.841   8.548  0.00  0.00    -0.316 NA
ATOM      8  C   UNL     1      -5.028 -10.089   8.096  0.00  0.00    +0.004 C 
ATOM      9  C   UNL     1      -4.108 -10.469   9.280  0.00  0.00    +0.012 C 
ATOM     10  C   UNL     1      -4.836 -11.110   6.963  0.00  0.00    +0.019 C 
ATOM     11  C   UNL     1      -4.281 -11.943   9.684  0.00  0.00    +0.085 C 
ATOM     12  C   UNL     1      -4.982 -12.552   7.446  0.00  0.00    +0.081 C 
ATOM     33  H   UNL     1      -4.198 -13.806   8.851  0.00  0.00    +0.122 HD
ENDROOT
BRANCH   9  13
ATOM     13  C   UNL     1      -4.285  -9.556  10.496  0.00  0.00    +0.064 C 
BRANCH  13  15
ATOM      3  O   UNL     1      -1.790 -10.608  12.869  0.00  0.00    -0.356 OA
ATOM      7  N   UNL     1      -2.177 -10.096  11.635  0.00  0.00    -0.083 NA
ATOM     15  C   UNL     1      -3.512 -10.064  11.678  0.00  0.00    +0.084 A 
ATOM     17  C   UNL     1      -4.019 -10.538  12.900  0.00  0.00    +0.074 A 
ATOM     18  C   UNL     1      -2.896 -10.867  13.612  0.00  0.00    +0.175 A 
BRANCH  18  20
ATOM     20  C   UNL     1      -2.668 -11.417  14.954  0.00  0.00    +0.306 C 
BRANCH  20   4
ATOM      4  O   UNL     1      -2.892 -10.412  15.946  0.00  0.00    -0.484 OA
BRANCH   4  26
ATOM     26  C   UNL     1      -3.989 -10.578  16.745  0.00  0.00    +0.121 A 
ATOM     28  C   UNL     1      -5.190  -9.946  16.419  0.00  0.00    +0.045 A 
ATOM     29  C   UNL     1      -3.908 -11.376  17.885  0.00  0.00    +0.045 A 
ATOM     30  C   UNL     1      -6.310 -10.116  17.234  0.00  0.00    +0.004 A 
ATOM     31  C   UNL     1      -5.027 -11.546  18.700  0.00  0.00    +0.004 A 
ATOM     32  C   UNL     1      -6.229 -10.915  18.375  0.00  0.00    +0.000 A 
ENDBRANCH   4  26
ENDBRANCH  20   4
ENDBRANCH  18  20
ENDBRANCH  13  15
ENDBRANCH   9  13
BRANCH   8  14
ATOM     14  C   UNL     1      -6.510  -9.964   8.473  0.00  0.00    +0.099 C 
BRANCH  14  16
ATOM      2  O   UNL     1      -7.679  -9.117   6.531  0.00  0.00    -0.276 OA
ATOM      6  N   UNL     1      -7.284  -7.702   8.331  0.00  0.00    -0.311 N 
ATOM     16  C   UNL     1      -7.222  -8.910   7.652  0.00  0.00    +0.214 C 
ATOM     34  H   UNL     1      -6.858  -7.627   9.250  0.00  0.00    +0.149 HD
BRANCH   6  19
ATOM     19  C   UNL     1      -7.907  -6.519   7.783  0.00  0.00    +0.139 C 
BRANCH  19  21
ATOM      1  F   UNL     1     -12.745  -5.282  10.383  0.00  0.00    -0.205 F 
ATOM     21  C   UNL     1      -9.197  -6.190   8.476  0.00  0.00    -0.030 A 
ATOM     22  C   UNL     1     -10.000  -7.214   8.981  0.00  0.00    +0.008 A 
ATOM     23  C   UNL     1      -9.593  -4.860   8.616  0.00  0.00    +0.008 A 
ATOM     24  C   UNL     1     -11.198  -6.908   9.624  0.00  0.00    +0.038 A 
ATOM     25  C   UNL     1     -10.792  -4.553   9.260  0.00  0.00    +0.038 A 
ATOM     27  C   UNL     1     -11.595  -5.578   9.764  0.00  0.00    +0.123 A 
ENDBRANCH  19  21
ENDBRANCH   6  19
ENDBRANCH  14  16
ENDBRANCH   8  14
TORSDOF 9
ENDMDL
MODEL 6
REMARK VINA RESULT:      -6.7     20.398     22.195
REMARK  Name = 26743165
REMARK  9 active torsions:
REMARK  status: ('A' for Active; 'I' for Inactive)
REMARK    1  A    between atoms: O_4  and  C_20
REMARK    2  A    between atoms: O_4  and  C_26
REMARK    3  A    between atoms: N_6  and  C_19
REMARK    4  A    between atoms: C_8  and  C_14
REMARK    5  A    between atoms: C_9  and  C_13
REMARK    6  A    between atoms: C_13  and  C_15
REMARK    7  A    between atoms: C_14  and  C_16
REMARK    8  A    between atoms: C_18  and  C_20
REMARK    9  A    between atoms: C_19  and  C_21
REMARK                            x       y       z     vdW  Elec       q    Type
REMARK                         _______ _______ _______ _____ _____    ______ ____
ROOT
ATOM      5  N   UNL     1      -6.896 -12.630  19.418  0.00  0.00    -0.316 NA
ATOM      8  C   UNL     1      -6.697 -11.531  16.687  0.00  0.00    +0.004 C 
ATOM      9  C   UNL     1      -5.471 -11.680  17.619  0.00  0.00    +0.012 C 
ATOM     10  C   UNL     1      -7.776 -12.540  17.112  0.00  0.00    +0.019 C 
ATOM     11  C   UNL     1      -5.876 -11.627  19.102  0.00  0.00    +0.085 C 
ATOM     12  C   UNL     1      -8.097 -12.458  18.603  0.00  0.00    +0.081 C 
ATOM     33  H   UNL     1      -7.144 -12.559  20.404  0.00  0.00    +0.122 HD
ENDROOT
BRANCH   9  13
ATOM     13  C   UNL     1      -4.369 -10.659  17.329  0.00  0.00    +0.064 C 
BRANCH  13  15
ATOM      3  O   UNL     1      -1.508 -11.430  15.283  0.00  0.00    -0.356 OA
ATOM      7  N   UNL     1      -2.126 -10.757  16.331  0.00  0.00    -0.083 NA
ATOM     15  C   UNL     1      -3.392 -11.184  16.316  0.00  0.00    +0.084 A 
ATOM     17  C   UNL     1      -3.629 -12.118  15.293  0.00  0.00    +0.074 A 
ATOM     18  C   UNL     1      -2.413 -12.237  14.674  0.00  0.00    +0.175 A 
BRANCH  18  20
ATOM     20  C   UNL     1      -1.925 -13.028  13.538  0.00  0.00    +0.306 C 
BRANCH  20   4
ATOM      4  O   UNL     1      -2.833 -14.094  13.248  0.00  0.00    -0.484 OA
BRANCH   4  26
ATOM     26  C   UNL     1      -3.779 -13.846  12.293  0.00  0.00    +0.121 A 
ATOM     28  C   UNL     1      -3.390 -13.485  11.003  0.00  0.00    +0.045 A 
ATOM     29  C   UNL     1      -5.134 -13.952  12.609  0.00  0.00    +0.045 A 
ATOM     30  C   UNL     1      -4.355 -13.232  10.029  0.00  0.00    +0.004 A 
ATOM     31  C   UNL     1      -6.099 -13.699  11.635  0.00  0.00    +0.004 A 
ATOM     32  C   UNL     1      -5.710 -13.339  10.344  0.00  0.00    +0.000 A 
ENDBRANCH   4  26
ENDBRANCH  20   4
ENDBRANCH  18  20
ENDBRANCH  13  15
ENDBRANCH   9  13
BRANCH   8  14
ATOM     14  C   UNL     1      -7.270 -10.110  16.631  0.00  0.00    +0.099 C 
BRANCH  14  16
ATOM      2  O   UNL     1      -8.882  -9.170  15.090  0.00  0.00    -0.276 OA
ATOM      6  N   UNL     1      -6.985 -10.221  14.256  0.00  0.00    -0.311 N 
ATOM     16  C   UNL     1      -7.824  -9.769  15.264  0.00  0.00    +0.214 C 
ATOM     34  H   UNL     1      -6.138 -10.725  14.504  0.00  0.00    +0.149 HD
BRANCH   6  19
ATOM     19  C   UNL     1      -7.267 -10.036  12.852  0.00  0.00    +0.139 C 
BRANCH  19  21
ATOM      1  F   UNL     1      -2.614  -8.889   9.896  0.00  0.00    -0.205 F 
ATOM     21  C   UNL     1      -6.027  -9.730  12.063  0.00  0.00    -0.030 A 
ATOM     22  C   UNL     1      -6.092  -8.873  10.964  0.00  0.00    +0.008 A 
ATOM     23  C   UNL     1      -4.809 -10.303  12.430  0.00  0.00    +0.008 A 
ATOM     24  C   UNL     1      -4.940  -8.590  10.232  0.00  0.00    +0.038 A 
ATOM     25  C   UNL     1      -3.656 -10.020  11.697  0.00  0.00    +0.038 A 
ATOM     27  C   UNL     1      -3.722  -9.163  10.598  0.00  0.00    +0.123 A 
ENDBRANCH  19  21
ENDBRANCH   6  19
ENDBRANCH  14  16
ENDBRANCH   8  14
TORSDOF 9
ENDMDL
MODEL 7
REMARK VINA RESULT:      -6.6     18.683     20.719
REMARK  Name = 26743165
REMARK  9 active torsions:
REMARK  status: ('A' for Active; 'I' for Inactive)
REMARK    1  A    between atoms: O_4  and  C_20
REMARK    2  A    between atoms: O_4  and  C_26
REMARK    3  A    between atoms: N_6  and  C_19
REMARK    4  A    between atoms: C_8  and  C_14
REMARK    5  A    between atoms: C_9  and  C_13
REMARK    6  A    between atoms: C_13  and  C_15
REMARK    7  A    between atoms: C_14  and  C_16
REMARK    8  A    between atoms: C_18  and  C_20
REMARK    9  A    between atoms: C_19  and  C_21
REMARK                            x       y       z     vdW  Elec       q    Type
REMARK                         _______ _______ _______ _____ _____    ______ ____
ROOT
ATOM      5  N   UNL     1     -12.240  -8.720  15.594  0.00  0.00    -0.316 NA
ATOM      8  C   UNL     1      -9.955  -9.397  17.334  0.00  0.00    +0.004 C 
ATOM      9  C   UNL     1     -10.150 -10.019  15.930  0.00  0.00    +0.012 C 
ATOM     10  C   UNL     1     -10.684  -8.045  17.389  0.00  0.00    +0.019 C 
ATOM     11  C   UNL     1     -11.633 -10.051  15.524  0.00  0.00    +0.085 C 
ATOM     12  C   UNL     1     -12.139  -8.147  16.934  0.00  0.00    +0.081 C 
ATOM     33  H   UNL     1     -13.222  -8.783  15.327  0.00  0.00    +0.122 HD
ENDROOT
BRANCH   9  13
ATOM     13  C   UNL     1      -9.528 -11.410  15.798  0.00  0.00    +0.064 C 
BRANCH  13  15
ATOM      3  O   UNL     1      -7.001 -10.658  13.347  0.00  0.00    -0.356 OA
ATOM      7  N   UNL     1      -8.155 -10.351  14.058  0.00  0.00    -0.083 NA
ATOM     15  C   UNL     1      -8.351 -11.396  14.866  0.00  0.00    +0.084 A 
ATOM     17  C   UNL     1      -7.362 -12.383  14.713  0.00  0.00    +0.074 A 
ATOM     18  C   UNL     1      -6.538 -11.870  13.746  0.00  0.00    +0.175 A 
BRANCH  18  20
ATOM     20  C   UNL     1      -5.315 -12.351  13.092  0.00  0.00    +0.306 C 
BRANCH  20   4
ATOM      4  O   UNL     1      -5.217 -11.817  11.769  0.00  0.00    -0.484 OA
BRANCH   4  26
ATOM     26  C   UNL     1      -4.133 -11.025  11.511  0.00  0.00    +0.121 A 
ATOM     28  C   UNL     1      -4.194 -10.067  10.498  0.00  0.00    +0.045 A 
ATOM     29  C   UNL     1      -2.965 -11.175  12.259  0.00  0.00    +0.045 A 
ATOM     30  C   UNL     1      -3.088  -9.260  10.235  0.00  0.00    +0.004 A 
ATOM     31  C   UNL     1      -1.859 -10.368  11.995  0.00  0.00    +0.004 A 
ATOM     32  C   UNL     1      -1.920  -9.410  10.983  0.00  0.00    +0.000 A 
ENDBRANCH   4  26
ENDBRANCH  20   4
ENDBRANCH  18  20
ENDBRANCH  13  15
ENDBRANCH   9  13
BRANCH   8  14
ATOM     14  C   UNL     1     -10.402 -10.306  18.486  0.00  0.00    +0.099 C 
BRANCH  14  16
ATOM      2  O   UNL     1      -9.342 -11.659  20.189  0.00  0.00    -0.276 OA
ATOM      6  N   UNL     1      -8.035 -10.286  18.846  0.00  0.00    -0.311 N 
ATOM     16  C   UNL     1      -9.230 -10.841  19.280  0.00  0.00    +0.214 C 
ATOM     34  H   UNL     1      -8.049  -9.601  18.096  0.00  0.00    +0.149 HD
BRANCH   6  19
ATOM     19  C   UNL     1      -6.754 -10.615  19.428  0.00  0.00    +0.139 C 
BRANCH  19  21
ATOM      1  F   UNL     1      -2.667 -10.836  15.562  0.00  0.00    -0.205 F 
ATOM     21  C   UNL     1      -5.665 -10.674  18.397  0.00  0.00    -0.030 A 
ATOM     22  C   UNL     1      -5.812  -9.996  17.186  0.00  0.00    +0.008 A 
ATOM     23  C   UNL     1      -4.505 -11.407  18.650  0.00  0.00    +0.008 A 
ATOM     24  C   UNL     1      -4.800 -10.051  16.229  0.00  0.00    +0.038 A 
ATOM     25  C   UNL     1      -3.492 -11.462  17.692  0.00  0.00    +0.038 A 
ATOM     27  C   UNL     1      -3.640 -10.784  16.481  0.00  0.00    +0.123 A 
ENDBRANCH  19  21
ENDBRANCH   6  19
ENDBRANCH  14  16
ENDBRANCH   8  14
TORSDOF 9
ENDMDL
MODEL 8
REMARK VINA RESULT:      -6.6     30.038     33.991
REMARK  Name = 26743165
REMARK  9 active torsions:
REMARK  status: ('A' for Active; 'I' for Inactive)
REMARK    1  A    between atoms: O_4  and  C_20
REMARK    2  A    between atoms: O_4  and  C_26
REMARK    3  A    between atoms: N_6  and  C_19
REMARK    4  A    between atoms: C_8  and  C_14
REMARK    5  A    between atoms: C_9  and  C_13
REMARK    6  A    between atoms: C_13  and  C_15
REMARK    7  A    between atoms: C_14  and  C_16
REMARK    8  A    between atoms: C_18  and  C_20
REMARK    9  A    between atoms: C_19  and  C_21
REMARK                            x       y       z     vdW  Elec       q    Type
REMARK                         _______ _______ _______ _____ _____    ______ ____
ROOT
ATOM      5  N   UNL     1       9.848  10.418   7.499  0.00  0.00    -0.316 NA
ATOM      8  C   UNL     1      11.986   8.946   6.096  0.00  0.00    +0.004 C 
ATOM      9  C   UNL     1      10.721   8.252   6.655  0.00  0.00    +0.012 C 
ATOM     10  C   UNL     1      11.670  10.427   5.832  0.00  0.00    +0.019 C 
ATOM     11  C   UNL     1      10.129   9.023   7.846  0.00  0.00    +0.085 C 
ATOM     12  C   UNL     1      11.049  11.116   7.045  0.00  0.00    +0.081 C 
ATOM     33  H   UNL     1       9.466  10.898   8.314  0.00  0.00    +0.122 HD
ENDROOT
BRANCH   9  13
ATOM     13  C   UNL     1      10.956   6.786   7.028  0.00  0.00    +0.064 C 
BRANCH  13  15
ATOM      3  O   UNL     1       9.940   4.203   4.736  0.00  0.00    -0.356 OA
ATOM      7  N   UNL     1       9.938   4.807   5.988  0.00  0.00    -0.083 NA
ATOM     15  C   UNL     1      10.724   5.879   5.854  0.00  0.00    +0.084 A 
ATOM     17  C   UNL     1      11.244   6.003   4.554  0.00  0.00    +0.074 A 
ATOM     18  C   UNL     1      10.720   4.924   3.892  0.00  0.00    +0.175 A 
BRANCH  18  20
ATOM     20  C   UNL     1      10.834   4.423   2.517  0.00  0.00    +0.306 C 
BRANCH  20   4
ATOM      4  O   UNL     1      11.868   3.439   2.431  0.00  0.00    -0.484 OA
BRANCH   4  26
ATOM     26  C   UNL     1      12.791   3.609   1.438  0.00  0.00    +0.121 A 
ATOM     28  C   UNL     1      14.153   3.589   1.741  0.00  0.00    +0.045 A 
ATOM     29  C   UNL     1      12.372   3.805   0.122  0.00  0.00    +0.045 A 
ATOM     30  C   UNL     1      15.095   3.764   0.727  0.00  0.00    +0.004 A 
ATOM     31  C   UNL     1      13.314   3.980  -0.892  0.00  0.00    +0.004 A 
ATOM     32  C   UNL     1      14.676   3.959  -0.590  0.00  0.00    +0.000 A 
ENDBRANCH   4  26
ENDBRANCH  20   4
ENDBRANCH  18  20
ENDBRANCH  13  15
ENDBRANCH   9  13
BRANCH   8  14
ATOM     14  C   UNL     1      13.223   8.802   6.991  0.00  0.00    +0.099 C 
BRANCH  14  16
ATOM      2  O   UNL     1      15.493   9.343   6.351  0.00  0.00    -0.276 OA
ATOM      6  N   UNL     1      14.378   7.621   5.258  0.00  0.00    -0.311 N 
ATOM     16  C   UNL     1      14.496   8.645   6.187  0.00  0.00    +0.214 C 
ATOM     34  H   UNL     1      13.502   7.113   5.188  0.00  0.00    +0.149 HD
BRANCH   6  19
ATOM     19  C   UNL     1      15.442   7.252   4.353  0.00  0.00    +0.139 C 
BRANCH  19  21
ATOM      1  F   UNL     1      13.801   7.456  -1.029  0.00  0.00    -0.205 F 
ATOM     21  C   UNL     1      15.004   7.305   2.918  0.00  0.00    -0.030 A 
ATOM     22  C   UNL     1      13.648   7.230   2.598  0.00  0.00    +0.008 A 
ATOM     23  C   UNL     1      15.953   7.431   1.904  0.00  0.00    +0.008 A 
ATOM     24  C   UNL     1      13.241   7.280   1.266  0.00  0.00    +0.038 A 
ATOM     25  C   UNL     1      15.547   7.482   0.570  0.00  0.00    +0.038 A 
ATOM     27  C   UNL     1      14.190   7.406   0.251  0.00  0.00    +0.123 A 
ENDBRANCH  19  21
ENDBRANCH   6  19
ENDBRANCH  14  16
ENDBRANCH   8  14
TORSDOF 9
ENDMDL
MODEL 9
REMARK VINA RESULT:      -6.5     18.111     20.410
REMARK  Name = 26743165
REMARK  9 active torsions:
REMARK  status: ('A' for Active; 'I' for Inactive)
REMARK    1  A    between atoms: O_4  and  C_20
REMARK    2  A    between atoms: O_4  and  C_26
REMARK    3  A    between atoms: N_6  and  C_19
REMARK    4  A    between atoms: C_8  and  C_14
REMARK    5  A    between atoms: C_9  and  C_13
REMARK    6  A    between atoms: C_13  and  C_15
REMARK    7  A    between atoms: C_14  and  C_16
REMARK    8  A    between atoms: C_18  and  C_20
REMARK    9  A    between atoms: C_19  and  C_21
REMARK                            x       y       z     vdW  Elec       q    Type
REMARK                         _______ _______ _______ _____ _____    ______ ____
ROOT
ATOM      5  N   UNL     1     -13.092 -10.529  17.890  0.00  0.00    -0.316 NA
ATOM      8  C   UNL     1     -10.252 -10.515  18.690  0.00  0.00    +0.004 C 
ATOM      9  C   UNL     1     -10.706 -10.676  17.220  0.00  0.00    +0.012 C 
ATOM     10  C   UNL     1     -11.353  -9.785  19.477  0.00  0.00    +0.019 C 
ATOM     11  C   UNL     1     -12.109 -11.297  17.123  0.00  0.00    +0.085 C 
ATOM     12  C   UNL     1     -12.724 -10.433  19.301  0.00  0.00    +0.081 C 
ATOM     33  H   UNL     1     -14.006 -10.975  17.809  0.00  0.00    +0.122 HD
ENDROOT
BRANCH   9  13
ATOM     13  C   UNL     1      -9.710 -11.466  16.368  0.00  0.00    +0.064 C 
BRANCH  13  15
ATOM      3  O   UNL     1      -9.226  -9.054  13.738  0.00  0.00    -0.356 OA
ATOM      7  N   UNL     1      -9.763  -9.455  14.956  0.00  0.00    -0.083 NA
ATOM     15  C   UNL     1      -9.322 -10.704  15.133  0.00  0.00    +0.084 A 
ATOM     17  C   UNL     1      -8.511 -11.140  14.071  0.00  0.00    +0.074 A 
ATOM     18  C   UNL     1      -8.483 -10.066  13.222  0.00  0.00    +0.175 A 
BRANCH  18  20
ATOM     20  C   UNL     1      -7.838  -9.809  11.929  0.00  0.00    +0.306 C 
BRANCH  20   4
ATOM      4  O   UNL     1      -6.813  -8.822  12.072  0.00  0.00    -0.484 OA
BRANCH   4  26
ATOM     26  C   UNL     1      -5.616  -9.095  11.473  0.00  0.00    +0.121 A 
ATOM     28  C   UNL     1      -5.279  -8.470  10.272  0.00  0.00    +0.045 A 
ATOM     29  C   UNL     1      -4.731 -10.000  12.060  0.00  0.00    +0.045 A 
ATOM     30  C   UNL     1      -4.056  -8.750   9.660  0.00  0.00    +0.004 A 
ATOM     31  C   UNL     1      -3.510 -10.278  11.449  0.00  0.00    +0.004 A 
ATOM     32  C   UNL     1      -3.171  -9.654  10.248  0.00  0.00    +0.000 A 
ENDBRANCH   4  26
ENDBRANCH  20   4
ENDBRANCH  18  20
ENDBRANCH  13  15
ENDBRANCH   9  13
BRANCH   8  14
ATOM     14  C   UNL     1      -9.875 -11.834  19.374  0.00  0.00    +0.099 C 
BRANCH  14  16
ATOM      2  O   UNL     1      -7.851 -12.918  20.137  0.00  0.00    -0.276 OA
ATOM      6  N   UNL     1      -7.761 -10.711  19.416  0.00  0.00    -0.311 N 
ATOM     16  C   UNL     1      -8.397 -11.913  19.692  0.00  0.00    +0.214 C 
ATOM     34  H   UNL     1      -8.307  -9.929  19.067  0.00  0.00    +0.149 HD
BRANCH   6  19
ATOM     19  C   UNL     1      -6.348 -10.500  19.627  0.00  0.00    +0.139 C 
BRANCH  19  21
ATOM      1  F   UNL     1      -3.430 -10.794  14.821  0.00  0.00    -0.205 F 
ATOM     21  C   UNL     1      -5.569 -10.578  18.346  0.00  0.00    -0.030 A 
ATOM     22  C   UNL     1      -4.341 -11.240  18.314  0.00  0.00    +0.008 A 
ATOM     23  C   UNL     1      -6.074  -9.990  17.186  0.00  0.00    +0.008 A 
ATOM     24  C   UNL     1      -3.618 -11.312  17.125  0.00  0.00    +0.038 A 
ATOM     25  C   UNL     1      -5.351 -10.062  15.995  0.00  0.00    +0.038 A 
ATOM     27  C   UNL     1      -4.122 -10.724  15.965  0.00  0.00    +0.123 A 
ENDBRANCH  19  21
ENDBRANCH   6  19
ENDBRANCH  14  16
ENDBRANCH   8  14
TORSDOF 9
ENDMDL
MODEL 10
REMARK VINA RESULT:      -6.5     20.150     21.795
REMARK  Name = 26743165
REMARK  9 active torsions:
REMARK  status: ('A' for Active; 'I' for Inactive)
REMARK    1  A    between atoms: O_4  and  C_20
REMARK    2  A    between atoms: O_4  and  C_26
REMARK    3  A    between atoms: N_6  and  C_19
REMARK    4  A    between atoms: C_8  and  C_14
REMARK    5  A    between atoms: C_9  and  C_13
REMARK    6  A    between atoms: C_13  and  C_15
REMARK    7  A    between atoms: C_14  and  C_16
REMARK    8  A    between atoms: C_18  and  C_20
REMARK    9  A    between atoms: C_19  and  C_21
REMARK                            x       y       z     vdW  Elec       q    Type
REMARK                         _______ _______ _______ _____ _____    ______ ____
ROOT
ATOM      5  N   UNL     1      -2.655 -15.037  11.755  0.00  0.00    -0.316 NA
ATOM      8  C   UNL     1      -3.040 -13.223  14.050  0.00  0.00    +0.004 C 
ATOM      9  C   UNL     1      -3.865 -13.108  12.746  0.00  0.00    +0.012 C 
ATOM     10  C   UNL     1      -2.527 -14.665  14.193  0.00  0.00    +0.019 C 
ATOM     11  C   UNL     1      -3.092 -13.657  11.535  0.00  0.00    +0.085 C 
ATOM     12  C   UNL     1      -1.806 -15.155  12.938  0.00  0.00    +0.081 C 
ATOM     33  H   UNL     1      -2.141 -15.362  10.936  0.00  0.00    +0.122 HD
ENDROOT
BRANCH   9  13
ATOM     13  C   UNL     1      -4.355 -11.685  12.469  0.00  0.00    +0.064 C 
BRANCH  13  15
ATOM      3  O   UNL     1      -6.530 -10.179  14.911  0.00  0.00    -0.356 OA
ATOM      7  N   UNL     1      -5.333 -10.250  14.207  0.00  0.00    -0.083 NA
ATOM     15  C   UNL     1      -5.473 -11.302  13.395  0.00  0.00    +0.084 A 
ATOM     17  C   UNL     1      -6.724 -11.926  13.538  0.00  0.00    +0.074 A 
ATOM     18  C   UNL     1      -7.349 -11.181  14.503  0.00  0.00    +0.175 A 
BRANCH  18  20
ATOM     20  C   UNL     1      -8.666 -11.253  15.149  0.00  0.00    +0.306 C 
BRANCH  20   4
ATOM      4  O   UNL     1      -8.704 -10.400  16.296  0.00  0.00    -0.484 OA
BRANCH   4  26
ATOM     26  C   UNL     1      -9.546 -10.772  17.305  0.00  0.00    +0.121 A 
ATOM     28  C   UNL     1     -10.243 -11.979  17.222  0.00  0.00    +0.045 A 
ATOM     29  C   UNL     1      -9.712  -9.946  18.417  0.00  0.00    +0.045 A 
ATOM     30  C   UNL     1     -11.103 -12.359  18.253  0.00  0.00    +0.004 A 
ATOM     31  C   UNL     1     -10.572 -10.326  19.447  0.00  0.00    +0.004 A 
ATOM     32  C   UNL     1     -11.268 -11.533  19.365  0.00  0.00    +0.000 A 
ENDBRANCH   4  26
ENDBRANCH  20   4
ENDBRANCH  18  20
ENDBRANCH  13  15
ENDBRANCH   9  13
BRANCH   8  14
ATOM     14  C   UNL     1      -1.885 -12.219  14.147  0.00  0.00    +0.099 C 
BRANCH  14  16
ATOM      2  O   UNL     1      -1.190 -10.451  15.645  0.00  0.00    -0.276 OA
ATOM      6  N   UNL     1      -3.161 -11.603  16.077  0.00  0.00    -0.311 N 
ATOM     16  C   UNL     1      -2.011 -11.317  15.356  0.00  0.00    +0.214 C 
ATOM     34  H   UNL     1      -3.769 -12.355  15.765  0.00  0.00    +0.149 HD
BRANCH   6  19
ATOM     19  C   UNL     1      -3.533 -10.897  17.281  0.00  0.00    +0.139 C 
BRANCH  19  21
ATOM      1  F   UNL     1      -8.171 -13.047  19.642  0.00  0.00    -0.205 F 
ATOM     21  C   UNL     1      -4.770 -11.470  17.911  0.00  0.00    -0.030 A 
ATOM     22  C   UNL     1      -5.256 -10.937  19.105  0.00  0.00    +0.008 A 
ATOM     23  C   UNL     1      -5.432 -12.536  17.302  0.00  0.00    +0.008 A 
ATOM     24  C   UNL     1      -6.404 -11.470  19.690  0.00  0.00    +0.038 A 
ATOM     25  C   UNL     1      -6.581 -13.069  17.887  0.00  0.00    +0.038 A 
ATOM     27  C   UNL     1      -7.067 -12.536  19.081  0.00  0.00    +0.123 A 
ENDBRANCH  19  21
ENDBRANCH   6  19
ENDBRANCH  14  16
ENDBRANCH   8  14
TORSDOF 9
ENDMDL
