MODEL 1
REMARK VINA RESULT:      -7.2      0.000      0.000
REMARK  Name = 25313127
REMARK  9 active torsions:
REMARK  status: ('A' for Active; 'I' for Inactive)
REMARK    1  A    between atoms: O_5  and  C_23
REMARK    2  A    between atoms: N_8  and  C_16
REMARK    3  A    between atoms: N_9  and  C_25
REMARK    4  A    between atoms: C_10  and  C_14
REMARK    5  A    between atoms: C_11  and  C_17
REMARK    6  A    between atoms: C_14  and  C_16
REMARK    7  A    between atoms: C_17  and  C_23
REMARK    8  A    between atoms: C_20  and  C_24
REMARK    9  A    between atoms: C_32  and  C_36
REMARK                            x       y       z     vdW  Elec       q    Type
REMARK                         _______ _______ _______ _____ _____    ______ ____
ROOT
ATOM      4  O   UNL     1      10.306   4.025  -0.106  0.00  0.00    -0.270 OA
ATOM      7  N   UNL     1      12.506   3.950   0.687  0.00  0.00    -0.297 N 
ATOM     10  C   UNL     1      14.657   5.095   1.168  0.00  0.00    +0.011 C 
ATOM     11  C   UNL     1      15.252   4.426  -0.098  0.00  0.00    +0.006 C 
ATOM     12  C   UNL     1      13.506   4.238   1.724  0.00  0.00    +0.112 C 
ATOM     13  C   UNL     1      14.161   4.102  -1.132  0.00  0.00    +0.023 C 
ATOM     15  C   UNL     1      13.031   3.289  -0.506  0.00  0.00    +0.108 C 
ATOM     20  C   UNL     1      11.145   4.259   0.761  0.00  0.00    +0.247 C 
ENDROOT
BRANCH  20  24
ATOM     24  C   UNL     1      10.655   4.923   1.974  0.00  0.00    +0.037 A 
ATOM     26  C   UNL     1      10.725   4.270   3.205  0.00  0.00    +0.013 A 
ATOM     27  C   UNL     1      10.117   6.208   1.896  0.00  0.00    +0.013 A 
ATOM     30  C   UNL     1      10.258   4.902   4.357  0.00  0.00    +0.013 A 
ATOM     31  C   UNL     1       9.651   6.840   3.049  0.00  0.00    +0.013 A 
ATOM     32  C   UNL     1       9.721   6.187   4.279  0.00  0.00    +0.055 A 
BRANCH  32  36
ATOM      1  F   UNL     1       9.465   6.161   6.658  0.00  0.00    -0.166 F 
ATOM      2  F   UNL     1       7.872   7.066   5.487  0.00  0.00    -0.166 F 
ATOM      3  F   UNL     1       9.772   8.094   5.723  0.00  0.00    -0.166 F 
ATOM     36  C   UNL     1       9.221   6.862   5.511  0.00  0.00    +0.417 C 
ENDBRANCH  32  36
ENDBRANCH  20  24
BRANCH  10  14
ATOM     14  C   UNL     1      14.187   6.538   0.945  0.00  0.00    +0.020 C 
BRANCH  14  16
ATOM     16  C   UNL     1      13.670   7.147   2.242  0.00  0.00    +0.085 C 
BRANCH  16   8
ATOM      8  N   UNL     1      14.767   7.798   2.956  0.00  0.00    -0.299 NA
ATOM      9  N   UNL     1      17.298   7.943   4.273  0.00  0.00    -0.327 N 
ATOM     18  C   UNL     1      16.013   7.701   2.185  0.00  0.00    +0.103 C 
ATOM     19  C   UNL     1      14.951   7.191   4.281  0.00  0.00    +0.103 C 
ATOM     21  C   UNL     1      17.158   8.427   2.895  0.00  0.00    +0.120 C 
ATOM     22  C   UNL     1      16.059   7.901   5.061  0.00  0.00    +0.120 C 
BRANCH   9  25
ATOM     25  C   UNL     1      18.505   8.132   4.955  0.00  0.00    +0.030 A 
ATOM     28  C   UNL     1      18.516   8.791   6.185  0.00  0.00    +0.023 A 
ATOM     29  C   UNL     1      19.697   7.659   4.408  0.00  0.00    +0.023 A 
ATOM     33  C   UNL     1      19.718   8.976   6.867  0.00  0.00    +0.002 A 
ATOM     34  C   UNL     1      20.900   7.844   5.090  0.00  0.00    +0.002 A 
ATOM     35  C   UNL     1      20.910   8.502   6.318  0.00  0.00    +0.000 A 
ENDBRANCH   9  25
ENDBRANCH  16   8
ENDBRANCH  14  16
ENDBRANCH  10  14
BRANCH  11  17
ATOM     17  C   UNL     1      16.376   5.240  -0.737  0.00  0.00    +0.124 C 
BRANCH  17  23
ATOM      6  O   UNL     1      17.499   4.540  -2.784  0.00  0.00    -0.251 OA
ATOM     23  C   UNL     1      17.263   4.383  -1.596  0.00  0.00    +0.305 C 
BRANCH  23   5
ATOM      5  O   UNL     1      17.787   3.376  -0.849  0.00  0.00    -0.481 OA
ATOM     37  H   UNL     1      17.613   3.503   0.108  0.00  0.00    +0.295 HD
ENDBRANCH  23   5
ENDBRANCH  17  23
ENDBRANCH  11  17
TORSDOF 9
ENDMDL
MODEL 2
REMARK VINA RESULT:      -7.1      5.270      7.282
REMARK  Name = 25313127
REMARK  9 active torsions:
REMARK  status: ('A' for Active; 'I' for Inactive)
REMARK    1  A    between atoms: O_5  and  C_23
REMARK    2  A    between atoms: N_8  and  C_16
REMARK    3  A    between atoms: N_9  and  C_25
REMARK    4  A    between atoms: C_10  and  C_14
REMARK    5  A    between atoms: C_11  and  C_17
REMARK    6  A    between atoms: C_14  and  C_16
REMARK    7  A    between atoms: C_17  and  C_23
REMARK    8  A    between atoms: C_20  and  C_24
REMARK    9  A    between atoms: C_32  and  C_36
REMARK                            x       y       z     vdW  Elec       q    Type
REMARK                         _______ _______ _______ _____ _____    ______ ____
ROOT
ATOM      4  O   UNL     1      11.741   5.527  -5.199  0.00  0.00    -0.270 OA
ATOM      7  N   UNL     1      11.789   4.323  -3.194  0.00  0.00    -0.297 N 
ATOM     10  C   UNL     1      11.892   4.284  -0.712  0.00  0.00    +0.011 C 
ATOM     11  C   UNL     1      13.382   3.871  -0.819  0.00  0.00    +0.006 C 
ATOM     12  C   UNL     1      11.131   3.837  -1.974  0.00  0.00    +0.112 C 
ATOM     13  C   UNL     1      14.012   4.362  -2.133  0.00  0.00    +0.023 C 
ATOM     15  C   UNL     1      13.187   3.922  -3.339  0.00  0.00    +0.108 C 
ATOM     20  C   UNL     1      11.193   5.113  -4.180  0.00  0.00    +0.247 C 
ENDROOT
BRANCH  20  24
ATOM     24  C   UNL     1       9.788   5.497  -3.999  0.00  0.00    +0.037 A 
ATOM     26  C   UNL     1       9.461   6.599  -3.210  0.00  0.00    +0.013 A 
ATOM     27  C   UNL     1       8.779   4.758  -4.617  0.00  0.00    +0.013 A 
ATOM     30  C   UNL     1       8.125   6.962  -3.038  0.00  0.00    +0.013 A 
ATOM     31  C   UNL     1       7.443   5.121  -4.446  0.00  0.00    +0.013 A 
ATOM     32  C   UNL     1       7.116   6.223  -3.656  0.00  0.00    +0.055 A 
BRANCH  32  36
ATOM      1  F   UNL     1       4.816   5.845  -4.192  0.00  0.00    -0.166 F 
ATOM      2  F   UNL     1       5.442   7.899  -3.852  0.00  0.00    -0.166 F 
ATOM      3  F   UNL     1       5.259   6.522  -2.180  0.00  0.00    -0.166 F 
ATOM     36  C   UNL     1       5.689   6.611  -3.473  0.00  0.00    +0.417 C 
ENDBRANCH  32  36
ENDBRANCH  20  24
BRANCH  10  14
ATOM     14  C   UNL     1      11.678   5.783  -0.465  0.00  0.00    +0.020 C 
BRANCH  14  16
ATOM     16  C   UNL     1      10.359   6.032   0.254  0.00  0.00    +0.085 C 
BRANCH  16   8
ATOM      8  N   UNL     1      10.591   6.133   1.694  0.00  0.00    -0.299 NA
ATOM      9  N   UNL     1       9.876   6.077   4.460  0.00  0.00    -0.327 N 
ATOM     18  C   UNL     1      10.279   4.860   2.356  0.00  0.00    +0.103 C 
ATOM     19  C   UNL     1       9.775   7.209   2.272  0.00  0.00    +0.103 C 
ATOM     21  C   UNL     1      10.569   4.934   3.857  0.00  0.00    +0.120 C 
ATOM     22  C   UNL     1      10.050   7.362   3.769  0.00  0.00    +0.120 C 
BRANCH   9  25
ATOM     25  C   UNL     1       9.641   6.098   5.839  0.00  0.00    +0.030 A 
ATOM     28  C   UNL     1       9.107   7.239   6.438  0.00  0.00    +0.023 A 
ATOM     29  C   UNL     1       9.939   4.978   6.614  0.00  0.00    +0.023 A 
ATOM     33  C   UNL     1       8.870   7.259   7.813  0.00  0.00    +0.002 A 
ATOM     34  C   UNL     1       9.702   4.998   7.989  0.00  0.00    +0.002 A 
ATOM     35  C   UNL     1       9.168   6.138   8.587  0.00  0.00    +0.000 A 
ENDBRANCH   9  25
ENDBRANCH  16   8
ENDBRANCH  14  16
ENDBRANCH  10  14
BRANCH  11  17
ATOM     17  C   UNL     1      14.218   4.319   0.380  0.00  0.00    +0.124 C 
BRANCH  17  23
ATOM      6  O   UNL     1      13.115   2.727   1.859  0.00  0.00    -0.251 OA
ATOM     23  C   UNL     1      14.111   3.351   1.524  0.00  0.00    +0.305 C 
BRANCH  23   5
ATOM      5  O   UNL     1      15.308   3.258   2.159  0.00  0.00    -0.481 OA
ATOM     37  H   UNL     1      15.766   2.415   1.952  0.00  0.00    +0.295 HD
ENDBRANCH  23   5
ENDBRANCH  17  23
ENDBRANCH  11  17
TORSDOF 9
ENDMDL
MODEL 3
REMARK VINA RESULT:      -7.1     26.300     30.244
REMARK  Name = 25313127
REMARK  9 active torsions:
REMARK  status: ('A' for Active; 'I' for Inactive)
REMARK    1  A    between atoms: O_5  and  C_23
REMARK    2  A    between atoms: N_8  and  C_16
REMARK    3  A    between atoms: N_9  and  C_25
REMARK    4  A    between atoms: C_10  and  C_14
REMARK    5  A    between atoms: C_11  and  C_17
REMARK    6  A    between atoms: C_14  and  C_16
REMARK    7  A    between atoms: C_17  and  C_23
REMARK    8  A    between atoms: C_20  and  C_24
REMARK    9  A    between atoms: C_32  and  C_36
REMARK                            x       y       z     vdW  Elec       q    Type
REMARK                         _______ _______ _______ _____ _____    ______ ____
ROOT
ATOM      4  O   UNL     1      -3.016 -14.094  14.471  0.00  0.00    -0.270 OA
ATOM      7  N   UNL     1      -3.255 -11.969  13.523  0.00  0.00    -0.297 N 
ATOM     10  C   UNL     1      -4.681 -10.246  12.441  0.00  0.00    +0.011 C 
ATOM     11  C   UNL     1      -4.024 -10.609  11.085  0.00  0.00    +0.006 C 
ATOM     12  C   UNL     1      -3.719 -10.577  13.596  0.00  0.00    +0.112 C 
ATOM     13  C   UNL     1      -3.513 -12.060  11.075  0.00  0.00    +0.023 C 
ATOM     15  C   UNL     1      -2.601 -12.333  12.268  0.00  0.00    +0.108 C 
ATOM     20  C   UNL     1      -3.397 -12.927  14.530  0.00  0.00    +0.247 C 
ENDROOT
BRANCH  20  24
ATOM     24  C   UNL     1      -4.059 -12.525  15.776  0.00  0.00    +0.037 A 
ATOM     26  C   UNL     1      -3.545 -11.472  16.531  0.00  0.00    +0.013 A 
ATOM     27  C   UNL     1      -5.204 -13.197  16.205  0.00  0.00    +0.013 A 
ATOM     30  C   UNL     1      -4.175 -11.091  17.716  0.00  0.00    +0.013 A 
ATOM     31  C   UNL     1      -5.835 -12.815  17.389  0.00  0.00    +0.013 A 
ATOM     32  C   UNL     1      -5.320 -11.762  18.145  0.00  0.00    +0.055 A 
BRANCH  32  36
ATOM      1  F   UNL     1      -7.071 -12.130  19.732  0.00  0.00    -0.166 F 
ATOM      2  F   UNL     1      -6.464 -10.075  19.367  0.00  0.00    -0.166 F 
ATOM      3  F   UNL     1      -5.178 -11.407  20.506  0.00  0.00    -0.166 F 
ATOM     36  C   UNL     1      -5.993 -11.355  19.412  0.00  0.00    +0.417 C 
ENDBRANCH  32  36
ENDBRANCH  20  24
BRANCH  10  14
ATOM     14  C   UNL     1      -6.041 -10.917  12.672  0.00  0.00    +0.020 C 
BRANCH  14  16
ATOM     16  C   UNL     1      -7.172  -9.903  12.567  0.00  0.00    +0.085 C 
BRANCH  16   8
ATOM      8  N   UNL     1      -7.928  -9.872  13.819  0.00  0.00    -0.299 NA
ATOM      9  N   UNL     1      -8.843 -10.864  16.337  0.00  0.00    -0.327 N 
ATOM     18  C   UNL     1      -7.019  -9.926  14.970  0.00  0.00    +0.103 C 
ATOM     19  C   UNL     1      -8.874 -10.994  13.875  0.00  0.00    +0.103 C 
ATOM     21  C   UNL     1      -7.795  -9.839  16.287  0.00  0.00    +0.120 C 
ATOM     22  C   UNL     1      -9.712 -10.941  15.155  0.00  0.00    +0.120 C 
BRANCH   9  25
ATOM     25  C   UNL     1      -9.375 -11.253  17.571  0.00  0.00    +0.030 A 
ATOM     28  C   UNL     1      -9.615 -10.299  18.560  0.00  0.00    +0.023 A 
ATOM     29  C   UNL     1      -9.669 -12.595  17.811  0.00  0.00    +0.023 A 
ATOM     33  C   UNL     1     -10.148 -10.687  19.789  0.00  0.00    +0.002 A 
ATOM     34  C   UNL     1     -10.203 -12.983  19.040  0.00  0.00    +0.002 A 
ATOM     35  C   UNL     1     -10.442 -12.030  20.028  0.00  0.00    +0.000 A 
ENDBRANCH   9  25
ENDBRANCH  16   8
ENDBRANCH  14  16
ENDBRANCH  10  14
BRANCH  11  17
ATOM     17  C   UNL     1      -4.935 -10.351   9.886  0.00  0.00    +0.124 C 
BRANCH  17  23
ATOM      6  O   UNL     1      -4.908  -7.932  10.188  0.00  0.00    -0.251 OA
ATOM     23  C   UNL     1      -4.893  -8.911   9.457  0.00  0.00    +0.305 C 
BRANCH  23   5
ATOM      5  O   UNL     1      -4.833  -8.839   8.101  0.00  0.00    -0.481 OA
ATOM     37  H   UNL     1      -3.906  -8.812   7.778  0.00  0.00    +0.295 HD
ENDBRANCH  23   5
ENDBRANCH  17  23
ENDBRANCH  11  17
TORSDOF 9
ENDMDL
MODEL 4
REMARK VINA RESULT:      -7.0     28.759     32.569
REMARK  Name = 25313127
REMARK  9 active torsions:
REMARK  status: ('A' for Active; 'I' for Inactive)
REMARK    1  A    between atoms: O_5  and  C_23
REMARK    2  A    between atoms: N_8  and  C_16
REMARK    3  A    between atoms: N_9  and  C_25
REMARK    4  A    between atoms: C_10  and  C_14
REMARK    5  A    between atoms: C_11  and  C_17
REMARK    6  A    between atoms: C_14  and  C_16
REMARK    7  A    between atoms: C_17  and  C_23
REMARK    8  A    between atoms: C_20  and  C_24
REMARK    9  A    between atoms: C_32  and  C_36
REMARK                            x       y       z     vdW  Elec       q    Type
REMARK                         _______ _______ _______ _____ _____    ______ ____
ROOT
ATOM      4  O   UNL     1      -6.399 -11.543  20.515  0.00  0.00    -0.270 OA
ATOM      7  N   UNL     1      -8.231 -11.795  19.082  0.00  0.00    -0.297 N 
ATOM     10  C   UNL     1      -9.872 -10.810  17.498  0.00  0.00    +0.011 C 
ATOM     11  C   UNL     1     -10.937 -10.873  18.623  0.00  0.00    +0.006 C 
ATOM     12  C   UNL     1      -8.798 -11.888  17.730  0.00  0.00    +0.112 C 
ATOM     13  C   UNL     1     -10.290 -10.819  20.017  0.00  0.00    +0.023 C 
ATOM     15  C   UNL     1      -9.207 -11.884  20.165  0.00  0.00    +0.108 C 
ATOM     20  C   UNL     1      -6.877 -11.628  19.385  0.00  0.00    +0.247 C 
ENDROOT
BRANCH  20  24
ATOM     24  C   UNL     1      -5.927 -11.542  18.271  0.00  0.00    +0.037 A 
ATOM     26  C   UNL     1      -5.453 -12.705  17.665  0.00  0.00    +0.013 A 
ATOM     27  C   UNL     1      -5.495 -10.295  17.818  0.00  0.00    +0.013 A 
ATOM     30  C   UNL     1      -4.549 -12.623  16.607  0.00  0.00    +0.013 A 
ATOM     31  C   UNL     1      -4.591 -10.212  16.759  0.00  0.00    +0.013 A 
ATOM     32  C   UNL     1      -4.118 -11.376  16.153  0.00  0.00    +0.055 A 
BRANCH  32  36
ATOM      1  F   UNL     1      -3.405 -10.256  14.163  0.00  0.00    -0.166 F 
ATOM      2  F   UNL     1      -3.143 -12.412  14.249  0.00  0.00    -0.166 F 
ATOM      3  F   UNL     1      -1.857 -11.108  15.420  0.00  0.00    -0.166 F 
ATOM     36  C   UNL     1      -3.151 -11.287  15.022  0.00  0.00    +0.417 C 
ENDBRANCH  32  36
ENDBRANCH  20  24
BRANCH  10  14
ATOM     14  C   UNL     1      -9.216  -9.432  17.339  0.00  0.00    +0.020 C 
BRANCH  14  16
ATOM     16  C   UNL     1      -9.186  -9.010  15.876  0.00  0.00    +0.085 C 
BRANCH  16   8
ATOM      8  N   UNL     1     -10.387  -8.238  15.558  0.00  0.00    -0.299 NA
ATOM      9  N   UNL     1     -11.946  -6.307  14.143  0.00  0.00    -0.327 N 
ATOM     18  C   UNL     1     -10.812  -8.494  14.176  0.00  0.00    +0.103 C 
ATOM     19  C   UNL     1     -10.141  -6.803  15.747  0.00  0.00    +0.103 C 
ATOM     21  C   UNL     1     -12.100  -7.736  13.847  0.00  0.00    +0.120 C 
ATOM     22  C   UNL     1     -11.406  -5.988  15.471  0.00  0.00    +0.120 C 
BRANCH   9  25
ATOM     25  C   UNL     1     -12.799  -5.377  13.539  0.00  0.00    +0.030 A 
ATOM     28  C   UNL     1     -14.178  -5.472  13.725  0.00  0.00    +0.023 A 
ATOM     29  C   UNL     1     -12.271  -4.353  12.753  0.00  0.00    +0.023 A 
ATOM     33  C   UNL     1     -15.029  -4.543  13.126  0.00  0.00    +0.002 A 
ATOM     34  C   UNL     1     -13.121  -3.424  12.153  0.00  0.00    +0.002 A 
ATOM     35  C   UNL     1     -14.499  -3.520  12.340  0.00  0.00    +0.000 A 
ENDBRANCH   9  25
ENDBRANCH  16   8
ENDBRANCH  14  16
ENDBRANCH  10  14
BRANCH  11  17
ATOM     17  C   UNL     1     -12.018  -9.801  18.488  0.00  0.00    +0.124 C 
BRANCH  17  23
ATOM      6  O   UNL     1     -14.090 -11.008  18.925  0.00  0.00    -0.251 OA
ATOM     23  C   UNL     1     -13.262 -10.169  19.247  0.00  0.00    +0.305 C 
BRANCH  23   5
ATOM      5  O   UNL     1     -13.346  -9.421  20.378  0.00  0.00    -0.481 OA
ATOM     37  H   UNL     1     -13.957  -9.820  21.035  0.00  0.00    +0.295 HD
ENDBRANCH  23   5
ENDBRANCH  17  23
ENDBRANCH  11  17
TORSDOF 9
ENDMDL
MODEL 5
REMARK VINA RESULT:      -6.9     26.349     29.376
REMARK  Name = 25313127
REMARK  9 active torsions:
REMARK  status: ('A' for Active; 'I' for Inactive)
REMARK    1  A    between atoms: O_5  and  C_23
REMARK    2  A    between atoms: N_8  and  C_16
REMARK    3  A    between atoms: N_9  and  C_25
REMARK    4  A    between atoms: C_10  and  C_14
REMARK    5  A    between atoms: C_11  and  C_17
REMARK    6  A    between atoms: C_14  and  C_16
REMARK    7  A    between atoms: C_17  and  C_23
REMARK    8  A    between atoms: C_20  and  C_24
REMARK    9  A    between atoms: C_32  and  C_36
REMARK                            x       y       z     vdW  Elec       q    Type
REMARK                         _______ _______ _______ _____ _____    ______ ____
ROOT
ATOM      4  O   UNL     1      -8.985 -11.779  17.844  0.00  0.00    -0.270 OA
ATOM      7  N   UNL     1      -6.981 -10.661  17.391  0.00  0.00    -0.297 N 
ATOM     10  C   UNL     1      -5.236  -9.949  15.772  0.00  0.00    +0.011 C 
ATOM     11  C   UNL     1      -4.312 -11.057  16.339  0.00  0.00    +0.006 C 
ATOM     12  C   UNL     1      -6.249  -9.510  16.844  0.00  0.00    +0.112 C 
ATOM     13  C   UNL     1      -5.124 -12.216  16.942  0.00  0.00    +0.023 C 
ATOM     15  C   UNL     1      -6.138 -11.708  17.963  0.00  0.00    +0.108 C 
ATOM     20  C   UNL     1      -8.369 -10.815  17.393  0.00  0.00    +0.247 C 
ENDROOT
BRANCH  20  24
ATOM     24  C   UNL     1      -9.183  -9.743  16.809  0.00  0.00    +0.037 A 
ATOM     26  C   UNL     1      -9.488  -9.760  15.449  0.00  0.00    +0.013 A 
ATOM     27  C   UNL     1      -9.651  -8.705  17.616  0.00  0.00    +0.013 A 
ATOM     30  C   UNL     1     -10.261  -8.740  14.894  0.00  0.00    +0.013 A 
ATOM     31  C   UNL     1     -10.425  -7.685  17.061  0.00  0.00    +0.013 A 
ATOM     32  C   UNL     1     -10.729  -7.703  15.701  0.00  0.00    +0.055 A 
BRANCH  32  36
ATOM      1  F   UNL     1     -12.161  -6.960  13.934  0.00  0.00    -0.166 F 
ATOM      2  F   UNL     1     -10.824  -5.495  14.824  0.00  0.00    -0.166 F 
ATOM      3  F   UNL     1     -12.568  -6.189  15.920  0.00  0.00    -0.166 F 
ATOM     36  C   UNL     1     -11.555  -6.612  15.108  0.00  0.00    +0.417 C 
ENDBRANCH  32  36
ENDBRANCH  20  24
BRANCH  10  14
ATOM     14  C   UNL     1      -5.964 -10.347  14.482  0.00  0.00    +0.020 C 
BRANCH  14  16
ATOM     16  C   UNL     1      -5.037 -10.239  13.279  0.00  0.00    +0.085 C 
BRANCH  16   8
ATOM      8  N   UNL     1      -5.657  -9.409  12.247  0.00  0.00    -0.299 NA
ATOM      9  N   UNL     1      -6.687  -8.814   9.650  0.00  0.00    -0.327 N 
ATOM     18  C   UNL     1      -6.917 -10.009  11.792  0.00  0.00    +0.103 C 
ATOM     19  C   UNL     1      -4.745  -9.237  11.109  0.00  0.00    +0.103 C 
ATOM     21  C   UNL     1      -7.605  -9.122  10.751  0.00  0.00    +0.120 C 
ATOM     22  C   UNL     1      -5.360  -8.324  10.047  0.00  0.00    +0.120 C 
BRANCH   9  25
ATOM     25  C   UNL     1      -7.198  -8.401   8.415  0.00  0.00    +0.030 A 
ATOM     28  C   UNL     1      -7.995  -7.258   8.336  0.00  0.00    +0.023 A 
ATOM     29  C   UNL     1      -6.910  -9.130   7.261  0.00  0.00    +0.023 A 
ATOM     33  C   UNL     1      -8.502  -6.844   7.105  0.00  0.00    +0.002 A 
ATOM     34  C   UNL     1      -7.418  -8.716   6.029  0.00  0.00    +0.002 A 
ATOM     35  C   UNL     1      -8.213  -7.575   5.952  0.00  0.00    +0.000 A 
ENDBRANCH   9  25
ENDBRANCH  16   8
ENDBRANCH  14  16
ENDBRANCH  10  14
BRANCH  11  17
ATOM     17  C   UNL     1      -3.302 -11.580  15.318  0.00  0.00    +0.124 C 
BRANCH  17  23
ATOM      6  O   UNL     1      -1.477 -10.171  14.526  0.00  0.00    -0.251 OA
ATOM     23  C   UNL     1      -1.994 -10.844  15.405  0.00  0.00    +0.305 C 
BRANCH  23   5
ATOM      5  O   UNL     1      -1.444 -11.032  16.633  0.00  0.00    -0.481 OA
ATOM     37  H   UNL     1      -1.148 -10.186  17.034  0.00  0.00    +0.295 HD
ENDBRANCH  23   5
ENDBRANCH  17  23
ENDBRANCH  11  17
TORSDOF 9
ENDMDL
MODEL 6
REMARK VINA RESULT:      -6.9     25.390     28.684
REMARK  Name = 25313127
REMARK  9 active torsions:
REMARK  status: ('A' for Active; 'I' for Inactive)
REMARK    1  A    between atoms: O_5  and  C_23
REMARK    2  A    between atoms: N_8  and  C_16
REMARK    3  A    between atoms: N_9  and  C_25
REMARK    4  A    between atoms: C_10  and  C_14
REMARK    5  A    between atoms: C_11  and  C_17
REMARK    6  A    between atoms: C_14  and  C_16
REMARK    7  A    between atoms: C_17  and  C_23
REMARK    8  A    between atoms: C_20  and  C_24
REMARK    9  A    between atoms: C_32  and  C_36
REMARK                            x       y       z     vdW  Elec       q    Type
REMARK                         _______ _______ _______ _____ _____    ______ ____
ROOT
ATOM      4  O   UNL     1      -3.707 -12.562   9.573  0.00  0.00    -0.270 OA
ATOM      7  N   UNL     1      -4.505 -10.371   9.387  0.00  0.00    -0.297 N 
ATOM     10  C   UNL     1      -6.152  -8.622  10.020  0.00  0.00    +0.011 C 
ATOM     11  C   UNL     1      -6.840  -8.827   8.646  0.00  0.00    +0.006 C 
ATOM     12  C   UNL     1      -4.667  -9.014   9.927  0.00  0.00    +0.112 C 
ATOM     13  C   UNL     1      -6.602 -10.246   8.101  0.00  0.00    +0.023 C 
ATOM     15  C   UNL     1      -5.115 -10.586   8.077  0.00  0.00    +0.108 C 
ATOM     20  C   UNL     1      -3.839 -11.424  10.019  0.00  0.00    +0.247 C 
ENDROOT
BRANCH  20  24
ATOM     24  C   UNL     1      -3.240 -11.170  11.334  0.00  0.00    +0.037 A 
ATOM     26  C   UNL     1      -3.697 -11.861  12.455  0.00  0.00    +0.013 A 
ATOM     27  C   UNL     1      -2.212 -10.235  11.462  0.00  0.00    +0.013 A 
ATOM     30  C   UNL     1      -3.127 -11.618  13.705  0.00  0.00    +0.013 A 
ATOM     31  C   UNL     1      -1.641  -9.993  12.712  0.00  0.00    +0.013 A 
ATOM     32  C   UNL     1      -2.099 -10.685  13.833  0.00  0.00    +0.055 A 
BRANCH  32  36
ATOM      1  F   UNL     1      -0.649 -11.416  15.590  0.00  0.00    -0.166 F 
ATOM      2  F   UNL     1      -2.425 -10.296  16.156  0.00  0.00    -0.166 F 
ATOM      3  F   UNL     1      -0.746  -9.281  15.219  0.00  0.00    -0.166 F 
ATOM     36  C   UNL     1      -1.490 -10.425  15.169  0.00  0.00    +0.417 C 
ENDBRANCH  32  36
ENDBRANCH  20  24
BRANCH  10  14
ATOM     14  C   UNL     1      -6.830  -9.373  11.173  0.00  0.00    +0.020 C 
BRANCH  14  16
ATOM     16  C   UNL     1      -6.069  -9.170  12.476  0.00  0.00    +0.085 C 
BRANCH  16   8
ATOM      8  N   UNL     1      -6.683  -9.964  13.539  0.00  0.00    -0.299 NA
ATOM      9  N   UNL     1      -7.941 -10.410  16.065  0.00  0.00    -0.327 N 
ATOM     18  C   UNL     1      -8.070  -9.537  13.764  0.00  0.00    +0.103 C 
ATOM     19  C   UNL     1      -5.914  -9.840  14.784  0.00  0.00    +0.103 C 
ATOM     21  C   UNL     1      -8.743 -10.398  14.836  0.00  0.00    +0.120 C 
ATOM     22  C   UNL     1      -6.515 -10.711  15.889  0.00  0.00    +0.120 C 
BRANCH   9  25
ATOM     25  C   UNL     1      -8.541 -10.753  17.282  0.00  0.00    +0.030 A 
ATOM     28  C   UNL     1      -8.101 -11.876  17.984  0.00  0.00    +0.023 A 
ATOM     29  C   UNL     1      -9.577  -9.972  17.794  0.00  0.00    +0.023 A 
ATOM     33  C   UNL     1      -8.697 -12.216  19.199  0.00  0.00    +0.002 A 
ATOM     34  C   UNL     1     -10.172 -10.313  19.009  0.00  0.00    +0.002 A 
ATOM     35  C   UNL     1      -9.732 -11.434  19.710  0.00  0.00    +0.000 A 
ENDBRANCH   9  25
ENDBRANCH  16   8
ENDBRANCH  14  16
ENDBRANCH  10  14
BRANCH  11  17
ATOM     17  C   UNL     1      -8.334  -8.501   8.666  0.00  0.00    +0.124 C 
BRANCH  17  23
ATOM      6  O   UNL     1      -9.519  -6.378   8.838  0.00  0.00    -0.251 OA
ATOM     23  C   UNL     1      -8.586  -7.042   8.411  0.00  0.00    +0.305 C 
BRANCH  23   5
ATOM      5  O   UNL     1      -7.605  -6.540   7.616  0.00  0.00    -0.481 OA
ATOM     37  H   UNL     1      -7.565  -7.001   6.750  0.00  0.00    +0.295 HD
ENDBRANCH  23   5
ENDBRANCH  17  23
ENDBRANCH  11  17
TORSDOF 9
ENDMDL
MODEL 7
REMARK VINA RESULT:      -6.9     25.003     28.334
REMARK  Name = 25313127
REMARK  9 active torsions:
REMARK  status: ('A' for Active; 'I' for Inactive)
REMARK    1  A    between atoms: O_5  and  C_23
REMARK    2  A    between atoms: N_8  and  C_16
REMARK    3  A    between atoms: N_9  and  C_25
REMARK    4  A    between atoms: C_10  and  C_14
REMARK    5  A    between atoms: C_11  and  C_17
REMARK    6  A    between atoms: C_14  and  C_16
REMARK    7  A    between atoms: C_17  and  C_23
REMARK    8  A    between atoms: C_20  and  C_24
REMARK    9  A    between atoms: C_32  and  C_36
REMARK                            x       y       z     vdW  Elec       q    Type
REMARK                         _______ _______ _______ _____ _____    ______ ____
ROOT
ATOM      4  O   UNL     1      -5.361 -10.687   6.757  0.00  0.00    -0.270 OA
ATOM      7  N   UNL     1      -6.694  -9.102   7.845  0.00  0.00    -0.297 N 
ATOM     10  C   UNL     1      -8.401  -8.545   9.562  0.00  0.00    +0.011 C 
ATOM     11  C   UNL     1      -9.447  -8.418   8.425  0.00  0.00    +0.006 C 
ATOM     12  C   UNL     1      -6.991  -8.261   9.013  0.00  0.00    +0.112 C 
ATOM     13  C   UNL     1      -9.067  -9.280   7.209  0.00  0.00    +0.023 C 
ATOM     15  C   UNL     1      -7.645  -8.981   6.743  0.00  0.00    +0.108 C 
ATOM     20  C   UNL     1      -5.611  -9.977   7.729  0.00  0.00    +0.247 C 
ENDROOT
BRANCH  20  24
ATOM     24  C   UNL     1      -4.677 -10.073   8.856  0.00  0.00    +0.037 A 
ATOM     26  C   UNL     1      -4.588 -11.255   9.590  0.00  0.00    +0.013 A 
ATOM     27  C   UNL     1      -3.879  -8.980   9.195  0.00  0.00    +0.013 A 
ATOM     30  C   UNL     1      -3.701 -11.345  10.663  0.00  0.00    +0.013 A 
ATOM     31  C   UNL     1      -2.991  -9.070  10.267  0.00  0.00    +0.013 A 
ATOM     32  C   UNL     1      -2.902 -10.253  11.001  0.00  0.00    +0.055 A 
BRANCH  32  36
ATOM      1  F   UNL     1      -2.539 -10.122  13.362  0.00  0.00    -0.166 F 
ATOM      2  F   UNL     1      -0.933  -9.447  12.061  0.00  0.00    -0.166 F 
ATOM      3  F   UNL     1      -1.355 -11.570  12.263  0.00  0.00    -0.166 F 
ATOM     36  C   UNL     1      -1.954 -10.348  12.148  0.00  0.00    +0.417 C 
ENDBRANCH  32  36
ENDBRANCH  20  24
BRANCH  10  14
ATOM     14  C   UNL     1      -8.429  -9.897  10.285  0.00  0.00    +0.020 C 
BRANCH  14  16
ATOM     16  C   UNL     1      -9.177  -9.792  11.607  0.00  0.00    +0.085 C 
BRANCH  16   8
ATOM      8  N   UNL     1      -8.223  -9.652  12.707  0.00  0.00    -0.299 NA
ATOM      9  N   UNL     1      -6.625 -10.543  14.900  0.00  0.00    -0.327 N 
ATOM     18  C   UNL     1      -7.041 -10.490  12.472  0.00  0.00    +0.103 C 
ATOM     19  C   UNL     1      -8.852 -10.020  13.982  0.00  0.00    +0.103 C 
ATOM     21  C   UNL     1      -6.010 -10.311  13.589  0.00  0.00    +0.120 C 
ATOM     22  C   UNL     1      -7.881  -9.824  15.148  0.00  0.00    +0.120 C 
BRANCH   9  25
ATOM     25  C   UNL     1      -5.818 -10.857  16.000  0.00  0.00    +0.030 A 
ATOM     28  C   UNL     1      -4.431 -10.749  15.901  0.00  0.00    +0.023 A 
ATOM     29  C   UNL     1      -6.402 -11.275  17.196  0.00  0.00    +0.023 A 
ATOM     33  C   UNL     1      -3.627 -11.059  16.998  0.00  0.00    +0.002 A 
ATOM     34  C   UNL     1      -5.598 -11.585  18.293  0.00  0.00    +0.002 A 
ATOM     35  C   UNL     1      -4.212 -11.477  18.194  0.00  0.00    +0.000 A 
ENDBRANCH   9  25
ENDBRANCH  16   8
ENDBRANCH  14  16
ENDBRANCH  10  14
BRANCH  11  17
ATOM     17  C   UNL     1     -10.873  -8.729   8.881  0.00  0.00    +0.124 C 
BRANCH  17  23
ATOM      6  O   UNL     1     -11.189  -6.358   9.349  0.00  0.00    -0.251 OA
ATOM     23  C   UNL     1     -11.540  -7.522   9.477  0.00  0.00    +0.305 C 
BRANCH  23   5
ATOM      5  O   UNL     1     -12.623  -7.908  10.201  0.00  0.00    -0.481 OA
ATOM     37  H   UNL     1     -13.215  -8.497   9.685  0.00  0.00    +0.295 HD
ENDBRANCH  23   5
ENDBRANCH  17  23
ENDBRANCH  11  17
TORSDOF 9
ENDMDL
MODEL 8
REMARK VINA RESULT:      -6.9     26.682     29.441
REMARK  Name = 25313127
REMARK  9 active torsions:
REMARK  status: ('A' for Active; 'I' for Inactive)
REMARK    1  A    between atoms: O_5  and  C_23
REMARK    2  A    between atoms: N_8  and  C_16
REMARK    3  A    between atoms: N_9  and  C_25
REMARK    4  A    between atoms: C_10  and  C_14
REMARK    5  A    between atoms: C_11  and  C_17
REMARK    6  A    between atoms: C_14  and  C_16
REMARK    7  A    between atoms: C_17  and  C_23
REMARK    8  A    between atoms: C_20  and  C_24
REMARK    9  A    between atoms: C_32  and  C_36
REMARK                            x       y       z     vdW  Elec       q    Type
REMARK                         _______ _______ _______ _____ _____    ______ ____
ROOT
ATOM      4  O   UNL     1      -8.916 -11.183  18.488  0.00  0.00    -0.270 OA
ATOM      7  N   UNL     1      -6.980 -10.192  17.627  0.00  0.00    -0.297 N 
ATOM     10  C   UNL     1      -5.355  -9.907  15.769  0.00  0.00    +0.011 C 
ATOM     11  C   UNL     1      -4.364 -10.808  16.550  0.00  0.00    +0.006 C 
ATOM     12  C   UNL     1      -6.320  -9.216  16.749  0.00  0.00    +0.112 C 
ATOM     13  C   UNL     1      -5.100 -11.779  17.488  0.00  0.00    +0.023 C 
ATOM     15  C   UNL     1      -6.071 -11.035  18.401  0.00  0.00    +0.108 C 
ATOM     20  C   UNL     1      -8.360 -10.364  17.759  0.00  0.00    +0.247 C 
ENDROOT
BRANCH  20  24
ATOM     24  C   UNL     1      -9.241  -9.501  16.965  0.00  0.00    +0.037 A 
ATOM     26  C   UNL     1      -9.690  -9.922  15.714  0.00  0.00    +0.013 A 
ATOM     27  C   UNL     1      -9.630  -8.256  17.462  0.00  0.00    +0.013 A 
ATOM     30  C   UNL     1     -10.527  -9.100  14.960  0.00  0.00    +0.013 A 
ATOM     31  C   UNL     1     -10.468  -7.434  16.708  0.00  0.00    +0.013 A 
ATOM     32  C   UNL     1     -10.916  -7.857  15.457  0.00  0.00    +0.055 A 
BRANCH  32  36
ATOM      1  F   UNL     1     -11.381  -5.683  14.572  0.00  0.00    -0.166 F 
ATOM      2  F   UNL     1     -13.077  -6.912  15.156  0.00  0.00    -0.166 F 
ATOM      3  F   UNL     1     -11.955  -7.384  13.354  0.00  0.00    -0.166 F 
ATOM     36  C   UNL     1     -11.811  -6.978  14.650  0.00  0.00    +0.417 C 
ENDBRANCH  32  36
ENDBRANCH  20  24
BRANCH  10  14
ATOM     14  C   UNL     1      -6.142 -10.648  14.680  0.00  0.00    +0.020 C 
BRANCH  14  16
ATOM     16  C   UNL     1      -6.669  -9.674  13.635  0.00  0.00    +0.085 C 
BRANCH  16   8
ATOM      8  N   UNL     1      -5.924  -9.836  12.386  0.00  0.00    -0.299 NA
ATOM      9  N   UNL     1      -5.512 -10.674   9.686  0.00  0.00    -0.327 N 
ATOM     18  C   UNL     1      -6.615  -9.156  11.284  0.00  0.00    +0.103 C 
ATOM     19  C   UNL     1      -5.757 -11.260  12.068  0.00  0.00    +0.103 C 
ATOM     21  C   UNL     1      -5.818  -9.270   9.982  0.00  0.00    +0.120 C 
ATOM     22  C   UNL     1      -4.930 -11.443  10.794  0.00  0.00    +0.120 C 
BRANCH   9  25
ATOM     25  C   UNL     1      -5.188 -11.053   8.379  0.00  0.00    +0.030 A 
ATOM     28  C   UNL     1      -5.641 -10.295   7.300  0.00  0.00    +0.023 A 
ATOM     29  C   UNL     1      -4.409 -12.188   8.156  0.00  0.00    +0.023 A 
ATOM     33  C   UNL     1      -5.315 -10.672   5.997  0.00  0.00    +0.002 A 
ATOM     34  C   UNL     1      -4.082 -12.565   6.853  0.00  0.00    +0.002 A 
ATOM     35  C   UNL     1      -4.535 -11.807   5.775  0.00  0.00    +0.000 A 
ENDBRANCH   9  25
ENDBRANCH  16   8
ENDBRANCH  14  16
ENDBRANCH  10  14
BRANCH  11  17
ATOM     17  C   UNL     1      -3.396 -11.567  15.641  0.00  0.00    +0.124 C 
BRANCH  17  23
ATOM      6  O   UNL     1      -1.723 -10.172  14.548  0.00  0.00    -0.251 OA
ATOM     23  C   UNL     1      -2.085 -10.845  15.501  0.00  0.00    +0.305 C 
BRANCH  23   5
ATOM      5  O   UNL     1      -1.332 -11.047  16.614  0.00  0.00    -0.481 OA
ATOM     37  H   UNL     1      -0.994 -11.967  16.664  0.00  0.00    +0.295 HD
ENDBRANCH  23   5
ENDBRANCH  17  23
ENDBRANCH  11  17
TORSDOF 9
ENDMDL
MODEL 9
REMARK VINA RESULT:      -6.9     26.370     27.520
REMARK  Name = 25313127
REMARK  9 active torsions:
REMARK  status: ('A' for Active; 'I' for Inactive)
REMARK    1  A    between atoms: O_5  and  C_23
REMARK    2  A    between atoms: N_8  and  C_16
REMARK    3  A    between atoms: N_9  and  C_25
REMARK    4  A    between atoms: C_10  and  C_14
REMARK    5  A    between atoms: C_11  and  C_17
REMARK    6  A    between atoms: C_14  and  C_16
REMARK    7  A    between atoms: C_17  and  C_23
REMARK    8  A    between atoms: C_20  and  C_24
REMARK    9  A    between atoms: C_32  and  C_36
REMARK                            x       y       z     vdW  Elec       q    Type
REMARK                         _______ _______ _______ _____ _____    ______ ____
ROOT
ATOM      4  O   UNL     1      -7.229  -7.861   4.717  0.00  0.00    -0.270 OA
ATOM      7  N   UNL     1      -7.320  -9.589   6.291  0.00  0.00    -0.297 N 
ATOM     10  C   UNL     1      -6.589 -10.565   8.456  0.00  0.00    +0.011 C 
ATOM     11  C   UNL     1      -5.679 -11.540   7.664  0.00  0.00    +0.006 C 
ATOM     12  C   UNL     1      -7.777 -10.127   7.580  0.00  0.00    +0.112 C 
ATOM     13  C   UNL     1      -5.268 -10.950   6.305  0.00  0.00    +0.023 C 
ATOM     15  C   UNL     1      -6.487 -10.497   5.507  0.00  0.00    +0.108 C 
ATOM     20  C   UNL     1      -7.614  -8.318   5.792  0.00  0.00    +0.247 C 
ENDROOT
BRANCH  20  24
ATOM     24  C   UNL     1      -8.453  -7.433   6.607  0.00  0.00    +0.037 A 
ATOM     26  C   UNL     1      -7.872  -6.623   7.583  0.00  0.00    +0.013 A 
ATOM     27  C   UNL     1      -9.833  -7.402   6.408  0.00  0.00    +0.013 A 
ATOM     30  C   UNL     1      -8.671  -5.784   8.359  0.00  0.00    +0.013 A 
ATOM     31  C   UNL     1     -10.632  -6.561   7.183  0.00  0.00    +0.013 A 
ATOM     32  C   UNL     1     -10.051  -5.752   8.159  0.00  0.00    +0.055 A 
BRANCH  32  36
ATOM      1  F   UNL     1     -11.167  -5.347  10.236  0.00  0.00    -0.166 F 
ATOM      2  F   UNL     1     -12.125  -4.623   8.424  0.00  0.00    -0.166 F 
ATOM      3  F   UNL     1     -10.359  -3.621   9.200  0.00  0.00    -0.166 F 
ATOM     36  C   UNL     1     -10.904  -4.855   8.989  0.00  0.00    +0.417 C 
ENDBRANCH  32  36
ENDBRANCH  20  24
BRANCH  10  14
ATOM     14  C   UNL     1      -5.854  -9.337   9.008  0.00  0.00    +0.020 C 
BRANCH  14  16
ATOM     16  C   UNL     1      -6.558  -8.792  10.243  0.00  0.00    +0.085 C 
BRANCH  16   8
ATOM      8  N   UNL     1      -6.248  -9.631  11.401  0.00  0.00    -0.299 NA
ATOM      9  N   UNL     1      -5.361 -10.177  14.061  0.00  0.00    -0.327 N 
ATOM     18  C   UNL     1      -7.070  -9.239  12.553  0.00  0.00    +0.103 C 
ATOM     19  C   UNL     1      -4.824  -9.527  11.744  0.00  0.00    +0.103 C 
ATOM     21  C   UNL     1      -6.796 -10.145  13.756  0.00  0.00    +0.120 C 
ATOM     22  C   UNL     1      -4.476 -10.443  12.920  0.00  0.00    +0.120 C 
BRANCH   9  25
ATOM     25  C   UNL     1      -4.930 -10.568  15.333  0.00  0.00    +0.030 A 
ATOM     28  C   UNL     1      -3.566 -10.670  15.607  0.00  0.00    +0.023 A 
ATOM     29  C   UNL     1      -5.864 -10.855  16.328  0.00  0.00    +0.023 A 
ATOM     33  C   UNL     1      -3.136 -11.058  16.876  0.00  0.00    +0.002 A 
ATOM     34  C   UNL     1      -5.434 -11.243  17.598  0.00  0.00    +0.002 A 
ATOM     35  C   UNL     1      -4.071 -11.344  17.871  0.00  0.00    +0.000 A 
ENDBRANCH   9  25
ENDBRANCH  16   8
ENDBRANCH  14  16
ENDBRANCH  10  14
BRANCH  11  17
ATOM     17  C   UNL     1      -4.449 -11.988   8.452  0.00  0.00    +0.124 C 
BRANCH  17  23
ATOM      6  O   UNL     1      -4.748 -14.343   9.005  0.00  0.00    -0.251 OA
ATOM     23  C   UNL     1      -4.223 -13.469   8.332  0.00  0.00    +0.305 C 
BRANCH  23   5
ATOM      5  O   UNL     1      -3.327 -13.716   7.341  0.00  0.00    -0.481 OA
ATOM     37  H   UNL     1      -2.681 -14.409   7.597  0.00  0.00    +0.295 HD
ENDBRANCH  23   5
ENDBRANCH  17  23
ENDBRANCH  11  17
TORSDOF 9
ENDMDL
MODEL 10
REMARK VINA RESULT:      -6.8      2.643      4.301
REMARK  Name = 25313127
REMARK  9 active torsions:
REMARK  status: ('A' for Active; 'I' for Inactive)
REMARK    1  A    between atoms: O_5  and  C_23
REMARK    2  A    between atoms: N_8  and  C_16
REMARK    3  A    between atoms: N_9  and  C_25
REMARK    4  A    between atoms: C_10  and  C_14
REMARK    5  A    between atoms: C_11  and  C_17
REMARK    6  A    between atoms: C_14  and  C_16
REMARK    7  A    between atoms: C_17  and  C_23
REMARK    8  A    between atoms: C_20  and  C_24
REMARK    9  A    between atoms: C_32  and  C_36
REMARK                            x       y       z     vdW  Elec       q    Type
REMARK                         _______ _______ _______ _____ _____    ______ ____
ROOT
ATOM      4  O   UNL     1       9.889   4.328   0.276  0.00  0.00    -0.270 OA
ATOM      7  N   UNL     1      12.144   3.948   0.772  0.00  0.00    -0.297 N 
ATOM     10  C   UNL     1      14.432   4.826   1.182  0.00  0.00    +0.011 C 
ATOM     11  C   UNL     1      14.824   4.360  -0.244  0.00  0.00    +0.006 C 
ATOM     12  C   UNL     1      13.271   3.967   1.714  0.00  0.00    +0.112 C 
ATOM     13  C   UNL     1      13.604   4.312  -1.179  0.00  0.00    +0.023 C 
ATOM     15  C   UNL     1      12.476   3.482  -0.573  0.00  0.00    +0.108 C 
ATOM     20  C   UNL     1      10.834   4.336   1.063  0.00  0.00    +0.247 C 
ENDROOT
BRANCH  20  24
ATOM     24  C   UNL     1      10.539   4.799   2.424  0.00  0.00    +0.037 A 
ATOM     26  C   UNL     1      10.255   6.144   2.658  0.00  0.00    +0.013 A 
ATOM     27  C   UNL     1      10.543   3.893   3.484  0.00  0.00    +0.013 A 
ATOM     30  C   UNL     1       9.976   6.584   3.952  0.00  0.00    +0.013 A 
ATOM     31  C   UNL     1      10.262   4.332   4.779  0.00  0.00    +0.013 A 
ATOM     32  C   UNL     1       9.979   5.678   5.012  0.00  0.00    +0.055 A 
BRANCH  32  36
ATOM      1  F   UNL     1       9.043   5.216   7.164  0.00  0.00    -0.166 F 
ATOM      2  F   UNL     1       8.874   7.249   6.413  0.00  0.00    -0.166 F 
ATOM      3  F   UNL     1      10.792   6.497   7.107  0.00  0.00    -0.166 F 
ATOM     36  C   UNL     1       9.681   6.148   6.395  0.00  0.00    +0.417 C 
ENDBRANCH  32  36
ENDBRANCH  20  24
BRANCH  10  14
ATOM     14  C   UNL     1      14.077   6.315   1.273  0.00  0.00    +0.020 C 
BRANCH  14  16
ATOM     16  C   UNL     1      15.165   7.089   2.007  0.00  0.00    +0.085 C 
BRANCH  16   8
ATOM      8  N   UNL     1      14.566   7.913   3.056  0.00  0.00    -0.299 NA
ATOM      9  N   UNL     1      12.468   8.861   4.747  0.00  0.00    -0.327 N 
ATOM     18  C   UNL     1      14.045   7.069   4.138  0.00  0.00    +0.103 C 
ATOM     19  C   UNL     1      13.486   8.742   2.505  0.00  0.00    +0.103 C 
ATOM     21  C   UNL     1      13.465   7.921   5.270  0.00  0.00    +0.120 C 
ATOM     22  C   UNL     1      12.888   9.650   3.581  0.00  0.00    +0.120 C 
BRANCH   9  25
ATOM     25  C   UNL     1      11.519   9.419   5.611  0.00  0.00    +0.030 A 
ATOM     28  C   UNL     1      10.340   9.961   5.097  0.00  0.00    +0.023 A 
ATOM     29  C   UNL     1      11.751   9.432   6.986  0.00  0.00    +0.023 A 
ATOM     33  C   UNL     1       9.393  10.514   5.959  0.00  0.00    +0.002 A 
ATOM     34  C   UNL     1      10.803   9.986   7.848  0.00  0.00    +0.002 A 
ATOM     35  C   UNL     1       9.626  10.526   7.334  0.00  0.00    +0.000 A 
ENDBRANCH   9  25
ENDBRANCH  16   8
ENDBRANCH  14  16
ENDBRANCH  10  14
BRANCH  11  17
ATOM     17  C   UNL     1      15.945   5.195  -0.863  0.00  0.00    +0.124 C 
BRANCH  17  23
ATOM      6  O   UNL     1      17.659   4.490  -2.447  0.00  0.00    -0.251 OA
ATOM     23  C   UNL     1      17.050   4.329  -1.400  0.00  0.00    +0.305 C 
BRANCH  23   5
ATOM      5  O   UNL     1      17.292   3.309  -0.536  0.00  0.00    -0.481 OA
ATOM     37  H   UNL     1      17.666   2.524  -0.993  0.00  0.00    +0.295 HD
ENDBRANCH  23   5
ENDBRANCH  17  23
ENDBRANCH  11  17
TORSDOF 9
ENDMDL
