REMARK  Name = 7155428
REMARK  2 active torsions:
REMARK  status: ('A' for Active; 'I' for Inactive)
REMARK    1  A    between atoms: N_5  and  C_15
REMARK    2  A    between atoms: C_13  and  C_24
REMARK                            x       y       z     vdW  Elec       q    Type
REMARK                         _______ _______ _______ _____ _____    ______ ____
ROOT
ATOM      1  O   UNL     1      -1.238  -1.947   0.636  0.00  0.00    -0.253 OA
ATOM      2  O   UNL     1       0.128   3.773   1.257  0.00  0.00    -0.268 OA
ATOM      3  N   UNL     1      -0.885  -0.508  -1.151  0.00  0.00    -0.285 N 
ATOM      4  N   UNL     1       0.812   2.005  -0.119  0.00  0.00    -0.311 N 
ATOM      5  N   UNL     1      -2.918  -0.497   0.056  0.00  0.00    -0.296 N 
ATOM      6  C   UNL     1      -0.280   1.579  -2.397  0.00  0.00    +0.027 C 
ATOM      7  C   UNL     1       1.497   0.089  -1.595  0.00  0.00    +0.054 C 
ATOM      8  C   UNL     1       1.057   0.962  -2.767  0.00  0.00    +0.018 C 
ATOM      9  C   UNL     1      -1.342   0.497  -2.122  0.00  0.00    +0.114 C 
ATOM     10  C   UNL     1       0.463  -1.033  -1.390  0.00  0.00    +0.119 C 
ATOM     11  C   UNL     1      -0.072   2.491  -1.186  0.00  0.00    +0.130 C 
ATOM     12  C   UNL     1       1.665   0.900  -0.307  0.00  0.00    +0.034 A 
ATOM     13  C   UNL     1       2.572   0.576   0.651  0.00  0.00    +0.002 A 
ATOM     14  C   UNL     1      -1.651  -1.045  -0.101  0.00  0.00    +0.302 C 
ATOM     16  C   UNL     1       0.837   2.788   1.049  0.00  0.00    +0.252 A 
ATOM     22  C   UNL     1       2.623   1.356   1.872  0.00  0.00    +0.015 A 
ATOM     23  C   UNL     1       1.811   2.390   2.091  0.00  0.00    +0.071 A 
ATOM     30  H   UNL     1      -3.302   0.125  -0.639  0.00  0.00    +0.151 HD
ENDROOT
BRANCH   5  15
ATOM     15  C   UNL     1      -3.828  -0.945   1.087  0.00  0.00    +0.074 C 
ATOM     17  C   UNL     1      -4.714   0.205   1.577  0.00  0.00    +0.022 C 
ATOM     18  C   UNL     1      -4.671  -2.128   0.601  0.00  0.00    +0.022 C 
ATOM     19  C   UNL     1      -5.764   0.615   0.544  0.00  0.00    +0.002 C 
ATOM     20  C   UNL     1      -5.721  -1.714  -0.430  0.00  0.00    +0.002 C 
ATOM     21  C   UNL     1      -6.598  -0.577   0.085  0.00  0.00    +0.000 C 
ENDBRANCH   5  15
BRANCH  13  24
ATOM     24  C   UNL     1       3.499  -0.567   0.492  0.00  0.00    -0.016 A 
ATOM     25  C   UNL     1       3.114  -1.833   0.920  0.00  0.00    +0.008 A 
ATOM     26  C   UNL     1       4.750  -0.366  -0.084  0.00  0.00    +0.008 A 
ATOM     27  C   UNL     1       3.988  -2.910   0.771  0.00  0.00    +0.001 A 
ATOM     28  C   UNL     1       5.624  -1.443  -0.234  0.00  0.00    +0.001 A 
ATOM     29  C   UNL     1       5.243  -2.715   0.194  0.00  0.00    +0.000 A 
ENDBRANCH  13  24
TORSDOF 2
