REMARK  Name = 40776831
REMARK  10 active torsions:
REMARK  status: ('A' for Active; 'I' for Inactive)
REMARK    1  A    between atoms: O_2  and  C_29
REMARK    2  A    between atoms: O_2  and  C_32
REMARK    3  A    between atoms: O_3  and  C_31
REMARK    4  A    between atoms: O_3  and  C_33
REMARK    5  A    between atoms: N_5  and  C_15
REMARK    6  A    between atoms: C_9  and  C_16
REMARK    7  A    between atoms: C_10  and  C_15
REMARK    8  A    between atoms: C_17  and  C_19
REMARK    9  A    between atoms: C_23  and  C_25
REMARK   10  A    between atoms: C_24  and  C_26
REMARK                            x       y       z     vdW  Elec       q    Type
REMARK                         _______ _______ _______ _____ _____    ______ ____
ROOT
ATOM      4  N   UNL     1      -2.298   0.091  -2.557  0.00  0.00    -0.297 NA
ATOM      8  C   UNL     1      -1.996   2.260  -1.147  0.00  0.00    +0.002 C 
ATOM      9  C   UNL     1      -0.619   1.595  -1.425  0.00  0.00    +0.055 C 
ATOM     10  C   UNL     1      -3.224   0.074  -1.394  0.00  0.00    +0.074 C 
ATOM     11  C   UNL     1      -2.917   1.246  -0.436  0.00  0.00    +0.024 C 
ATOM     12  C   UNL     1      -2.629   2.563  -2.522  0.00  0.00    +0.019 C 
ATOM     13  C   UNL     1      -0.895   0.216  -2.088  0.00  0.00    +0.094 C 
ATOM     14  C   UNL     1      -2.619   1.284  -3.377  0.00  0.00    +0.085 C 
ENDROOT
BRANCH   9  16
ATOM      6  N   UNL     1      -0.023   1.986   0.915  0.00  0.00    -0.237 NA
ATOM      7  N   UNL     1       2.117   1.345   1.820  0.00  0.00    -0.232 NA
ATOM     16  C   UNL     1       0.376   1.495  -0.277  0.00  0.00    +0.050 A 
ATOM     18  C   UNL     1       1.612   0.923  -0.495  0.00  0.00    +0.052 A 
ATOM     23  C   UNL     1       2.450   0.874   0.600  0.00  0.00    +0.075 A 
ATOM     24  C   UNL     1       0.884   1.880   1.905  0.00  0.00    +0.127 A 
ATOM     26  C   UNL     1       0.480   2.413   3.238  0.00  0.00    +0.088 C 
BRANCH  23  25
ATOM     25  C   UNL     1       3.771   0.302   0.503  0.00  0.00    +0.004 A 
ATOM     27  C   UNL     1       3.928  -1.032   0.126  0.00  0.00    +0.059 A 
ATOM     28  C   UNL     1       4.892   1.082   0.785  0.00  0.00    +0.014 A 
ATOM     29  C   UNL     1       5.204  -1.585   0.031  0.00  0.00    +0.162 A 
ATOM     30  C   UNL     1       6.169   0.529   0.691  0.00  0.00    +0.050 A 
ATOM     31  C   UNL     1       6.325  -0.805   0.313  0.00  0.00    +0.162 A 
BRANCH  29   2
ATOM      2  O   UNL     1       5.344  -2.889  -0.341  0.00  0.00    -0.491 OA
ATOM     32  C   UNL     1       5.471  -3.154  -1.737  0.00  0.00    +0.277 C 
ENDBRANCH  29   2
BRANCH  31   3
ATOM      3  O   UNL     1       7.577  -1.334   0.224  0.00  0.00    -0.491 OA
ATOM     33  C   UNL     1       8.670  -0.469   0.529  0.00  0.00    +0.277 C 
ENDBRANCH  31   3
ENDBRANCH  23  25
ENDBRANCH   9  16
BRANCH  10  15
ATOM     15  C   UNL     1      -3.222  -1.272  -0.667  0.00  0.00    +0.123 C 
BRANCH  15   5
ATOM      1  O   UNL     1      -5.961  -2.102  -0.905  0.00  0.00    -0.276 OA
ATOM      5  N   UNL     1      -4.206  -1.293   0.371  0.00  0.00    -0.314 N 
ATOM     19  C   UNL     1      -5.524  -1.711   0.182  0.00  0.00    +0.216 C 
ATOM     34  H   UNL     1      -3.926  -0.980   1.296  0.00  0.00    +0.149 HD
BRANCH  19  17
ATOM     17  C   UNL     1      -6.391  -1.631   1.453  0.00  0.00    +0.075 C 
ATOM     20  C   UNL     1      -6.734  -0.225   1.990  0.00  0.00    +0.013 C 
ATOM     21  C   UNL     1      -7.909  -1.855   1.292  0.00  0.00    +0.013 C 
ATOM     22  C   UNL     1      -8.105  -0.801   2.401  0.00  0.00    +0.001 C 
ENDBRANCH  19  17
ENDBRANCH  15   5
ENDBRANCH  10  15
TORSDOF 7
