MODEL 1
REMARK VINA RESULT:      -7.1      0.000      0.000
REMARK  Name = 45783823
REMARK  7 active torsions:
REMARK  status: ('A' for Active; 'I' for Inactive)
REMARK    1  A    between atoms: N_3  and  C_12
REMARK    2  A    between atoms: N_7  and  C_27
REMARK    3  A    between atoms: N_7  and  C_28
REMARK    4  A    between atoms: N_7  and  C_29
REMARK    5  A    between atoms: C_8  and  C_13
REMARK    6  A    between atoms: C_12  and  C_14
REMARK    7  A    between atoms: C_17  and  C_19
REMARK                            x       y       z     vdW  Elec       q    Type
REMARK                         _______ _______ _______ _____ _____    ______ ____
ROOT
ATOM      3  N   UNL     1      13.135   7.789  20.479  0.00  0.00    -0.284 NA
ATOM      8  C   UNL     1      12.203   7.849  19.335  0.00  0.00    +0.146 C 
ATOM      9  C   UNL     1      10.977   8.613  19.868  0.00  0.00    +0.030 C 
ATOM     10  C   UNL     1      11.285   8.884  21.334  0.00  0.00    +0.017 C 
ATOM     11  C   UNL     1      12.309   7.825  21.686  0.00  0.00    +0.085 C 
ENDROOT
BRANCH   8  13
ATOM      1  O   UNL     1      12.365   8.086  16.908  0.00  0.00    -0.336 OA
ATOM      4  N   UNL     1      13.736   9.439  18.052  0.00  0.00    -0.190 NA
ATOM      5  N   UNL     1      13.070   8.829  15.951  0.00  0.00    -0.056 NA
ATOM     13  C   UNL     1      12.817   8.509  18.118  0.00  0.00    +0.245 A 
ATOM     17  C   UNL     1      13.858   9.603  16.704  0.00  0.00    +0.204 A 
BRANCH  17  19
ATOM      6  N   UNL     1      16.040  11.312  14.225  0.00  0.00    -0.240 NA
ATOM     19  C   UNL     1      14.775  10.550  16.139  0.00  0.00    +0.041 A 
ATOM     24  C   UNL     1      15.287  11.593  16.902  0.00  0.00    +0.016 A 
ATOM     25  C   UNL     1      15.179  10.454  14.817  0.00  0.00    +0.124 A 
ATOM     26  C   UNL     1      16.175  12.496  16.328  0.00  0.00    +0.044 A 
ATOM     27  C   UNL     1      16.516  12.313  14.997  0.00  0.00    +0.121 A 
BRANCH  27   7
ATOM      7  N   UNL     1      17.421  13.242  14.426  0.00  0.00    -0.321 N 
ATOM     28  C   UNL     1      17.935  13.031  13.091  0.00  0.00    +0.130 C 
ATOM     29  C   UNL     1      17.843  14.403  15.178  0.00  0.00    +0.130 C 
ENDBRANCH  27   7
ENDBRANCH  17  19
ENDBRANCH   8  13
BRANCH   3  12
ATOM     12  C   UNL     1      14.009   6.624  20.447  0.00  0.00    +0.159 C 
BRANCH  12  14
ATOM      2  O   UNL     1      16.382   6.123  20.251  0.00  0.00    -0.458 OA
ATOM     14  C   UNL     1      15.445   6.992  20.710  0.00  0.00    +0.120 A 
ATOM     15  C   UNL     1      16.039   8.062  21.339  0.00  0.00    +0.054 A 
ATOM     16  C   UNL     1      17.440   7.842  21.265  0.00  0.00    +0.020 A 
ATOM     18  C   UNL     1      17.598   6.637  20.587  0.00  0.00    +0.135 A 
ATOM     20  C   UNL     1      18.590   8.526  21.697  0.00  0.00    +0.011 A 
ATOM     21  C   UNL     1      18.832   6.057  20.304  0.00  0.00    +0.047 A 
ATOM     22  C   UNL     1      19.847   7.966  21.426  0.00  0.00    +0.001 A 
ATOM     23  C   UNL     1      19.963   6.753  20.741  0.00  0.00    +0.004 A 
ENDBRANCH  12  14
ENDBRANCH   3  12
TORSDOF 5
ENDMDL
MODEL 2
REMARK VINA RESULT:      -7.1      3.303      7.251
REMARK  Name = 45783823
REMARK  7 active torsions:
REMARK  status: ('A' for Active; 'I' for Inactive)
REMARK    1  A    between atoms: N_3  and  C_12
REMARK    2  A    between atoms: N_7  and  C_27
REMARK    3  A    between atoms: N_7  and  C_28
REMARK    4  A    between atoms: N_7  and  C_29
REMARK    5  A    between atoms: C_8  and  C_13
REMARK    6  A    between atoms: C_12  and  C_14
REMARK    7  A    between atoms: C_17  and  C_19
REMARK                            x       y       z     vdW  Elec       q    Type
REMARK                         _______ _______ _______ _____ _____    ______ ____
ROOT
ATOM      3  N   UNL     1      12.534   8.580  18.613  0.00  0.00    -0.284 NA
ATOM      8  C   UNL     1      13.359   7.419  18.220  0.00  0.00    +0.146 C 
ATOM      9  C   UNL     1      13.918   7.788  16.833  0.00  0.00    +0.030 C 
ATOM     10  C   UNL     1      13.304   9.142  16.504  0.00  0.00    +0.017 C 
ATOM     11  C   UNL     1      12.062   9.190  17.370  0.00  0.00    +0.085 C 
ENDROOT
BRANCH   8  13
ATOM      1  O   UNL     1      14.043   6.636  20.432  0.00  0.00    -0.336 OA
ATOM      4  N   UNL     1      15.746   7.241  19.109  0.00  0.00    -0.190 NA
ATOM      5  N   UNL     1      15.210   6.431  21.180  0.00  0.00    -0.056 NA
ATOM     13  C   UNL     1      14.449   7.112  19.226  0.00  0.00    +0.245 A 
ATOM     17  C   UNL     1      16.170   6.811  20.333  0.00  0.00    +0.204 A 
BRANCH  17  19
ATOM      6  N   UNL     1      19.403   7.686  21.950  0.00  0.00    -0.240 NA
ATOM     19  C   UNL     1      17.562   6.771  20.677  0.00  0.00    +0.041 A 
ATOM     24  C   UNL     1      18.413   5.828  20.111  0.00  0.00    +0.016 A 
ATOM     25  C   UNL     1      18.101   7.670  21.583  0.00  0.00    +0.124 A 
ATOM     26  C   UNL     1      19.758   5.814  20.464  0.00  0.00    +0.044 A 
ATOM     27  C   UNL     1      20.199   6.756  21.380  0.00  0.00    +0.121 A 
BRANCH  27   7
ATOM      7  N   UNL     1      21.572   6.727  21.730  0.00  0.00    -0.321 N 
ATOM     28  C   UNL     1      21.969   6.747  23.120  0.00  0.00    +0.130 C 
ATOM     29  C   UNL     1      22.585   6.686  20.698  0.00  0.00    +0.130 C 
ENDBRANCH  27   7
ENDBRANCH  17  19
ENDBRANCH   8  13
BRANCH   3  12
ATOM     12  C   UNL     1      11.437   8.229  19.504  0.00  0.00    +0.159 C 
BRANCH  12  14
ATOM      2  O   UNL     1      11.793  10.419  20.502  0.00  0.00    -0.458 OA
ATOM     14  C   UNL     1      11.370   9.143  20.698  0.00  0.00    +0.120 A 
ATOM     15  C   UNL     1      10.956   8.962  21.998  0.00  0.00    +0.054 A 
ATOM     16  C   UNL     1      11.134  10.209  22.653  0.00  0.00    +0.020 A 
ATOM     18  C   UNL     1      11.651  11.071  21.691  0.00  0.00    +0.135 A 
ATOM     20  C   UNL     1      10.918  10.704  23.951  0.00  0.00    +0.011 A 
ATOM     21  C   UNL     1      11.972  12.405  21.929  0.00  0.00    +0.047 A 
ATOM     22  C   UNL     1      11.231  12.043  24.220  0.00  0.00    +0.001 A 
ATOM     23  C   UNL     1      11.748  12.877  23.226  0.00  0.00    +0.004 A 
ENDBRANCH  12  14
ENDBRANCH   3  12
TORSDOF 5
ENDMDL
MODEL 3
REMARK VINA RESULT:      -7.0      4.306      7.632
REMARK  Name = 45783823
REMARK  7 active torsions:
REMARK  status: ('A' for Active; 'I' for Inactive)
REMARK    1  A    between atoms: N_3  and  C_12
REMARK    2  A    between atoms: N_7  and  C_27
REMARK    3  A    between atoms: N_7  and  C_28
REMARK    4  A    between atoms: N_7  and  C_29
REMARK    5  A    between atoms: C_8  and  C_13
REMARK    6  A    between atoms: C_12  and  C_14
REMARK    7  A    between atoms: C_17  and  C_19
REMARK                            x       y       z     vdW  Elec       q    Type
REMARK                         _______ _______ _______ _____ _____    ______ ____
ROOT
ATOM      3  N   UNL     1      12.690   9.114  20.531  0.00  0.00    -0.284 NA
ATOM      8  C   UNL     1      13.227   8.084  21.443  0.00  0.00    +0.146 C 
ATOM      9  C   UNL     1      12.070   7.086  21.631  0.00  0.00    +0.030 C 
ATOM     10  C   UNL     1      10.909   7.670  20.839  0.00  0.00    +0.017 C 
ATOM     11  C   UNL     1      11.244   9.145  20.749  0.00  0.00    +0.085 C 
ENDROOT
BRANCH   8  13
ATOM      1  O   UNL     1      14.360   6.761  19.729  0.00  0.00    -0.336 OA
ATOM      4  N   UNL     1      15.689   7.403  21.414  0.00  0.00    -0.190 NA
ATOM      5  N   UNL     1      15.632   6.247  19.441  0.00  0.00    -0.056 NA
ATOM     13  C   UNL     1      14.483   7.428  20.906  0.00  0.00    +0.245 A 
ATOM     17  C   UNL     1      16.359   6.668  20.480  0.00  0.00    +0.204 A 
BRANCH  17  19
ATOM      6  N   UNL     1      19.669   5.072  19.910  0.00  0.00    -0.240 NA
ATOM     19  C   UNL     1      17.756   6.372  20.614  0.00  0.00    +0.041 A 
ATOM     24  C   UNL     1      18.547   7.054  21.531  0.00  0.00    +0.016 A 
ATOM     25  C   UNL     1      18.359   5.399  19.833  0.00  0.00    +0.124 A 
ATOM     26  C   UNL     1      19.899   6.745  21.639  0.00  0.00    +0.044 A 
ATOM     27  C   UNL     1      20.406   5.755  20.812  0.00  0.00    +0.121 A 
BRANCH  27   7
ATOM      7  N   UNL     1      21.786   5.454  20.933  0.00  0.00    -0.321 N 
ATOM     28  C   UNL     1      22.209   4.133  21.341  0.00  0.00    +0.130 C 
ATOM     29  C   UNL     1      22.779   6.467  20.656  0.00  0.00    +0.130 C 
ENDBRANCH  27   7
ENDBRANCH  17  19
ENDBRANCH   8  13
BRANCH   3  12
ATOM     12  C   UNL     1      13.302  10.423  20.720  0.00  0.00    +0.159 C 
BRANCH  12  14
ATOM      2  O   UNL     1      12.580  10.987  22.974  0.00  0.00    -0.458 OA
ATOM     14  C   UNL     1      12.496  11.289  21.652  0.00  0.00    +0.120 A 
ATOM     15  C   UNL     1      11.660  12.362  21.449  0.00  0.00    +0.054 A 
ATOM     16  C   UNL     1      11.193  12.754  22.731  0.00  0.00    +0.020 A 
ATOM     18  C   UNL     1      11.788  11.878  23.634  0.00  0.00    +0.135 A 
ATOM     20  C   UNL     1      10.334  13.751  23.228  0.00  0.00    +0.011 A 
ATOM     21  C   UNL     1      11.587  11.922  25.012  0.00  0.00    +0.047 A 
ATOM     22  C   UNL     1      10.114  13.819  24.611  0.00  0.00    +0.001 A 
ATOM     23  C   UNL     1      10.731  12.921  25.485  0.00  0.00    +0.004 A 
ENDBRANCH  12  14
ENDBRANCH   3  12
TORSDOF 5
ENDMDL
MODEL 4
REMARK VINA RESULT:      -6.8      3.952      7.357
REMARK  Name = 45783823
REMARK  7 active torsions:
REMARK  status: ('A' for Active; 'I' for Inactive)
REMARK    1  A    between atoms: N_3  and  C_12
REMARK    2  A    between atoms: N_7  and  C_27
REMARK    3  A    between atoms: N_7  and  C_28
REMARK    4  A    between atoms: N_7  and  C_29
REMARK    5  A    between atoms: C_8  and  C_13
REMARK    6  A    between atoms: C_12  and  C_14
REMARK    7  A    between atoms: C_17  and  C_19
REMARK                            x       y       z     vdW  Elec       q    Type
REMARK                         _______ _______ _______ _____ _____    ______ ____
ROOT
ATOM      3  N   UNL     1      12.482   8.390  19.795  0.00  0.00    -0.284 NA
ATOM      8  C   UNL     1      13.312   7.281  19.280  0.00  0.00    +0.146 C 
ATOM      9  C   UNL     1      13.121   7.326  17.753  0.00  0.00    +0.030 C 
ATOM     10  C   UNL     1      12.122   8.448  17.510  0.00  0.00    +0.017 C 
ATOM     11  C   UNL     1      11.395   8.571  18.834  0.00  0.00    +0.085 C 
ENDROOT
BRANCH   8  13
ATOM      1  O   UNL     1      15.197   8.647  20.027  0.00  0.00    -0.336 OA
ATOM      4  N   UNL     1      15.686   6.476  19.770  0.00  0.00    -0.190 NA
ATOM      5  N   UNL     1      16.550   8.510  20.364  0.00  0.00    -0.056 NA
ATOM     13  C   UNL     1      14.765   7.403  19.691  0.00  0.00    +0.245 A 
ATOM     17  C   UNL     1      16.764   7.202  20.186  0.00  0.00    +0.204 A 
BRANCH  17  19
ATOM      6  N   UNL     1      19.605   4.818  19.916  0.00  0.00    -0.240 NA
ATOM     19  C   UNL     1      18.040   6.591  20.419  0.00  0.00    +0.041 A 
ATOM     24  C   UNL     1      18.937   7.133  21.333  0.00  0.00    +0.016 A 
ATOM     25  C   UNL     1      18.418   5.443  19.742  0.00  0.00    +0.124 A 
ATOM     26  C   UNL     1      20.167   6.518  21.539  0.00  0.00    +0.044 A 
ATOM     27  C   UNL     1      20.450   5.373  20.811  0.00  0.00    +0.121 A 
BRANCH  27   7
ATOM      7  N   UNL     1      21.709   4.759  21.031  0.00  0.00    -0.321 N 
ATOM     28  C   UNL     1      22.904   5.319  20.442  0.00  0.00    +0.130 C 
ATOM     29  C   UNL     1      21.803   3.564  21.839  0.00  0.00    +0.130 C 
ENDBRANCH  27   7
ENDBRANCH  17  19
ENDBRANCH   8  13
BRANCH   3  12
ATOM     12  C   UNL     1      11.988   8.157  21.146  0.00  0.00    +0.159 C 
BRANCH  12  14
ATOM      2  O   UNL     1      11.098   9.757  22.748  0.00  0.00    -0.458 OA
ATOM     14  C   UNL     1      12.180   9.361  22.028  0.00  0.00    +0.120 A 
ATOM     15  C   UNL     1      13.257  10.181  22.276  0.00  0.00    +0.054 A 
ATOM     16  C   UNL     1      12.814  11.153  23.212  0.00  0.00    +0.020 A 
ATOM     18  C   UNL     1      11.481  10.848  23.470  0.00  0.00    +0.135 A 
ATOM     20  C   UNL     1      13.391  12.254  23.869  0.00  0.00    +0.011 A 
ATOM     21  C   UNL     1      10.670  11.569  24.344  0.00  0.00    +0.047 A 
ATOM     22  C   UNL     1      12.599  12.998  24.755  0.00  0.00    +0.001 A 
ATOM     23  C   UNL     1      11.263  12.659  24.987  0.00  0.00    +0.004 A 
ENDBRANCH  12  14
ENDBRANCH   3  12
TORSDOF 5
ENDMDL
MODEL 5
REMARK VINA RESULT:      -6.7     28.832     32.025
REMARK  Name = 45783823
REMARK  7 active torsions:
REMARK  status: ('A' for Active; 'I' for Inactive)
REMARK    1  A    between atoms: N_3  and  C_12
REMARK    2  A    between atoms: N_7  and  C_27
REMARK    3  A    between atoms: N_7  and  C_28
REMARK    4  A    between atoms: N_7  and  C_29
REMARK    5  A    between atoms: C_8  and  C_13
REMARK    6  A    between atoms: C_12  and  C_14
REMARK    7  A    between atoms: C_17  and  C_19
REMARK                            x       y       z     vdW  Elec       q    Type
REMARK                         _______ _______ _______ _____ _____    ______ ____
ROOT
ATOM      3  N   UNL     1     -11.077 -11.940  20.193  0.00  0.00    -0.284 NA
ATOM      8  C   UNL     1     -10.654 -11.199  18.987  0.00  0.00    +0.146 C 
ATOM      9  C   UNL     1     -11.375  -9.843  19.088  0.00  0.00    +0.030 C 
ATOM     10  C   UNL     1     -12.226  -9.937  20.347  0.00  0.00    +0.017 C 
ATOM     11  C   UNL     1     -12.400 -11.429  20.548  0.00  0.00    +0.085 C 
ENDROOT
BRANCH   8  13
ATOM      1  O   UNL     1      -8.479 -10.909  20.064  0.00  0.00    -0.336 OA
ATOM      4  N   UNL     1      -8.382 -11.047  17.830  0.00  0.00    -0.190 NA
ATOM      5  N   UNL     1      -7.124 -10.795  19.724  0.00  0.00    -0.056 NA
ATOM     13  C   UNL     1      -9.149 -11.055  18.890  0.00  0.00    +0.245 A 
ATOM     17  C   UNL     1      -7.149 -10.885  18.391  0.00  0.00    +0.204 A 
BRANCH  17  19
ATOM      6  N   UNL     1      -4.912 -10.242  15.490  0.00  0.00    -0.240 NA
ATOM     19  C   UNL     1      -5.960 -10.819  17.592  0.00  0.00    +0.041 A 
ATOM     24  C   UNL     1      -4.735 -11.244  18.094  0.00  0.00    +0.016 A 
ATOM     25  C   UNL     1      -5.995 -10.330  16.296  0.00  0.00    +0.124 A 
ATOM     26  C   UNL     1      -3.599 -11.170  17.296  0.00  0.00    +0.044 A 
ATOM     27  C   UNL     1      -3.740 -10.665  16.013  0.00  0.00    +0.121 A 
BRANCH  27   7
ATOM      7  N   UNL     1      -2.573 -10.593  15.212  0.00  0.00    -0.321 N 
ATOM     28  C   UNL     1      -1.268 -10.520  15.832  0.00  0.00    +0.130 C 
ATOM     29  C   UNL     1      -2.679 -10.585  13.770  0.00  0.00    +0.130 C 
ENDBRANCH  27   7
ENDBRANCH  17  19
ENDBRANCH   8  13
BRANCH   3  12
ATOM     12  C   UNL     1     -11.078 -13.385  20.008  0.00  0.00    +0.159 C 
BRANCH  12  14
ATOM      2  O   UNL     1     -11.170 -14.244  22.283  0.00  0.00    -0.458 OA
ATOM     14  C   UNL     1     -10.420 -14.098  21.159  0.00  0.00    +0.120 A 
ATOM     15  C   UNL     1      -9.175 -14.658  21.329  0.00  0.00    +0.054 A 
ATOM     16  C   UNL     1      -9.149 -15.187  22.647  0.00  0.00    +0.020 A 
ATOM     18  C   UNL     1     -10.399 -14.906  23.190  0.00  0.00    +0.135 A 
ATOM     20  C   UNL     1      -8.210 -15.869  23.439  0.00  0.00    +0.011 A 
ATOM     21  C   UNL     1     -10.786 -15.260  24.481  0.00  0.00    +0.047 A 
ATOM     22  C   UNL     1      -8.571 -16.238  24.742  0.00  0.00    +0.001 A 
ATOM     23  C   UNL     1      -9.837 -15.939  25.252  0.00  0.00    +0.004 A 
ENDBRANCH  12  14
ENDBRANCH   3  12
TORSDOF 5
ENDMDL
MODEL 6
REMARK VINA RESULT:      -6.7      4.674      7.271
REMARK  Name = 45783823
REMARK  7 active torsions:
REMARK  status: ('A' for Active; 'I' for Inactive)
REMARK    1  A    between atoms: N_3  and  C_12
REMARK    2  A    between atoms: N_7  and  C_27
REMARK    3  A    between atoms: N_7  and  C_28
REMARK    4  A    between atoms: N_7  and  C_29
REMARK    5  A    between atoms: C_8  and  C_13
REMARK    6  A    between atoms: C_12  and  C_14
REMARK    7  A    between atoms: C_17  and  C_19
REMARK                            x       y       z     vdW  Elec       q    Type
REMARK                         _______ _______ _______ _____ _____    ______ ____
ROOT
ATOM      3  N   UNL     1      12.811   8.209  20.842  0.00  0.00    -0.284 NA
ATOM      8  C   UNL     1      11.618   9.080  20.862  0.00  0.00    +0.146 C 
ATOM      9  C   UNL     1      10.492   8.188  21.414  0.00  0.00    +0.030 C 
ATOM     10  C   UNL     1      11.129   6.820  21.615  0.00  0.00    +0.017 C 
ATOM     11  C   UNL     1      12.320   6.841  20.678  0.00  0.00    +0.085 C 
ENDROOT
BRANCH   8  13
ATOM      1  O   UNL     1      11.557  11.515  21.072  0.00  0.00    -0.336 OA
ATOM      4  N   UNL     1      12.239  10.455  22.924  0.00  0.00    -0.190 NA
ATOM      5  N   UNL     1      11.821  12.514  22.018  0.00  0.00    -0.056 NA
ATOM     13  C   UNL     1      11.827  10.334  21.687  0.00  0.00    +0.245 A 
ATOM     17  C   UNL     1      12.219  11.810  23.082  0.00  0.00    +0.204 A 
BRANCH  17  19
ATOM      6  N   UNL     1      13.870  12.331  26.374  0.00  0.00    -0.240 NA
ATOM     19  C   UNL     1      12.601  12.430  24.318  0.00  0.00    +0.041 A 
ATOM     24  C   UNL     1      12.108  13.680  24.674  0.00  0.00    +0.016 A 
ATOM     25  C   UNL     1      13.472  11.803  25.195  0.00  0.00    +0.124 A 
ATOM     26  C   UNL     1      12.494  14.256  25.879  0.00  0.00    +0.044 A 
ATOM     27  C   UNL     1      13.370  13.547  26.686  0.00  0.00    +0.121 A 
BRANCH  27   7
ATOM      7  N   UNL     1      13.756  14.148  27.910  0.00  0.00    -0.321 N 
ATOM     28  C   UNL     1      13.440  15.535  28.171  0.00  0.00    +0.130 C 
ATOM     29  C   UNL     1      14.477  13.381  28.902  0.00  0.00    +0.130 C 
ENDBRANCH  27   7
ENDBRANCH  17  19
ENDBRANCH   8  13
BRANCH   3  12
ATOM     12  C   UNL     1      13.772   8.575  19.809  0.00  0.00    +0.159 C 
BRANCH  12  14
ATOM      2  O   UNL     1      15.558   7.014  19.268  0.00  0.00    -0.458 OA
ATOM     14  C   UNL     1      15.139   8.011  20.091  0.00  0.00    +0.120 A 
ATOM     15  C   UNL     1      16.096   8.298  21.037  0.00  0.00    +0.054 A 
ATOM     16  C   UNL     1      17.183   7.419  20.785  0.00  0.00    +0.020 A 
ATOM     18  C   UNL     1      16.803   6.651  19.689  0.00  0.00    +0.135 A 
ATOM     20  C   UNL     1      18.444   7.187  21.363  0.00  0.00    +0.011 A 
ATOM     21  C   UNL     1      17.595   5.658  19.119  0.00  0.00    +0.047 A 
ATOM     22  C   UNL     1      19.264   6.194  20.810  0.00  0.00    +0.001 A 
ATOM     23  C   UNL     1      18.845   5.444  19.707  0.00  0.00    +0.004 A 
ENDBRANCH  12  14
ENDBRANCH   3  12
TORSDOF 5
ENDMDL
MODEL 7
REMARK VINA RESULT:      -6.7     32.083     33.661
REMARK  Name = 45783823
REMARK  7 active torsions:
REMARK  status: ('A' for Active; 'I' for Inactive)
REMARK    1  A    between atoms: N_3  and  C_12
REMARK    2  A    between atoms: N_7  and  C_27
REMARK    3  A    between atoms: N_7  and  C_28
REMARK    4  A    between atoms: N_7  and  C_29
REMARK    5  A    between atoms: C_8  and  C_13
REMARK    6  A    between atoms: C_12  and  C_14
REMARK    7  A    between atoms: C_17  and  C_19
REMARK                            x       y       z     vdW  Elec       q    Type
REMARK                         _______ _______ _______ _____ _____    ______ ____
ROOT
ATOM      3  N   UNL     1      -1.169 -13.854   2.274  0.00  0.00    -0.284 NA
ATOM      8  C   UNL     1      -2.258 -14.420   1.451  0.00  0.00    +0.146 C 
ATOM      9  C   UNL     1      -3.483 -13.542   1.766  0.00  0.00    +0.030 C 
ATOM     10  C   UNL     1      -3.004 -12.553   2.819  0.00  0.00    +0.017 C 
ATOM     11  C   UNL     1      -1.808 -13.245   3.441  0.00  0.00    +0.085 C 
ENDROOT
BRANCH   8  13
ATOM      1  O   UNL     1      -2.446 -15.465  -0.750  0.00  0.00    -0.336 OA
ATOM      4  N   UNL     1      -1.183 -13.614  -0.721  0.00  0.00    -0.190 NA
ATOM      5  N   UNL     1      -2.000 -15.275  -2.066  0.00  0.00    -0.056 NA
ATOM     13  C   UNL     1      -1.920 -14.442  -0.025  0.00  0.00    +0.245 A 
ATOM     17  C   UNL     1      -1.262 -14.166  -1.967  0.00  0.00    +0.204 A 
BRANCH  17  19
ATOM      6  N   UNL     1      -0.706 -12.749  -5.360  0.00  0.00    -0.240 NA
ATOM     19  C   UNL     1      -0.593 -13.582  -3.093  0.00  0.00    +0.041 A 
ATOM     24  C   UNL     1       0.764 -13.284  -3.044  0.00  0.00    +0.016 A 
ATOM     25  C   UNL     1      -1.277 -13.298  -4.264  0.00  0.00    +0.124 A 
ATOM     26  C   UNL     1       1.387 -12.720  -4.152  0.00  0.00    +0.044 A 
ATOM     27  C   UNL     1       0.613 -12.474  -5.276  0.00  0.00    +0.121 A 
BRANCH  27   7
ATOM      7  N   UNL     1       1.262 -11.897  -6.396  0.00  0.00    -0.321 N 
ATOM     28  C   UNL     1       0.750 -12.123  -7.729  0.00  0.00    +0.130 C 
ATOM     29  C   UNL     1       2.444 -11.084  -6.213  0.00  0.00    +0.130 C 
ENDBRANCH  27   7
ENDBRANCH  17  19
ENDBRANCH   8  13
BRANCH   3  12
ATOM     12  C   UNL     1      -0.163 -14.838   2.650  0.00  0.00    +0.159 C 
BRANCH  12  14
ATOM      2  O   UNL     1       2.113 -15.537   2.148  0.00  0.00    -0.458 OA
ATOM     14  C   UNL     1       1.116 -14.656   1.875  0.00  0.00    +0.120 A 
ATOM     15  C   UNL     1       1.510 -13.756   0.912  0.00  0.00    +0.054 A 
ATOM     16  C   UNL     1       2.842 -14.101   0.563  0.00  0.00    +0.020 A 
ATOM     18  C   UNL     1       3.166 -15.202   1.350  0.00  0.00    +0.135 A 
ATOM     20  C   UNL     1       3.809 -13.606  -0.329  0.00  0.00    +0.011 A 
ATOM     21  C   UNL     1       4.397 -15.853   1.313  0.00  0.00    +0.047 A 
ATOM     22  C   UNL     1       5.057 -14.241  -0.389  0.00  0.00    +0.001 A 
ATOM     23  C   UNL     1       5.344 -15.345   0.419  0.00  0.00    +0.004 A 
ENDBRANCH  12  14
ENDBRANCH   3  12
TORSDOF 5
ENDMDL
MODEL 8
REMARK VINA RESULT:      -6.7     14.278     17.848
REMARK  Name = 45783823
REMARK  7 active torsions:
REMARK  status: ('A' for Active; 'I' for Inactive)
REMARK    1  A    between atoms: N_3  and  C_12
REMARK    2  A    between atoms: N_7  and  C_27
REMARK    3  A    between atoms: N_7  and  C_28
REMARK    4  A    between atoms: N_7  and  C_29
REMARK    5  A    between atoms: C_8  and  C_13
REMARK    6  A    between atoms: C_12  and  C_14
REMARK    7  A    between atoms: C_17  and  C_19
REMARK                            x       y       z     vdW  Elec       q    Type
REMARK                         _______ _______ _______ _____ _____    ______ ____
ROOT
ATOM      3  N   UNL     1       9.440   7.800   6.143  0.00  0.00    -0.284 NA
ATOM      8  C   UNL     1      10.564   6.857   6.314  0.00  0.00    +0.146 C 
ATOM      9  C   UNL     1      10.334   6.219   7.695  0.00  0.00    +0.030 C 
ATOM     10  C   UNL     1       9.095   6.909   8.251  0.00  0.00    +0.017 C 
ATOM     11  C   UNL     1       9.044   8.217   7.488  0.00  0.00    +0.085 C 
ENDROOT
BRANCH   8  13
ATOM      1  O   UNL     1      10.059   4.627   5.451  0.00  0.00    -0.336 OA
ATOM      4  N   UNL     1      11.184   5.929   4.016  0.00  0.00    -0.190 NA
ATOM      5  N   UNL     1      10.253   3.859   4.295  0.00  0.00    -0.056 NA
ATOM     13  C   UNL     1      10.637   5.832   5.201  0.00  0.00    +0.245 A 
ATOM     17  C   UNL     1      10.923   4.695   3.497  0.00  0.00    +0.204 A 
BRANCH  17  19
ATOM      6  N   UNL     1      10.796   4.042  -0.162  0.00  0.00    -0.240 NA
ATOM     19  C   UNL     1      11.344   4.329   2.175  0.00  0.00    +0.041 A 
ATOM     24  C   UNL     1      12.648   3.918   1.927  0.00  0.00    +0.016 A 
ATOM     25  C   UNL     1      10.464   4.374   1.106  0.00  0.00    +0.124 A 
ATOM     26  C   UNL     1      13.028   3.568   0.636  0.00  0.00    +0.044 A 
ATOM     27  C   UNL     1      12.072   3.647  -0.365  0.00  0.00    +0.121 A 
BRANCH  27   7
ATOM      7  N   UNL     1      12.474   3.289  -1.676  0.00  0.00    -0.321 N 
ATOM     28  C   UNL     1      13.588   3.962  -2.304  0.00  0.00    +0.130 C 
ATOM     29  C   UNL     1      11.766   2.254  -2.396  0.00  0.00    +0.130 C 
ENDBRANCH  27   7
ENDBRANCH  17  19
ENDBRANCH   8  13
BRANCH   3  12
ATOM     12  C   UNL     1       9.767   8.936   5.291  0.00  0.00    +0.159 C 
BRANCH  12  14
ATOM      2  O   UNL     1       7.536   9.653   4.636  0.00  0.00    -0.458 OA
ATOM     14  C   UNL     1       8.729   9.152   4.222  0.00  0.00    +0.120 A 
ATOM     15  C   UNL     1       8.725   8.944   2.862  0.00  0.00    +0.054 A 
ATOM     16  C   UNL     1       7.443   9.344   2.400  0.00  0.00    +0.020 A 
ATOM     18  C   UNL     1       6.751   9.771   3.529  0.00  0.00    +0.135 A 
ATOM     20  C   UNL     1       6.791   9.390   1.155  0.00  0.00    +0.011 A 
ATOM     21  C   UNL     1       5.442  10.247   3.509  0.00  0.00    +0.047 A 
ATOM     22  C   UNL     1       5.473   9.865   1.104  0.00  0.00    +0.001 A 
ATOM     23  C   UNL     1       4.813  10.287   2.261  0.00  0.00    +0.004 A 
ENDBRANCH  12  14
ENDBRANCH   3  12
TORSDOF 5
ENDMDL
MODEL 9
REMARK VINA RESULT:      -6.6     27.682     29.318
REMARK  Name = 45783823
REMARK  7 active torsions:
REMARK  status: ('A' for Active; 'I' for Inactive)
REMARK    1  A    between atoms: N_3  and  C_12
REMARK    2  A    between atoms: N_7  and  C_27
REMARK    3  A    between atoms: N_7  and  C_28
REMARK    4  A    between atoms: N_7  and  C_29
REMARK    5  A    between atoms: C_8  and  C_13
REMARK    6  A    between atoms: C_12  and  C_14
REMARK    7  A    between atoms: C_17  and  C_19
REMARK                            x       y       z     vdW  Elec       q    Type
REMARK                         _______ _______ _______ _____ _____    ______ ____
ROOT
ATOM      3  N   UNL     1      -3.411 -11.877  13.846  0.00  0.00    -0.284 NA
ATOM      8  C   UNL     1      -2.550 -11.897  12.645  0.00  0.00    +0.146 C 
ATOM      9  C   UNL     1      -2.536 -13.369  12.198  0.00  0.00    +0.030 C 
ATOM     10  C   UNL     1      -3.362 -14.110  13.241  0.00  0.00    +0.017 C 
ATOM     11  C   UNL     1      -3.301 -13.204  14.453  0.00  0.00    +0.085 C 
ENDROOT
BRANCH   8  13
ATOM      1  O   UNL     1      -2.210  -9.947  11.211  0.00  0.00    -0.336 OA
ATOM      4  N   UNL     1      -4.173 -10.981  10.899  0.00  0.00    -0.190 NA
ATOM      5  N   UNL     1      -2.874  -9.229  10.207  0.00  0.00    -0.056 NA
ATOM     13  C   UNL     1      -3.044 -10.962  11.561  0.00  0.00    +0.245 A 
ATOM     17  C   UNL     1      -4.023  -9.899  10.080  0.00  0.00    +0.204 A 
BRANCH  17  19
ATOM      6  N   UNL     1      -6.972  -8.155   8.634  0.00  0.00    -0.240 NA
ATOM     19  C   UNL     1      -5.040  -9.516   9.144  0.00  0.00    +0.041 A 
ATOM     24  C   UNL     1      -5.103 -10.092   7.881  0.00  0.00    +0.016 A 
ATOM     25  C   UNL     1      -5.988  -8.560   9.469  0.00  0.00    +0.124 A 
ATOM     26  C   UNL     1      -6.101  -9.702   6.994  0.00  0.00    +0.044 A 
ATOM     27  C   UNL     1      -7.002  -8.737   7.416  0.00  0.00    +0.121 A 
BRANCH  27   7
ATOM      7  N   UNL     1      -8.012  -8.348   6.500  0.00  0.00    -0.321 N 
ATOM     28  C   UNL     1      -8.771  -7.138   6.725  0.00  0.00    +0.130 C 
ATOM     29  C   UNL     1      -8.295  -9.164   5.340  0.00  0.00    +0.130 C 
ENDBRANCH  27   7
ENDBRANCH  17  19
ENDBRANCH   8  13
BRANCH   3  12
ATOM     12  C   UNL     1      -3.066 -10.815  14.782  0.00  0.00    +0.159 C 
BRANCH  12  14
ATOM      2  O   UNL     1      -3.682 -11.362  17.072  0.00  0.00    -0.458 OA
ATOM     14  C   UNL     1      -4.046 -10.734  15.923  0.00  0.00    +0.120 A 
ATOM     15  C   UNL     1      -5.278 -10.138  16.062  0.00  0.00    +0.054 A 
ATOM     16  C   UNL     1      -5.710 -10.415  17.386  0.00  0.00    +0.020 A 
ATOM     18  C   UNL     1      -4.694 -11.169  17.964  0.00  0.00    +0.135 A 
ATOM     20  C   UNL     1      -6.845 -10.112  18.158  0.00  0.00    +0.011 A 
ATOM     21  C   UNL     1      -4.726 -11.651  19.271  0.00  0.00    +0.047 A 
ATOM     22  C   UNL     1      -6.905 -10.582  19.477  0.00  0.00    +0.001 A 
ATOM     23  C   UNL     1      -5.863 -11.337  20.022  0.00  0.00    +0.004 A 
ENDBRANCH  12  14
ENDBRANCH   3  12
TORSDOF 5
ENDMDL
MODEL 10
REMARK VINA RESULT:      -6.5     27.686     31.228
REMARK  Name = 45783823
REMARK  7 active torsions:
REMARK  status: ('A' for Active; 'I' for Inactive)
REMARK    1  A    between atoms: N_3  and  C_12
REMARK    2  A    between atoms: N_7  and  C_27
REMARK    3  A    between atoms: N_7  and  C_28
REMARK    4  A    between atoms: N_7  and  C_29
REMARK    5  A    between atoms: C_8  and  C_13
REMARK    6  A    between atoms: C_12  and  C_14
REMARK    7  A    between atoms: C_17  and  C_19
REMARK                            x       y       z     vdW  Elec       q    Type
REMARK                         _______ _______ _______ _____ _____    ______ ____
ROOT
ATOM      3  N   UNL     1     -10.422 -12.308  19.436  0.00  0.00    -0.284 NA
ATOM      8  C   UNL     1      -9.127 -12.606  20.083  0.00  0.00    +0.146 C 
ATOM      9  C   UNL     1      -8.984 -14.136  19.987  0.00  0.00    +0.030 C 
ATOM     10  C   UNL     1     -10.272 -14.615  19.330  0.00  0.00    +0.017 C 
ATOM     11  C   UNL     1     -11.254 -13.498  19.615  0.00  0.00    +0.085 C 
ENDROOT
BRANCH   8  13
ATOM      1  O   UNL     1      -7.447 -10.832  20.139  0.00  0.00    -0.336 OA
ATOM      4  N   UNL     1      -7.392 -12.084  18.283  0.00  0.00    -0.190 NA
ATOM      5  N   UNL     1      -6.409 -10.316  19.351  0.00  0.00    -0.056 NA
ATOM     13  C   UNL     1      -7.971 -11.870  19.436  0.00  0.00    +0.245 A 
ATOM     17  C   UNL     1      -6.440 -11.107  18.274  0.00  0.00    +0.204 A 
BRANCH  17  19
ATOM      6  N   UNL     1      -5.187 -10.417  14.841  0.00  0.00    -0.240 NA
ATOM     19  C   UNL     1      -5.533 -10.948  17.174  0.00  0.00    +0.041 A 
ATOM     24  C   UNL     1      -4.168 -11.156  17.337  0.00  0.00    +0.016 A 
ATOM     25  C   UNL     1      -5.988 -10.582  15.918  0.00  0.00    +0.124 A 
ATOM     26  C   UNL     1      -3.312 -10.995  16.252  0.00  0.00    +0.044 A 
ATOM     27  C   UNL     1      -3.867 -10.628  15.037  0.00  0.00    +0.121 A 
BRANCH  27   7
ATOM      7  N   UNL     1      -2.982 -10.466  13.942  0.00  0.00    -0.321 N 
ATOM     28  C   UNL     1      -1.576 -10.224  14.173  0.00  0.00    +0.130 C 
ATOM     29  C   UNL     1      -3.482 -10.535  12.586  0.00  0.00    +0.130 C 
ENDBRANCH  27   7
ENDBRANCH  17  19
ENDBRANCH   8  13
BRANCH   3  12
ATOM     12  C   UNL     1     -11.061 -11.108  19.958  0.00  0.00    +0.159 C 
BRANCH  12  14
ATOM      2  O   UNL     1     -10.208  -9.418  18.429  0.00  0.00    -0.458 OA
ATOM     14  C   UNL     1     -11.302 -10.087  18.878  0.00  0.00    +0.120 A 
ATOM     15  C   UNL     1     -12.435  -9.667  18.219  0.00  0.00    +0.054 A 
ATOM     16  C   UNL     1     -12.016  -8.670  17.299  0.00  0.00    +0.020 A 
ATOM     18  C   UNL     1     -10.640  -8.554  17.468  0.00  0.00    +0.135 A 
ATOM     20  C   UNL     1     -12.647  -7.853  16.345  0.00  0.00    +0.011 A 
ATOM     21  C   UNL     1      -9.836  -7.674  16.747  0.00  0.00    +0.047 A 
ATOM     22  C   UNL     1     -11.863  -6.957  15.603  0.00  0.00    +0.001 A 
ATOM     23  C   UNL     1     -10.483  -6.871  15.802  0.00  0.00    +0.004 A 
ENDBRANCH  12  14
ENDBRANCH   3  12
TORSDOF 5
ENDMDL
