MODEL 1
REMARK VINA RESULT:      -6.3      0.000      0.000
REMARK  Name = 75368646
REMARK  3 active torsions:
REMARK  status: ('A' for Active; 'I' for Inactive)
REMARK    1  A    between atoms: N_3  and  C_12
REMARK    2  A    between atoms: N_4  and  C_13
REMARK    3  A    between atoms: C_12  and  C_14
REMARK                            x       y       z     vdW  Elec       q    Type
REMARK                         _______ _______ _______ _____ _____    ______ ____
ROOT
ATOM      1  O   UNL     1     -17.225   2.043  22.515  0.00  0.00    -0.252 OA
ATOM      2  N   UNL     1     -16.533   2.416  24.728  0.00  0.00    -0.278 N 
ATOM      3  N   UNL     1     -16.558   2.311  27.539  0.00  0.00    -0.295 NA
ATOM      4  N   UNL     1     -16.465   4.138  23.288  0.00  0.00    -0.287 N 
ATOM      6  C   UNL     1     -15.915   3.490  25.477  0.00  0.00    +0.109 C 
ATOM      7  C   UNL     1     -16.562   3.620  26.855  0.00  0.00    +0.109 C 
ATOM      8  C   UNL     1     -16.085   4.707  24.570  0.00  0.00    +0.132 C 
ATOM      9  C   UNL     1     -16.714   1.126  25.361  0.00  0.00    +0.125 C 
ATOM     10  C   UNL     1     -17.309   1.307  26.759  0.00  0.00    +0.104 C 
ATOM     11  C   UNL     1     -16.792   2.771  23.398  0.00  0.00    +0.305 C 
ATOM     13  C   UNL     1     -16.621   4.952  22.104  0.00  0.00    +0.133 C 
ENDROOT
BRANCH   3  12
ATOM     12  C   UNL     1     -17.121   2.438  28.883  0.00  0.00    +0.120 C 
BRANCH  12  14
ATOM      5  N   UNL     1     -14.310   1.210  31.878  0.00  0.00    -0.255 NA
ATOM     14  C   UNL     1     -16.130   2.043  29.945  0.00  0.00    -0.023 A 
ATOM     15  C   UNL     1     -15.516   2.985  30.781  0.00  0.00    +0.005 A 
ATOM     16  C   UNL     1     -15.832   0.694  30.077  0.00  0.00    +0.025 A 
ATOM     17  C   UNL     1     -14.600   2.518  31.748  0.00  0.00    +0.071 A 
ATOM     18  C   UNL     1     -15.796   4.358  30.673  0.00  0.00    +0.010 A 
ATOM     19  C   UNL     1     -14.924   0.334  31.051  0.00  0.00    +0.112 A 
ATOM     20  C   UNL     1     -13.991   3.456  32.579  0.00  0.00    +0.028 A 
ATOM     21  C   UNL     1     -15.172   5.272  31.517  0.00  0.00    +0.001 A 
ATOM     22  C   UNL     1     -14.269   4.820  32.472  0.00  0.00    +0.002 A 
ENDBRANCH  12  14
ENDBRANCH   3  12
TORSDOF 2
ENDMDL
MODEL 2
REMARK VINA RESULT:      -6.1     19.283     21.866
REMARK  Name = 75368646
REMARK  3 active torsions:
REMARK  status: ('A' for Active; 'I' for Inactive)
REMARK    1  A    between atoms: N_3  and  C_12
REMARK    2  A    between atoms: N_4  and  C_13
REMARK    3  A    between atoms: C_12  and  C_14
REMARK                            x       y       z     vdW  Elec       q    Type
REMARK                         _______ _______ _______ _____ _____    ______ ____
ROOT
ATOM      1  O   UNL     1     -10.064  -9.165  18.088  0.00  0.00    -0.252 OA
ATOM      2  N   UNL     1      -7.929 -10.123  17.879  0.00  0.00    -0.278 N 
ATOM      3  N   UNL     1      -5.611 -11.124  16.639  0.00  0.00    -0.295 NA
ATOM      4  N   UNL     1      -9.367 -11.038  19.342  0.00  0.00    -0.287 N 
ATOM      6  C   UNL     1      -7.159 -11.146  18.553  0.00  0.00    +0.109 C 
ATOM      7  C   UNL     1      -6.397 -11.995  17.536  0.00  0.00    +0.109 C 
ATOM      8  C   UNL     1      -8.202 -11.905  19.371  0.00  0.00    +0.132 C 
ATOM      9  C   UNL     1      -7.291  -9.306  16.868  0.00  0.00    +0.125 C 
ATOM     10  C   UNL     1      -6.492 -10.191  15.907  0.00  0.00    +0.104 C 
ATOM     11  C   UNL     1      -9.224 -10.000  18.399  0.00  0.00    +0.305 C 
ATOM     13  C   UNL     1     -10.564 -11.337  20.096  0.00  0.00    +0.133 C 
ENDROOT
BRANCH   3  12
ATOM     12  C   UNL     1      -4.832 -11.930  15.700  0.00  0.00    +0.120 C 
BRANCH  12  14
ATOM      5  N   UNL     1      -1.149  -9.985  14.684  0.00  0.00    -0.255 NA
ATOM     14  C   UNL     1      -3.549 -11.248  15.307  0.00  0.00    -0.023 A 
ATOM     15  C   UNL     1      -3.246 -10.938  13.974  0.00  0.00    +0.005 A 
ATOM     16  C   UNL     1      -2.655 -10.928  16.319  0.00  0.00    +0.025 A 
ATOM     17  C   UNL     1      -2.018 -10.297  13.704  0.00  0.00    +0.071 A 
ATOM     18  C   UNL     1      -4.130 -11.249  12.927  0.00  0.00    +0.010 A 
ATOM     19  C   UNL     1      -1.479 -10.302  15.956  0.00  0.00    +0.112 A 
ATOM     20  C   UNL     1      -1.718  -9.988  12.379  0.00  0.00    +0.028 A 
ATOM     21  C   UNL     1      -3.804 -10.929  11.612  0.00  0.00    +0.001 A 
ATOM     22  C   UNL     1      -2.597 -10.298  11.338  0.00  0.00    +0.002 A 
ENDBRANCH  12  14
ENDBRANCH   3  12
TORSDOF 2
ENDMDL
MODEL 3
REMARK VINA RESULT:      -6.0      5.052     10.024
REMARK  Name = 75368646
REMARK  3 active torsions:
REMARK  status: ('A' for Active; 'I' for Inactive)
REMARK    1  A    between atoms: N_3  and  C_12
REMARK    2  A    between atoms: N_4  and  C_13
REMARK    3  A    between atoms: C_12  and  C_14
REMARK                            x       y       z     vdW  Elec       q    Type
REMARK                         _______ _______ _______ _____ _____    ______ ____
ROOT
ATOM      1  O   UNL     1     -18.360   3.451  22.735  0.00  0.00    -0.252 OA
ATOM      2  N   UNL     1     -16.421   4.774  22.799  0.00  0.00    -0.278 N 
ATOM      3  N   UNL     1     -14.171   6.181  21.864  0.00  0.00    -0.295 NA
ATOM      4  N   UNL     1     -16.647   3.145  24.328  0.00  0.00    -0.287 N 
ATOM      6  C   UNL     1     -15.282   4.940  23.677  0.00  0.00    +0.109 C 
ATOM      7  C   UNL     1     -14.000   5.105  22.861  0.00  0.00    +0.109 C 
ATOM      8  C   UNL     1     -15.324   3.697  24.563  0.00  0.00    +0.132 C 
ATOM      9  C   UNL     1     -16.602   5.692  21.693  0.00  0.00    +0.125 C 
ATOM     10  C   UNL     1     -15.281   5.872  20.940  0.00  0.00    +0.104 C 
ATOM     11  C   UNL     1     -17.281   3.755  23.227  0.00  0.00    +0.305 C 
ATOM     13  C   UNL     1     -17.144   2.005  25.064  0.00  0.00    +0.133 C 
ENDROOT
BRANCH   3  12
ATOM     12  C   UNL     1     -12.930   6.387  21.119  0.00  0.00    +0.120 C 
BRANCH  12  14
ATOM      5  N   UNL     1     -12.022  10.567  20.830  0.00  0.00    -0.255 NA
ATOM     14  C   UNL     1     -12.592   7.848  20.985  0.00  0.00    -0.023 A 
ATOM     15  C   UNL     1     -11.834   8.344  19.916  0.00  0.00    +0.005 A 
ATOM     16  C   UNL     1     -13.059   8.708  21.969  0.00  0.00    +0.025 A 
ATOM     17  C   UNL     1     -11.569   9.730  19.877  0.00  0.00    +0.071 A 
ATOM     18  C   UNL     1     -11.346   7.499  18.905  0.00  0.00    +0.010 A 
ATOM     19  C   UNL     1     -12.749  10.047  21.844  0.00  0.00    +0.112 A 
ATOM     20  C   UNL     1     -10.816  10.223  18.813  0.00  0.00    +0.028 A 
ATOM     21  C   UNL     1     -10.596   8.020  17.854  0.00  0.00    +0.001 A 
ATOM     22  C   UNL     1     -10.332   9.383  17.808  0.00  0.00    +0.002 A 
ENDBRANCH  12  14
ENDBRANCH   3  12
TORSDOF 2
ENDMDL
MODEL 4
REMARK VINA RESULT:      -5.9     20.504     23.446
REMARK  Name = 75368646
REMARK  3 active torsions:
REMARK  status: ('A' for Active; 'I' for Inactive)
REMARK    1  A    between atoms: N_3  and  C_12
REMARK    2  A    between atoms: N_4  and  C_13
REMARK    3  A    between atoms: C_12  and  C_14
REMARK                            x       y       z     vdW  Elec       q    Type
REMARK                         _______ _______ _______ _____ _____    ______ ____
ROOT
ATOM      1  O   UNL     1      -7.589  -9.903  18.238  0.00  0.00    -0.252 OA
ATOM      2  N   UNL     1      -5.727 -10.219  16.841  0.00  0.00    -0.278 N 
ATOM      3  N   UNL     1      -4.262 -10.792  14.509  0.00  0.00    -0.295 NA
ATOM      4  N   UNL     1      -5.665 -11.093  18.909  0.00  0.00    -0.287 N 
ATOM      6  C   UNL     1      -4.390 -10.759  16.967  0.00  0.00    +0.109 C 
ATOM      7  C   UNL     1      -4.031 -11.586  15.733  0.00  0.00    +0.109 C 
ATOM      8  C   UNL     1      -4.438 -11.544  18.275  0.00  0.00    +0.132 C 
ATOM      9  C   UNL     1      -6.107  -9.548  15.615  0.00  0.00    +0.125 C 
ATOM     10  C   UNL     1      -5.677 -10.383  14.406  0.00  0.00    +0.104 C 
ATOM     11  C   UNL     1      -6.467 -10.345  18.023  0.00  0.00    +0.305 C 
ATOM     13  C   UNL     1      -6.042 -11.517  20.238  0.00  0.00    +0.133 C 
ENDROOT
BRANCH   3  12
ATOM     12  C   UNL     1      -3.865 -11.555  13.325  0.00  0.00    +0.120 C 
BRANCH  12  14
ATOM      5  N   UNL     1      -1.954  -9.060  10.409  0.00  0.00    -0.255 NA
ATOM     14  C   UNL     1      -3.227 -10.677  12.282  0.00  0.00    -0.023 A 
ATOM     15  C   UNL     1      -3.932 -10.215  11.163  0.00  0.00    +0.005 A 
ATOM     16  C   UNL     1      -1.894 -10.333  12.460  0.00  0.00    +0.025 A 
ATOM     17  C   UNL     1      -3.247  -9.396  10.239  0.00  0.00    +0.071 A 
ATOM     18  C   UNL     1      -5.281 -10.546  10.954  0.00  0.00    +0.010 A 
ATOM     19  C   UNL     1      -1.311  -9.528  11.503  0.00  0.00    +0.112 A 
ATOM     20  C   UNL     1      -3.949  -8.936   9.127  0.00  0.00    +0.028 A 
ATOM     21  C   UNL     1      -5.957 -10.072   9.834  0.00  0.00    +0.001 A 
ATOM     22  C   UNL     1      -5.290  -9.265   8.920  0.00  0.00    +0.002 A 
ENDBRANCH  12  14
ENDBRANCH   3  12
TORSDOF 2
ENDMDL
MODEL 5
REMARK VINA RESULT:      -5.8      4.535      7.522
REMARK  Name = 75368646
REMARK  3 active torsions:
REMARK  status: ('A' for Active; 'I' for Inactive)
REMARK    1  A    between atoms: N_3  and  C_12
REMARK    2  A    between atoms: N_4  and  C_13
REMARK    3  A    between atoms: C_12  and  C_14
REMARK                            x       y       z     vdW  Elec       q    Type
REMARK                         _______ _______ _______ _____ _____    ______ ____
ROOT
ATOM      1  O   UNL     1     -14.961   0.187  32.296  0.00  0.00    -0.252 OA
ATOM      2  N   UNL     1     -14.374   2.461  32.304  0.00  0.00    -0.278 N 
ATOM      3  N   UNL     1     -14.356   5.165  33.081  0.00  0.00    -0.295 NA
ATOM      4  N   UNL     1     -14.750   1.467  30.326  0.00  0.00    -0.287 N 
ATOM      6  C   UNL     1     -14.043   3.472  31.322  0.00  0.00    +0.109 C 
ATOM      7  C   UNL     1     -14.695   4.804  31.689  0.00  0.00    +0.109 C 
ATOM      8  C   UNL     1     -14.520   2.865  30.004  0.00  0.00    +0.132 C 
ATOM      9  C   UNL     1     -14.220   2.765  33.712  0.00  0.00    +0.125 C 
ATOM     10  C   UNL     1     -14.833   4.133  34.023  0.00  0.00    +0.104 C 
ATOM     11  C   UNL     1     -14.721   1.238  31.717  0.00  0.00    +0.305 C 
ATOM     13  C   UNL     1     -15.114   0.498  29.317  0.00  0.00    +0.133 C 
ENDROOT
BRANCH   3  12
ATOM     12  C   UNL     1     -14.926   6.468  33.422  0.00  0.00    +0.120 C 
BRANCH  12  14
ATOM      5  N   UNL     1     -12.073   9.635  32.955  0.00  0.00    -0.255 NA
ATOM     14  C   UNL     1     -13.912   7.574  33.293  0.00  0.00    -0.023 A 
ATOM     15  C   UNL     1     -13.039   7.911  34.336  0.00  0.00    +0.005 A 
ATOM     16  C   UNL     1     -13.863   8.264  32.090  0.00  0.00    +0.025 A 
ATOM     17  C   UNL     1     -12.123   8.963  34.121  0.00  0.00    +0.071 A 
ATOM     18  C   UNL     1     -13.064   7.232  35.566  0.00  0.00    +0.010 A 
ATOM     19  C   UNL     1     -12.933   9.277  31.974  0.00  0.00    +0.112 A 
ATOM     20  C   UNL     1     -11.255   9.298  35.158  0.00  0.00    +0.028 A 
ATOM     21  C   UNL     1     -12.185   7.588  36.585  0.00  0.00    +0.001 A 
ATOM     22  C   UNL     1     -11.280   8.622  36.380  0.00  0.00    +0.002 A 
ENDBRANCH  12  14
ENDBRANCH   3  12
TORSDOF 2
ENDMDL
MODEL 6
REMARK VINA RESULT:      -5.7      8.565     11.838
REMARK  Name = 75368646
REMARK  3 active torsions:
REMARK  status: ('A' for Active; 'I' for Inactive)
REMARK    1  A    between atoms: N_3  and  C_12
REMARK    2  A    between atoms: N_4  and  C_13
REMARK    3  A    between atoms: C_12  and  C_14
REMARK                            x       y       z     vdW  Elec       q    Type
REMARK                         _______ _______ _______ _____ _____    ______ ____
ROOT
ATOM      1  O   UNL     1     -11.752   7.928  13.102  0.00  0.00    -0.252 OA
ATOM      2  N   UNL     1     -12.040   8.601  15.334  0.00  0.00    -0.278 N 
ATOM      3  N   UNL     1     -11.482   8.920  18.073  0.00  0.00    -0.295 NA
ATOM      4  N   UNL     1     -13.803   7.728  14.250  0.00  0.00    -0.287 N 
ATOM      6  C   UNL     1     -13.142   8.737  16.264  0.00  0.00    +0.109 C 
ATOM      7  C   UNL     1     -12.729   8.249  17.652  0.00  0.00    +0.109 C 
ATOM      8  C   UNL     1     -14.268   7.939  15.610  0.00  0.00    +0.132 C 
ATOM      9  C   UNL     1     -10.731   9.094  15.710  0.00  0.00    +0.125 C 
ATOM     10  C   UNL     1     -10.385   8.631  17.127  0.00  0.00    +0.104 C 
ATOM     11  C   UNL     1     -12.444   8.072  14.101  0.00  0.00    +0.305 C 
ATOM     13  C   UNL     1     -14.630   7.096  13.247  0.00  0.00    +0.133 C 
ENDROOT
BRANCH   3  12
ATOM     12  C   UNL     1     -11.112   8.504  19.425  0.00  0.00    +0.120 C 
BRANCH  12  14
ATOM      5  N   UNL     1     -13.629  10.353  22.363  0.00  0.00    -0.255 NA
ATOM     14  C   UNL     1     -12.010   9.119  20.465  0.00  0.00    -0.023 A 
ATOM     15  C   UNL     1     -12.890   8.352  21.240  0.00  0.00    +0.005 A 
ATOM     16  C   UNL     1     -11.943  10.495  20.640  0.00  0.00    +0.025 A 
ATOM     17  C   UNL     1     -13.692   9.019  22.191  0.00  0.00    +0.071 A 
ATOM     18  C   UNL     1     -12.982   6.959  21.087  0.00  0.00    +0.010 A 
ATOM     19  C   UNL     1     -12.767  11.057  21.594  0.00  0.00    +0.112 A 
ATOM     20  C   UNL     1     -14.566   8.256  22.961  0.00  0.00    +0.028 A 
ATOM     21  C   UNL     1     -13.865   6.221  21.871  0.00  0.00    +0.001 A 
ATOM     22  C   UNL     1     -14.657   6.870  22.809  0.00  0.00    +0.002 A 
ENDBRANCH  12  14
ENDBRANCH   3  12
TORSDOF 2
ENDMDL
MODEL 7
REMARK VINA RESULT:      -5.7     19.775     22.712
REMARK  Name = 75368646
REMARK  3 active torsions:
REMARK  status: ('A' for Active; 'I' for Inactive)
REMARK    1  A    between atoms: N_3  and  C_12
REMARK    2  A    between atoms: N_4  and  C_13
REMARK    3  A    between atoms: C_12  and  C_14
REMARK                            x       y       z     vdW  Elec       q    Type
REMARK                         _______ _______ _______ _____ _____    ______ ____
ROOT
ATOM      1  O   UNL     1      -6.935 -10.972  20.188  0.00  0.00    -0.252 OA
ATOM      2  N   UNL     1      -6.557 -11.315  17.895  0.00  0.00    -0.278 N 
ATOM      3  N   UNL     1      -5.929 -10.714  15.220  0.00  0.00    -0.295 NA
ATOM      4  N   UNL     1      -8.345 -12.296  18.836  0.00  0.00    -0.287 N 
ATOM      6  C   UNL     1      -7.119 -12.133  16.841  0.00  0.00    +0.109 C 
ATOM      7  C   UNL     1      -7.232 -11.329  15.546  0.00  0.00    +0.109 C 
ATOM      8  C   UNL     1      -8.450 -12.607  17.421  0.00  0.00    +0.132 C 
ATOM      9  C   UNL     1      -5.357 -10.548  17.632  0.00  0.00    +0.125 C 
ATOM     10  C   UNL     1      -5.490  -9.807  16.300  0.00  0.00    +0.104 C 
ATOM     11  C   UNL     1      -7.237 -11.468  19.110  0.00  0.00    +0.305 C 
ATOM     13  C   UNL     1      -9.365 -12.684  19.784  0.00  0.00    +0.133 C 
ENDROOT
BRANCH   3  12
ATOM     12  C   UNL     1      -6.011  -9.992  13.950  0.00  0.00    +0.120 C 
BRANCH  12  14
ATOM      5  N   UNL     1      -2.663 -10.969  11.457  0.00  0.00    -0.255 NA
ATOM     14  C   UNL     1      -4.850 -10.312  13.048  0.00  0.00    -0.023 A 
ATOM     15  C   UNL     1      -4.726  -9.760  11.766  0.00  0.00    +0.005 A 
ATOM     16  C   UNL     1      -3.886 -11.188  13.527  0.00  0.00    +0.025 A 
ATOM     17  C   UNL     1      -3.600 -10.120  10.994  0.00  0.00    +0.071 A 
ATOM     18  C   UNL     1      -5.684  -8.871  11.252  0.00  0.00    +0.010 A 
ATOM     19  C   UNL     1      -2.822 -11.480  12.699  0.00  0.00    +0.112 A 
ATOM     20  C   UNL     1      -3.477  -9.570   9.720  0.00  0.00    +0.028 A 
ATOM     21  C   UNL     1      -5.536  -8.336   9.975  0.00  0.00    +0.001 A 
ATOM     22  C   UNL     1      -4.430  -8.686   9.209  0.00  0.00    +0.002 A 
ENDBRANCH  12  14
ENDBRANCH   3  12
TORSDOF 2
ENDMDL
MODEL 8
REMARK VINA RESULT:      -5.7     16.319     17.853
REMARK  Name = 75368646
REMARK  3 active torsions:
REMARK  status: ('A' for Active; 'I' for Inactive)
REMARK    1  A    between atoms: N_3  and  C_12
REMARK    2  A    between atoms: N_4  and  C_13
REMARK    3  A    between atoms: C_12  and  C_14
REMARK                            x       y       z     vdW  Elec       q    Type
REMARK                         _______ _______ _______ _____ _____    ______ ____
ROOT
ATOM      1  O   UNL     1     -12.993  -4.697  13.761  0.00  0.00    -0.252 OA
ATOM      2  N   UNL     1     -12.111  -6.670  14.680  0.00  0.00    -0.278 N 
ATOM      3  N   UNL     1     -10.244  -8.407  15.867  0.00  0.00    -0.295 NA
ATOM      4  N   UNL     1     -13.319  -6.823  12.793  0.00  0.00    -0.287 N 
ATOM      6  C   UNL     1     -12.219  -8.092  14.433  0.00  0.00    +0.109 C 
ATOM      7  C   UNL     1     -10.852  -8.761  14.569  0.00  0.00    +0.109 C 
ATOM      8  C   UNL     1     -12.837  -8.172  13.039  0.00  0.00    +0.132 C 
ATOM      9  C   UNL     1     -11.401  -6.207  15.854  0.00  0.00    +0.125 C 
ATOM     10  C   UNL     1     -10.066  -6.945  15.984  0.00  0.00    +0.104 C 
ATOM     11  C   UNL     1     -12.831  -5.910  13.750  0.00  0.00    +0.305 C 
ATOM     13  C   UNL     1     -14.077  -6.484  11.610  0.00  0.00    +0.133 C 
ENDROOT
BRANCH   3  12
ATOM     12  C   UNL     1      -8.961  -9.091  16.033  0.00  0.00    +0.120 C 
BRANCH  12  14
ATOM      5  N   UNL     1      -8.768 -11.005  19.864  0.00  0.00    -0.255 NA
ATOM     14  C   UNL     1      -8.856  -9.767  17.373  0.00  0.00    -0.023 A 
ATOM     15  C   UNL     1      -7.636 -10.231  17.882  0.00  0.00    +0.005 A 
ATOM     16  C   UNL     1     -10.023  -9.924  18.107  0.00  0.00    +0.025 A 
ATOM     17  C   UNL     1      -7.638 -10.852  19.149  0.00  0.00    +0.071 A 
ATOM     18  C   UNL     1      -6.437 -10.088  17.163  0.00  0.00    +0.010 A 
ATOM     19  C   UNL     1      -9.925 -10.544  19.336  0.00  0.00    +0.112 A 
ATOM     20  C   UNL     1      -6.424 -11.313  19.655  0.00  0.00    +0.028 A 
ATOM     21  C   UNL     1      -5.238 -10.558  17.693  0.00  0.00    +0.001 A 
ATOM     22  C   UNL     1      -5.232 -11.170  18.940  0.00  0.00    +0.002 A 
ENDBRANCH  12  14
ENDBRANCH   3  12
TORSDOF 2
ENDMDL
MODEL 9
REMARK VINA RESULT:      -5.6     32.308     33.083
REMARK  Name = 75368646
REMARK  3 active torsions:
REMARK  status: ('A' for Active; 'I' for Inactive)
REMARK    1  A    between atoms: N_3  and  C_12
REMARK    2  A    between atoms: N_4  and  C_13
REMARK    3  A    between atoms: C_12  and  C_14
REMARK                            x       y       z     vdW  Elec       q    Type
REMARK                         _______ _______ _______ _____ _____    ______ ____
ROOT
ATOM      1  O   UNL     1      11.425   9.197  15.550  0.00  0.00    -0.252 OA
ATOM      2  N   UNL     1      13.060   8.628  17.138  0.00  0.00    -0.278 N 
ATOM      3  N   UNL     1      14.170   7.924  19.625  0.00  0.00    -0.295 NA
ATOM      4  N   UNL     1      13.496  10.314  15.720  0.00  0.00    -0.287 N 
ATOM      6  C   UNL     1      14.429   8.999  17.426  0.00  0.00    +0.109 C 
ATOM      7  C   UNL     1      14.636   9.143  18.934  0.00  0.00    +0.109 C 
ATOM      8  C   UNL     1      14.633  10.283  16.625  0.00  0.00    +0.132 C 
ATOM      9  C   UNL     1      12.453   7.536  17.871  0.00  0.00    +0.125 C 
ATOM     10  C   UNL     1      12.735   7.688  19.368  0.00  0.00    +0.104 C 
ATOM     11  C   UNL     1      12.523   9.356  16.068  0.00  0.00    +0.305 C 
ATOM     13  C   UNL     1      13.358  11.326  14.697  0.00  0.00    +0.133 C 
ENDROOT
BRANCH   3  12
ATOM     12  C   UNL     1      14.419   8.027  21.063  0.00  0.00    +0.120 C 
BRANCH  12  14
ATOM      5  N   UNL     1      18.068  10.106  21.927  0.00  0.00    -0.255 NA
ATOM     14  C   UNL     1      15.720   8.726  21.357  0.00  0.00    -0.023 A 
ATOM     15  C   UNL     1      16.959   8.090  21.207  0.00  0.00    +0.005 A 
ATOM     16  C   UNL     1      15.658  10.043  21.790  0.00  0.00    +0.025 A 
ATOM     17  C   UNL     1      18.125   8.828  21.507  0.00  0.00    +0.071 A 
ATOM     18  C   UNL     1      17.056   6.758  20.771  0.00  0.00    +0.010 A 
ATOM     19  C   UNL     1      16.851  10.682  22.059  0.00  0.00    +0.112 A 
ATOM     20  C   UNL     1      19.357   8.196  21.357  0.00  0.00    +0.028 A 
ATOM     21  C   UNL     1      18.300   6.151  20.631  0.00  0.00    +0.001 A 
ATOM     22  C   UNL     1      19.452   6.871  20.923  0.00  0.00    +0.002 A 
ENDBRANCH  12  14
ENDBRANCH   3  12
TORSDOF 2
ENDMDL
MODEL 10
REMARK VINA RESULT:      -5.5     21.480     23.482
REMARK  Name = 75368646
REMARK  3 active torsions:
REMARK  status: ('A' for Active; 'I' for Inactive)
REMARK    1  A    between atoms: N_3  and  C_12
REMARK    2  A    between atoms: N_4  and  C_13
REMARK    3  A    between atoms: C_12  and  C_14
REMARK                            x       y       z     vdW  Elec       q    Type
REMARK                         _______ _______ _______ _____ _____    ______ ____
ROOT
ATOM      1  O   UNL     1      -3.129 -15.360  10.667  0.00  0.00    -0.252 OA
ATOM      2  N   UNL     1      -3.450 -14.225  12.698  0.00  0.00    -0.278 N 
ATOM      3  N   UNL     1      -4.026 -12.109  14.459  0.00  0.00    -0.295 NA
ATOM      4  N   UNL     1      -1.668 -15.580  12.506  0.00  0.00    -0.287 N 
ATOM      6  C   UNL     1      -2.851 -14.226  14.016  0.00  0.00    +0.109 C 
ATOM      7  C   UNL     1      -2.722 -12.797  14.543  0.00  0.00    +0.109 C 
ATOM      8  C   UNL     1      -1.526 -14.958  13.811  0.00  0.00    +0.132 C 
ATOM      9  C   UNL     1      -4.655 -13.456  12.468  0.00  0.00    +0.125 C 
ATOM     10  C   UNL     1      -4.504 -12.054  13.063  0.00  0.00    +0.104 C 
ATOM     11  C   UNL     1      -2.795 -15.091  11.813  0.00  0.00    +0.305 C 
ATOM     13  C   UNL     1      -0.664 -16.469  11.967  0.00  0.00    +0.133 C 
ENDROOT
BRANCH   3  12
ATOM     12  C   UNL     1      -3.926 -10.760  15.017  0.00  0.00    +0.120 C 
BRANCH  12  14
ATOM      5  N   UNL     1      -7.253  -9.821  17.553  0.00  0.00    -0.255 NA
ATOM     14  C   UNL     1      -5.077 -10.448  15.936  0.00  0.00    -0.023 A 
ATOM     15  C   UNL     1      -5.089 -10.848  17.279  0.00  0.00    +0.005 A 
ATOM     16  C   UNL     1      -6.147  -9.741  15.408  0.00  0.00    +0.025 A 
ATOM     17  C   UNL     1      -6.213 -10.508  18.063  0.00  0.00    +0.071 A 
ATOM     18  C   UNL     1      -4.022 -11.565  17.844  0.00  0.00    +0.010 A 
ATOM     19  C   UNL     1      -7.201  -9.455  16.251  0.00  0.00    +0.112 A 
ATOM     20  C   UNL     1      -6.225 -10.905  19.398  0.00  0.00    +0.028 A 
ATOM     21  C   UNL     1      -4.060 -11.949  19.181  0.00  0.00    +0.001 A 
ATOM     22  C   UNL     1      -5.163 -11.618  19.959  0.00  0.00    +0.002 A 
ENDBRANCH  12  14
ENDBRANCH   3  12
TORSDOF 2
ENDMDL
