MODEL 1
REMARK VINA RESULT:      -7.4      0.000      0.000
REMARK  Name = 75367106
REMARK  6 active torsions:
REMARK  status: ('A' for Active; 'I' for Inactive)
REMARK    1  A    between atoms: O_2  and  C_9
REMARK    2  A    between atoms: N_4  and  C_7
REMARK    3  A    between atoms: N_4  and  C_8
REMARK    4  A    between atoms: N_5  and  C_17
REMARK    5  A    between atoms: N_6  and  C_19
REMARK    6  A    between atoms: C_12  and  C_17
REMARK                            x       y       z     vdW  Elec       q    Type
REMARK                         _______ _______ _______ _____ _____    ______ ____
ROOT
ATOM      1  O   UNL     1      11.577   6.773  20.072  0.00  0.00    -0.371 OA
ATOM      8  C   UNL     1      13.935   6.897  20.326  0.00  0.00    +0.111 C 
ATOM      9  C   UNL     1      13.286   7.946  21.210  0.00  0.00    +0.164 C 
ATOM     12  C   UNL     1      11.874   7.391  21.336  0.00  0.00    +0.165 C 
ATOM     13  C   UNL     1      12.808   6.585  19.354  0.00  0.00    +0.181 C 
ENDROOT
BRANCH   9   2
ATOM      2  O   UNL     1      13.920   8.065  22.470  0.00  0.00    -0.388 OA
ATOM     26  H   UNL     1      13.295   7.776  23.156  0.00  0.00    +0.210 HD
ENDBRANCH   9   2
BRANCH   8   4
ATOM      4  N   UNL     1      15.143   7.360  19.662  0.00  0.00    -0.306 NA
ATOM     25  H   UNL     1      15.216   8.374  19.733  0.00  0.00    +0.123 HD
BRANCH   4   7
ATOM      7  C   UNL     1      16.327   6.734  20.246  0.00  0.00    +0.054 C 
ATOM     10  C   UNL     1      17.153   6.053  19.148  0.00  0.00    +0.019 C 
ATOM     11  C   UNL     1      17.158   7.784  20.991  0.00  0.00    +0.019 C 
ATOM     14  C   UNL     1      18.440   5.452  19.711  0.00  0.00    +0.002 C 
ATOM     15  C   UNL     1      18.445   7.180  21.552  0.00  0.00    +0.002 C 
ATOM     16  C   UNL     1      19.264   6.492  20.464  0.00  0.00    +0.000 C 
ENDBRANCH   4   7
ENDBRANCH   8   4
BRANCH  12  17
ATOM     17  C   UNL     1      10.836   8.454  21.644  0.00  0.00    +0.140 C 
BRANCH  17   5
ATOM      3  O   UNL     1      11.177  11.242  22.209  0.00  0.00    -0.253 OA
ATOM      5  N   UNL     1      11.063   9.047  22.930  0.00  0.00    -0.297 N 
ATOM      6  N   UNL     1      11.426  10.712  24.481  0.00  0.00    -0.269 N 
ATOM     18  C   UNL     1      11.221  10.428  23.129  0.00  0.00    +0.304 C 
ATOM     27  H   UNL     1      11.124   8.433  23.737  0.00  0.00    +0.150 HD
ATOM     28  H   UNL     1      11.434   9.918  25.117  0.00  0.00    +0.156 HD
BRANCH   6  19
ATOM     19  C   UNL     1      11.626  11.976  25.083  0.00  0.00    +0.035 A 
ATOM     20  C   UNL     1      10.543  12.831  25.288  0.00  0.00    +0.023 A 
ATOM     21  C   UNL     1      12.907  12.368  25.472  0.00  0.00    +0.023 A 
ATOM     22  C   UNL     1      10.740  14.078  25.881  0.00  0.00    +0.002 A 
ATOM     23  C   UNL     1      13.104  13.615  26.066  0.00  0.00    +0.002 A 
ATOM     24  C   UNL     1      12.020  14.469  26.270  0.00  0.00    +0.000 A 
ENDBRANCH   6  19
ENDBRANCH  17   5
ENDBRANCH  12  17
TORSDOF 6
ENDMDL
MODEL 2
REMARK VINA RESULT:      -7.1      1.530      7.975
REMARK  Name = 75367106
REMARK  6 active torsions:
REMARK  status: ('A' for Active; 'I' for Inactive)
REMARK    1  A    between atoms: O_2  and  C_9
REMARK    2  A    between atoms: N_4  and  C_7
REMARK    3  A    between atoms: N_4  and  C_8
REMARK    4  A    between atoms: N_5  and  C_17
REMARK    5  A    between atoms: N_6  and  C_19
REMARK    6  A    between atoms: C_12  and  C_17
REMARK                            x       y       z     vdW  Elec       q    Type
REMARK                         _______ _______ _______ _____ _____    ______ ____
ROOT
ATOM      1  O   UNL     1      10.816   7.249  20.906  0.00  0.00    -0.371 OA
ATOM      8  C   UNL     1      11.348   9.173  22.191  0.00  0.00    +0.111 C 
ATOM      9  C   UNL     1      12.632   8.561  21.662  0.00  0.00    +0.164 C 
ATOM     12  C   UNL     1      12.105   7.736  20.496  0.00  0.00    +0.165 C 
ATOM     13  C   UNL     1      10.378   8.013  22.042  0.00  0.00    +0.181 C 
ENDROOT
BRANCH   9   2
ATOM      2  O   UNL     1      13.567   9.534  21.239  0.00  0.00    -0.388 OA
ATOM     26  H   UNL     1      13.807   9.348  20.316  0.00  0.00    +0.210 HD
ENDBRANCH   9   2
BRANCH   8   4
ATOM      4  N   UNL     1      11.451   9.653  23.560  0.00  0.00    -0.306 NA
ATOM     25  H   UNL     1      12.430   9.714  23.838  0.00  0.00    +0.123 HD
BRANCH   4   7
ATOM      7  C   UNL     1      10.813  10.960  23.700  0.00  0.00    +0.054 C 
ATOM     10  C   UNL     1      11.191  11.583  25.049  0.00  0.00    +0.019 C 
ATOM     11  C   UNL     1      11.225  11.868  22.537  0.00  0.00    +0.019 C 
ATOM     14  C   UNL     1      10.603  12.985  25.199  0.00  0.00    +0.002 C 
ATOM     15  C   UNL     1      10.636  13.270  22.690  0.00  0.00    +0.002 C 
ATOM     16  C   UNL     1      11.001  13.889  24.036  0.00  0.00    +0.000 C 
ENDBRANCH   4   7
ENDBRANCH   8   4
BRANCH  12  17
ATOM     17  C   UNL     1      13.003   6.568  20.131  0.00  0.00    +0.140 C 
BRANCH  17   5
ATOM      3  O   UNL     1      15.659   7.096  19.198  0.00  0.00    -0.253 OA
ATOM      5  N   UNL     1      14.203   6.569  20.916  0.00  0.00    -0.297 N 
ATOM      6  N   UNL     1      16.451   6.768  21.382  0.00  0.00    -0.269 N 
ATOM     18  C   UNL     1      15.475   6.838  20.385  0.00  0.00    +0.304 C 
ATOM     27  H   UNL     1      14.129   6.350  21.905  0.00  0.00    +0.150 HD
ATOM     28  H   UNL     1      16.129   6.541  22.320  0.00  0.00    +0.156 HD
BRANCH   6  19
ATOM     19  C   UNL     1      17.844   6.974  21.250  0.00  0.00    +0.035 A 
ATOM     20  C   UNL     1      18.420   8.159  21.708  0.00  0.00    +0.023 A 
ATOM     21  C   UNL     1      18.641   5.993  20.661  0.00  0.00    +0.023 A 
ATOM     22  C   UNL     1      19.794   8.363  21.578  0.00  0.00    +0.002 A 
ATOM     23  C   UNL     1      20.015   6.196  20.532  0.00  0.00    +0.002 A 
ATOM     24  C   UNL     1      20.591   7.382  20.990  0.00  0.00    +0.000 A 
ENDBRANCH   6  19
ENDBRANCH  17   5
ENDBRANCH  12  17
TORSDOF 6
ENDMDL
MODEL 3
REMARK VINA RESULT:      -6.9     26.491     29.169
REMARK  Name = 75367106
REMARK  6 active torsions:
REMARK  status: ('A' for Active; 'I' for Inactive)
REMARK    1  A    between atoms: O_2  and  C_9
REMARK    2  A    between atoms: N_4  and  C_7
REMARK    3  A    between atoms: N_4  and  C_8
REMARK    4  A    between atoms: N_5  and  C_17
REMARK    5  A    between atoms: N_6  and  C_19
REMARK    6  A    between atoms: C_12  and  C_17
REMARK                            x       y       z     vdW  Elec       q    Type
REMARK                         _______ _______ _______ _____ _____    ______ ____
ROOT
ATOM      1  O   UNL     1     -16.622   4.176  22.381  0.00  0.00    -0.371 OA
ATOM      8  C   UNL     1     -14.724   5.602  22.332  0.00  0.00    +0.111 C 
ATOM      9  C   UNL     1     -14.761   4.871  23.662  0.00  0.00    +0.164 C 
ATOM     12  C   UNL     1     -15.651   3.685  23.321  0.00  0.00    +0.165 C 
ATOM     13  C   UNL     1     -16.157   5.431  21.856  0.00  0.00    +0.181 C 
ENDROOT
BRANCH   9   2
ATOM      2  O   UNL     1     -13.477   4.461  24.095  0.00  0.00    -0.388 OA
ATOM     26  H   UNL     1     -13.589   3.812  24.810  0.00  0.00    +0.210 HD
ENDBRANCH   9   2
BRANCH   8   4
ATOM      4  N   UNL     1     -14.326   6.996  22.443  0.00  0.00    -0.306 NA
ATOM     25  H   UNL     1     -13.745   7.131  23.270  0.00  0.00    +0.123 HD
BRANCH   4   7
ATOM      7  C   UNL     1     -13.600   7.424  21.250  0.00  0.00    +0.054 C 
ATOM     10  C   UNL     1     -13.227   8.906  21.369  0.00  0.00    +0.019 C 
ATOM     11  C   UNL     1     -12.353   6.554  21.059  0.00  0.00    +0.019 C 
ATOM     14  C   UNL     1     -12.399   9.370  20.172  0.00  0.00    +0.002 C 
ATOM     15  C   UNL     1     -11.527   7.020  19.861  0.00  0.00    +0.002 C 
ATOM     16  C   UNL     1     -11.163   8.498  19.971  0.00  0.00    +0.000 C 
ENDBRANCH   4   7
ENDBRANCH   8   4
BRANCH  12  17
ATOM     17  C   UNL     1     -16.358   3.097  24.529  0.00  0.00    +0.140 C 
BRANCH  17   5
ATOM      3  O   UNL     1     -16.852   2.030  27.140  0.00  0.00    -0.253 OA
ATOM      5  N   UNL     1     -15.716   3.488  25.750  0.00  0.00    -0.297 N 
ATOM      6  N   UNL     1     -15.232   3.492  28.003  0.00  0.00    -0.269 N 
ATOM     18  C   UNL     1     -16.012   2.916  26.998  0.00  0.00    +0.304 C 
ATOM     27  H   UNL     1     -15.018   4.225  25.710  0.00  0.00    +0.150 HD
ATOM     28  H   UNL     1     -14.580   4.218  27.714  0.00  0.00    +0.156 HD
BRANCH   6  19
ATOM     19  C   UNL     1     -15.234   3.191  29.385  0.00  0.00    +0.035 A 
ATOM     20  C   UNL     1     -15.867   4.048  30.285  0.00  0.00    +0.023 A 
ATOM     21  C   UNL     1     -14.603   2.037  29.847  0.00  0.00    +0.023 A 
ATOM     22  C   UNL     1     -15.869   3.752  31.648  0.00  0.00    +0.002 A 
ATOM     23  C   UNL     1     -14.606   1.739  31.210  0.00  0.00    +0.002 A 
ATOM     24  C   UNL     1     -15.238   2.597  32.110  0.00  0.00    +0.000 A 
ENDBRANCH   6  19
ENDBRANCH  17   5
ENDBRANCH  12  17
TORSDOF 6
ENDMDL
MODEL 4
REMARK VINA RESULT:      -6.9     27.704     30.191
REMARK  Name = 75367106
REMARK  6 active torsions:
REMARK  status: ('A' for Active; 'I' for Inactive)
REMARK    1  A    between atoms: O_2  and  C_9
REMARK    2  A    between atoms: N_4  and  C_7
REMARK    3  A    between atoms: N_4  and  C_8
REMARK    4  A    between atoms: N_5  and  C_17
REMARK    5  A    between atoms: N_6  and  C_19
REMARK    6  A    between atoms: C_12  and  C_17
REMARK                            x       y       z     vdW  Elec       q    Type
REMARK                         _______ _______ _______ _____ _____    ______ ____
ROOT
ATOM      1  O   UNL     1     -16.105   0.585  28.141  0.00  0.00    -0.371 OA
ATOM      8  C   UNL     1     -14.841   1.886  29.674  0.00  0.00    +0.111 C 
ATOM      9  C   UNL     1     -15.217   2.750  28.485  0.00  0.00    +0.164 C 
ATOM     12  C   UNL     1     -16.400   1.975  27.922  0.00  0.00    +0.165 C 
ATOM     13  C   UNL     1     -15.045   0.490  29.108  0.00  0.00    +0.181 C 
ENDROOT
BRANCH   9   2
ATOM      2  O   UNL     1     -15.578   4.066  28.859  0.00  0.00    -0.388 OA
ATOM     26  H   UNL     1     -16.135   4.442  28.156  0.00  0.00    +0.210 HD
ENDBRANCH   9   2
BRANCH   8   4
ATOM      4  N   UNL     1     -13.486   2.110  30.153  0.00  0.00    -0.306 NA
ATOM     25  H   UNL     1     -13.043   2.854  29.616  0.00  0.00    +0.123 HD
BRANCH   4   7
ATOM      7  C   UNL     1     -13.490   2.454  31.573  0.00  0.00    +0.054 C 
ATOM     10  C   UNL     1     -13.740   3.957  31.744  0.00  0.00    +0.019 C 
ATOM     11  C   UNL     1     -14.553   1.630  32.306  0.00  0.00    +0.019 C 
ATOM     14  C   UNL     1     -13.827   4.342  33.220  0.00  0.00    +0.002 C 
ATOM     15  C   UNL     1     -14.638   2.018  33.782  0.00  0.00    +0.002 C 
ATOM     16  C   UNL     1     -14.876   3.516  33.956  0.00  0.00    +0.000 C 
ENDBRANCH   4   7
ENDBRANCH   8   4
BRANCH  12  17
ATOM     17  C   UNL     1     -16.632   2.224  26.442  0.00  0.00    +0.140 C 
BRANCH  17   5
ATOM      3  O   UNL     1     -16.071   2.914  23.720  0.00  0.00    -0.253 OA
ATOM      5  N   UNL     1     -15.890   3.361  25.982  0.00  0.00    -0.297 N 
ATOM      6  N   UNL     1     -14.906   4.804  24.479  0.00  0.00    -0.269 N 
ATOM     18  C   UNL     1     -15.655   3.634  24.624  0.00  0.00    +0.304 C 
ATOM     27  H   UNL     1     -15.503   3.994  26.675  0.00  0.00    +0.150 HD
ATOM     28  H   UNL     1     -14.640   5.284  25.335  0.00  0.00    +0.156 HD
BRANCH   6  19
ATOM     19  C   UNL     1     -14.467   5.411  23.279  0.00  0.00    +0.035 A 
ATOM     20  C   UNL     1     -13.193   5.135  22.783  0.00  0.00    +0.023 A 
ATOM     21  C   UNL     1     -15.308   6.286  22.593  0.00  0.00    +0.023 A 
ATOM     22  C   UNL     1     -12.759   5.733  21.600  0.00  0.00    +0.002 A 
ATOM     23  C   UNL     1     -14.875   6.884  21.409  0.00  0.00    +0.002 A 
ATOM     24  C   UNL     1     -13.600   6.608  20.914  0.00  0.00    +0.000 A 
ENDBRANCH   6  19
ENDBRANCH  17   5
ENDBRANCH  12  17
TORSDOF 6
ENDMDL
MODEL 5
REMARK VINA RESULT:      -6.7     28.253     30.796
REMARK  Name = 75367106
REMARK  6 active torsions:
REMARK  status: ('A' for Active; 'I' for Inactive)
REMARK    1  A    between atoms: O_2  and  C_9
REMARK    2  A    between atoms: N_4  and  C_7
REMARK    3  A    between atoms: N_4  and  C_8
REMARK    4  A    between atoms: N_5  and  C_17
REMARK    5  A    between atoms: N_6  and  C_19
REMARK    6  A    between atoms: C_12  and  C_17
REMARK                            x       y       z     vdW  Elec       q    Type
REMARK                         _______ _______ _______ _____ _____    ______ ____
ROOT
ATOM      1  O   UNL     1     -12.500  -8.103  15.281  0.00  0.00    -0.371 OA
ATOM      8  C   UNL     1     -11.857  -6.042  14.292  0.00  0.00    +0.111 C 
ATOM      9  C   UNL     1     -11.094  -6.227  15.591  0.00  0.00    +0.164 C 
ATOM     12  C   UNL     1     -11.205  -7.733  15.784  0.00  0.00    +0.165 C 
ATOM     13  C   UNL     1     -13.002  -7.025  14.474  0.00  0.00    +0.181 C 
ENDROOT
BRANCH   9   2
ATOM      2  O   UNL     1      -9.747  -5.805  15.497  0.00  0.00    -0.388 OA
ATOM     26  H   UNL     1      -9.725  -4.952  15.030  0.00  0.00    +0.210 HD
ENDBRANCH   9   2
BRANCH   8   4
ATOM      4  N   UNL     1     -12.311  -4.678  14.071  0.00  0.00    -0.306 NA
ATOM     25  H   UNL     1     -11.514  -4.042  14.049  0.00  0.00    +0.123 HD
BRANCH   4   7
ATOM      7  C   UNL     1     -13.062  -4.578  12.822  0.00  0.00    +0.054 C 
ATOM     10  C   UNL     1     -14.405  -3.883  13.075  0.00  0.00    +0.019 C 
ATOM     11  C   UNL     1     -12.236  -3.821  11.777  0.00  0.00    +0.019 C 
ATOM     14  C   UNL     1     -15.186  -3.692  11.775  0.00  0.00    +0.002 C 
ATOM     15  C   UNL     1     -13.020  -3.631  10.479  0.00  0.00    +0.002 C 
ATOM     16  C   UNL     1     -14.363  -2.949  10.728  0.00  0.00    +0.000 C 
ENDBRANCH   4   7
ENDBRANCH   8   4
BRANCH  12  17
ATOM     17  C   UNL     1     -11.074  -8.164  17.234  0.00  0.00    +0.140 C 
BRANCH  17   5
ATOM      3  O   UNL     1      -9.401 -10.488  17.284  0.00  0.00    -0.253 OA
ATOM      5  N   UNL     1      -9.700  -8.222  17.639  0.00  0.00    -0.297 N 
ATOM      6  N   UNL     1      -7.641  -9.157  18.079  0.00  0.00    -0.269 N 
ATOM     18  C   UNL     1      -8.942  -9.404  17.636  0.00  0.00    +0.304 C 
ATOM     27  H   UNL     1      -9.257  -7.365  17.956  0.00  0.00    +0.150 HD
ATOM     28  H   UNL     1      -7.421  -8.197  18.334  0.00  0.00    +0.156 HD
BRANCH   6  19
ATOM     19  C   UNL     1      -6.579 -10.082  18.219  0.00  0.00    +0.035 A 
ATOM     20  C   UNL     1      -5.697 -10.297  17.159  0.00  0.00    +0.023 A 
ATOM     21  C   UNL     1      -6.416 -10.779  19.415  0.00  0.00    +0.023 A 
ATOM     22  C   UNL     1      -4.651 -11.209  17.296  0.00  0.00    +0.002 A 
ATOM     23  C   UNL     1      -5.369 -11.691  19.553  0.00  0.00    +0.002 A 
ATOM     24  C   UNL     1      -4.488 -11.906  18.493  0.00  0.00    +0.000 A 
ENDBRANCH   6  19
ENDBRANCH  17   5
ENDBRANCH  12  17
TORSDOF 6
ENDMDL
MODEL 6
REMARK VINA RESULT:      -6.6      4.681     10.813
REMARK  Name = 75367106
REMARK  6 active torsions:
REMARK  status: ('A' for Active; 'I' for Inactive)
REMARK    1  A    between atoms: O_2  and  C_9
REMARK    2  A    between atoms: N_4  and  C_7
REMARK    3  A    between atoms: N_4  and  C_8
REMARK    4  A    between atoms: N_5  and  C_17
REMARK    5  A    between atoms: N_6  and  C_19
REMARK    6  A    between atoms: C_12  and  C_17
REMARK                            x       y       z     vdW  Elec       q    Type
REMARK                         _______ _______ _______ _____ _____    ______ ____
ROOT
ATOM      1  O   UNL     1      17.735   6.731  21.470  0.00  0.00    -0.371 OA
ATOM      8  C   UNL     1      15.922   6.564  19.945  0.00  0.00    +0.111 C 
ATOM      9  C   UNL     1      17.213   6.235  19.218  0.00  0.00    +0.164 C 
ATOM     12  C   UNL     1      18.123   5.873  20.384  0.00  0.00    +0.165 C 
ATOM     13  C   UNL     1      16.446   7.294  21.171  0.00  0.00    +0.181 C 
ENDROOT
BRANCH   9   2
ATOM      2  O   UNL     1      17.068   5.161  18.308  0.00  0.00    -0.388 OA
ATOM     26  H   UNL     1      16.332   5.366  17.707  0.00  0.00    +0.210 HD
ENDBRANCH   9   2
BRANCH   8   4
ATOM      4  N   UNL     1      14.999   7.367  19.160  0.00  0.00    -0.306 NA
ATOM     25  H   UNL     1      14.651   6.828  18.367  0.00  0.00    +0.123 HD
BRANCH   4   7
ATOM      7  C   UNL     1      13.879   7.821  19.982  0.00  0.00    +0.054 C 
ATOM     10  C   UNL     1      13.278   9.099  19.385  0.00  0.00    +0.019 C 
ATOM     11  C   UNL     1      12.827   6.712  20.086  0.00  0.00    +0.019 C 
ATOM     14  C   UNL     1      12.055   9.561  20.176  0.00  0.00    +0.002 C 
ATOM     15  C   UNL     1      11.605   7.177  20.878  0.00  0.00    +0.002 C 
ATOM     16  C   UNL     1      11.011   8.455  20.293  0.00  0.00    +0.000 C 
ENDBRANCH   4   7
ENDBRANCH   8   4
BRANCH  12  17
ATOM     17  C   UNL     1      19.597   6.066  20.078  0.00  0.00    +0.140 C 
BRANCH  17   5
ATOM      3  O   UNL     1      21.737   5.306  21.823  0.00  0.00    -0.253 OA
ATOM      5  N   UNL     1      20.298   4.815  20.081  0.00  0.00    -0.297 N 
ATOM      6  N   UNL     1      21.832   3.227  20.740  0.00  0.00    -0.269 N 
ATOM     18  C   UNL     1      21.342   4.514  20.971  0.00  0.00    +0.304 C 
ATOM     27  H   UNL     1      20.033   4.115  19.394  0.00  0.00    +0.150 HD
ATOM     28  H   UNL     1      21.391   2.699  19.991  0.00  0.00    +0.156 HD
BRANCH   6  19
ATOM     19  C   UNL     1      22.876   2.559  21.422  0.00  0.00    +0.035 A 
ATOM     20  C   UNL     1      23.937   2.006  20.705  0.00  0.00    +0.023 A 
ATOM     21  C   UNL     1      22.843   2.453  22.812  0.00  0.00    +0.023 A 
ATOM     22  C   UNL     1      24.966   1.347  21.378  0.00  0.00    +0.002 A 
ATOM     23  C   UNL     1      23.873   1.795  23.485  0.00  0.00    +0.002 A 
ATOM     24  C   UNL     1      24.933   1.241  22.768  0.00  0.00    +0.000 A 
ENDBRANCH   6  19
ENDBRANCH  17   5
ENDBRANCH  12  17
TORSDOF 6
ENDMDL
MODEL 7
REMARK VINA RESULT:      -6.5      4.372     10.648
REMARK  Name = 75367106
REMARK  6 active torsions:
REMARK  status: ('A' for Active; 'I' for Inactive)
REMARK    1  A    between atoms: O_2  and  C_9
REMARK    2  A    between atoms: N_4  and  C_7
REMARK    3  A    between atoms: N_4  and  C_8
REMARK    4  A    between atoms: N_5  and  C_17
REMARK    5  A    between atoms: N_6  and  C_19
REMARK    6  A    between atoms: C_12  and  C_17
REMARK                            x       y       z     vdW  Elec       q    Type
REMARK                         _______ _______ _______ _____ _____    ______ ____
ROOT
ATOM      1  O   UNL     1      18.028   6.216  19.369  0.00  0.00    -0.371 OA
ATOM      8  C   UNL     1      15.843   6.784  20.105  0.00  0.00    +0.111 C 
ATOM      9  C   UNL     1      16.821   7.001  21.245  0.00  0.00    +0.164 C 
ATOM     12  C   UNL     1      18.135   7.116  20.486  0.00  0.00    +0.165 C 
ATOM     13  C   UNL     1      16.644   5.871  19.191  0.00  0.00    +0.181 C 
ENDROOT
BRANCH   9   2
ATOM      2  O   UNL     1      16.538   8.170  21.991  0.00  0.00    -0.388 OA
ATOM     26  H   UNL     1      15.577   8.221  22.126  0.00  0.00    +0.210 HD
ENDBRANCH   9   2
BRANCH   8   4
ATOM      4  N   UNL     1      14.579   6.198  20.523  0.00  0.00    -0.306 NA
ATOM     25  H   UNL     1      14.536   6.147  21.540  0.00  0.00    +0.123 HD
BRANCH   4   7
ATOM      7  C   UNL     1      13.453   6.980  20.017  0.00  0.00    +0.054 C 
ATOM     10  C   UNL     1      12.352   7.058  21.080  0.00  0.00    +0.019 C 
ATOM     11  C   UNL     1      13.931   8.380  19.613  0.00  0.00    +0.019 C 
ATOM     14  C   UNL     1      11.189   7.933  20.614  0.00  0.00    +0.002 C 
ATOM     15  C   UNL     1      12.766   9.253  19.149  0.00  0.00    +0.002 C 
ATOM     16  C   UNL     1      11.662   9.323  20.200  0.00  0.00    +0.000 C 
ENDBRANCH   4   7
ENDBRANCH   8   4
BRANCH  12  17
ATOM     17  C   UNL     1      19.347   6.751  21.324  0.00  0.00    +0.140 C 
BRANCH  17   5
ATOM      3  O   UNL     1      21.708   5.491  22.346  0.00  0.00    -0.253 OA
ATOM      5  N   UNL     1      20.241   5.893  20.603  0.00  0.00    -0.297 N 
ATOM      6  N   UNL     1      22.059   4.526  20.236  0.00  0.00    -0.269 N 
ATOM     18  C   UNL     1      21.384   5.309  21.175  0.00  0.00    +0.304 C 
ATOM     27  H   UNL     1      20.043   5.709  19.624  0.00  0.00    +0.150 HD
ATOM     28  H   UNL     1      21.655   4.481  19.304  0.00  0.00    +0.156 HD
BRANCH   6  19
ATOM     19  C   UNL     1      23.246   3.779  20.422  0.00  0.00    +0.035 A 
ATOM     20  C   UNL     1      24.476   4.319  20.044  0.00  0.00    +0.023 A 
ATOM     21  C   UNL     1      23.187   2.503  20.982  0.00  0.00    +0.023 A 
ATOM     22  C   UNL     1      25.647   3.583  20.226  0.00  0.00    +0.002 A 
ATOM     23  C   UNL     1      24.358   1.767  21.165  0.00  0.00    +0.002 A 
ATOM     24  C   UNL     1      25.587   2.307  20.786  0.00  0.00    +0.000 A 
ENDBRANCH   6  19
ENDBRANCH  17   5
ENDBRANCH  12  17
TORSDOF 6
ENDMDL
MODEL 8
REMARK VINA RESULT:      -6.2     27.927     29.519
REMARK  Name = 75367106
REMARK  6 active torsions:
REMARK  status: ('A' for Active; 'I' for Inactive)
REMARK    1  A    between atoms: O_2  and  C_9
REMARK    2  A    between atoms: N_4  and  C_7
REMARK    3  A    between atoms: N_4  and  C_8
REMARK    4  A    between atoms: N_5  and  C_17
REMARK    5  A    between atoms: N_6  and  C_19
REMARK    6  A    between atoms: C_12  and  C_17
REMARK                            x       y       z     vdW  Elec       q    Type
REMARK                         _______ _______ _______ _____ _____    ______ ____
ROOT
ATOM      1  O   UNL     1      -9.608 -11.311  15.896  0.00  0.00    -0.371 OA
ATOM      8  C   UNL     1      -8.723  -9.809  17.509  0.00  0.00    +0.111 C 
ATOM      9  C   UNL     1      -8.844  -9.091  16.177  0.00  0.00    +0.164 C 
ATOM     12  C   UNL     1      -9.867  -9.964  15.464  0.00  0.00    +0.165 C 
ATOM     13  C   UNL     1      -8.782 -11.263  17.072  0.00  0.00    +0.181 C 
ENDROOT
BRANCH   9   2
ATOM      2  O   UNL     1      -9.295  -7.757  16.315  0.00  0.00    -0.388 OA
ATOM     26  H   UNL     1      -9.277  -7.524  17.259  0.00  0.00    +0.210 HD
ENDBRANCH   9   2
BRANCH   8   4
ATOM      4  N   UNL     1      -7.507  -9.485  18.238  0.00  0.00    -0.306 NA
ATOM     25  H   UNL     1      -7.714  -9.359  19.228  0.00  0.00    +0.123 HD
BRANCH   4   7
ATOM      7  C   UNL     1      -6.506 -10.536  18.068  0.00  0.00    +0.054 C 
ATOM     10  C   UNL     1      -5.410 -10.061  17.107  0.00  0.00    +0.019 C 
ATOM     11  C   UNL     1      -5.918 -10.920  19.430  0.00  0.00    +0.019 C 
ATOM     14  C   UNL     1      -4.305 -11.106  16.964  0.00  0.00    +0.002 C 
ATOM     15  C   UNL     1      -4.813 -11.964  19.284  0.00  0.00    +0.002 C 
ATOM     16  C   UNL     1      -3.725 -11.500  18.319  0.00  0.00    +0.000 C 
ENDBRANCH   4   7
ENDBRANCH   8   4
BRANCH  12  17
ATOM     17  C   UNL     1      -9.777  -9.884  13.951  0.00  0.00    +0.140 C 
BRANCH  17   5
ATOM      3  O   UNL     1      -7.679 -10.990  12.345  0.00  0.00    -0.253 OA
ATOM      5  N   UNL     1      -8.575  -9.221  13.535  0.00  0.00    -0.297 N 
ATOM      6  N   UNL     1      -6.536  -8.947  12.498  0.00  0.00    -0.269 N 
ATOM     18  C   UNL     1      -7.588  -9.832  12.745  0.00  0.00    +0.304 C 
ATOM     27  H   UNL     1      -8.426  -8.264  13.840  0.00  0.00    +0.150 HD
ATOM     28  H   UNL     1      -6.617  -8.018  12.905  0.00  0.00    +0.156 HD
BRANCH   6  19
ATOM     19  C   UNL     1      -5.360  -9.182  11.747  0.00  0.00    +0.035 A 
ATOM     20  C   UNL     1      -4.376 -10.039  12.242  0.00  0.00    +0.023 A 
ATOM     21  C   UNL     1      -5.185  -8.558  10.513  0.00  0.00    +0.023 A 
ATOM     22  C   UNL     1      -3.217 -10.271  11.502  0.00  0.00    +0.002 A 
ATOM     23  C   UNL     1      -4.026  -8.791   9.772  0.00  0.00    +0.002 A 
ATOM     24  C   UNL     1      -3.042  -9.647  10.268  0.00  0.00    +0.000 A 
ENDBRANCH   6  19
ENDBRANCH  17   5
ENDBRANCH  12  17
TORSDOF 6
ENDMDL
MODEL 9
REMARK VINA RESULT:      -6.0     34.657     36.965
REMARK  Name = 75367106
REMARK  6 active torsions:
REMARK  status: ('A' for Active; 'I' for Inactive)
REMARK    1  A    between atoms: O_2  and  C_9
REMARK    2  A    between atoms: N_4  and  C_7
REMARK    3  A    between atoms: N_4  and  C_8
REMARK    4  A    between atoms: N_5  and  C_17
REMARK    5  A    between atoms: N_6  and  C_19
REMARK    6  A    between atoms: C_12  and  C_17
REMARK                            x       y       z     vdW  Elec       q    Type
REMARK                         _______ _______ _______ _____ _____    ______ ____
ROOT
ATOM      1  O   UNL     1      -2.476 -15.620  -1.418  0.00  0.00    -0.371 OA
ATOM      8  C   UNL     1      -1.282 -14.201   0.066  0.00  0.00    +0.111 C 
ATOM      9  C   UNL     1      -2.065 -13.346  -0.914  0.00  0.00    +0.164 C 
ATOM     12  C   UNL     1      -3.121 -14.335  -1.387  0.00  0.00    +0.165 C 
ATOM     13  C   UNL     1      -1.261 -15.540  -0.653  0.00  0.00    +0.181 C 
ENDROOT
BRANCH   9   2
ATOM      2  O   UNL     1      -2.643 -12.208  -0.304  0.00  0.00    -0.388 OA
ATOM     26  H   UNL     1      -2.848 -12.427   0.621  0.00  0.00    +0.210 HD
ENDBRANCH   9   2
BRANCH   8   4
ATOM      4  N   UNL     1       0.049 -13.691   0.352  0.00  0.00    -0.306 NA
ATOM     25  H   UNL     1       0.258 -13.792   1.345  0.00  0.00    +0.123 HD
BRANCH   4   7
ATOM      7  C   UNL     1       1.055 -14.394  -0.441  0.00  0.00    +0.054 C 
ATOM     10  C   UNL     1       1.416 -13.565  -1.679  0.00  0.00    +0.019 C 
ATOM     11  C   UNL     1       2.293 -14.674   0.417  0.00  0.00    +0.019 C 
ATOM     14  C   UNL     1       2.522 -14.234  -2.494  0.00  0.00    +0.002 C 
ATOM     15  C   UNL     1       3.397 -15.343  -0.401  0.00  0.00    +0.002 C 
ATOM     16  C   UNL     1       3.752 -14.525  -1.641  0.00  0.00    +0.000 C 
ENDBRANCH   4   7
ENDBRANCH   8   4
BRANCH  12  17
ATOM     17  C   UNL     1      -3.678 -14.008  -2.761  0.00  0.00    +0.140 C 
BRANCH  17   5
ATOM      3  O   UNL     1      -1.363 -14.574  -4.350  0.00  0.00    -0.253 OA
ATOM      5  N   UNL     1      -2.853 -13.054  -3.444  0.00  0.00    -0.297 N 
ATOM      6  N   UNL     1      -1.125 -12.275  -4.754  0.00  0.00    -0.269 N 
ATOM     18  C   UNL     1      -1.729 -13.409  -4.208  0.00  0.00    +0.304 C 
ATOM     27  H   UNL     1      -3.088 -12.070  -3.360  0.00  0.00    +0.150 HD
ATOM     28  H   UNL     1      -1.556 -11.379  -4.537  0.00  0.00    +0.156 HD
BRANCH   6  19
ATOM     19  C   UNL     1       0.024 -12.213  -5.577  0.00  0.00    +0.035 A 
ATOM     20  C   UNL     1      -0.040 -12.658  -6.898  0.00  0.00    +0.023 A 
ATOM     21  C   UNL     1       1.220 -11.708  -5.069  0.00  0.00    +0.023 A 
ATOM     22  C   UNL     1       1.092 -12.597  -7.710  0.00  0.00    +0.002 A 
ATOM     23  C   UNL     1       2.352 -11.647  -5.881  0.00  0.00    +0.002 A 
ATOM     24  C   UNL     1       2.288 -12.092  -7.202  0.00  0.00    +0.000 A 
ENDBRANCH   6  19
ENDBRANCH  17   5
ENDBRANCH  12  17
TORSDOF 6
ENDMDL
MODEL 10
REMARK VINA RESULT:      -5.8     16.092     20.132
REMARK  Name = 75367106
REMARK  6 active torsions:
REMARK  status: ('A' for Active; 'I' for Inactive)
REMARK    1  A    between atoms: O_2  and  C_9
REMARK    2  A    between atoms: N_4  and  C_7
REMARK    3  A    between atoms: N_4  and  C_8
REMARK    4  A    between atoms: N_5  and  C_17
REMARK    5  A    between atoms: N_6  and  C_19
REMARK    6  A    between atoms: C_12  and  C_17
REMARK                            x       y       z     vdW  Elec       q    Type
REMARK                         _______ _______ _______ _____ _____    ______ ____
ROOT
ATOM      1  O   UNL     1      10.919   9.022   7.183  0.00  0.00    -0.371 OA
ATOM      8  C   UNL     1       8.670   8.285   6.985  0.00  0.00    +0.111 C 
ATOM      9  C   UNL     1       9.600   7.122   6.691  0.00  0.00    +0.164 C 
ATOM     12  C   UNL     1      10.883   7.596   7.360  0.00  0.00    +0.165 C 
ATOM     13  C   UNL     1       9.606   9.470   6.807  0.00  0.00    +0.181 C 
ENDROOT
BRANCH   9   2
ATOM      2  O   UNL     1       9.138   5.902   7.239  0.00  0.00    -0.388 OA
ATOM     26  H   UNL     1       8.171   5.951   7.323  0.00  0.00    +0.210 HD
ENDBRANCH   9   2
BRANCH   8   4
ATOM      4  N   UNL     1       7.511   8.342   6.108  0.00  0.00    -0.306 NA
ATOM     25  H   UNL     1       6.761   8.870   6.552  0.00  0.00    +0.123 HD
BRANCH   4   7
ATOM      7  C   UNL     1       7.861   8.953   4.828  0.00  0.00    +0.054 C 
ATOM     10  C   UNL     1       8.161   7.861   3.794  0.00  0.00    +0.019 C 
ATOM     11  C   UNL     1       6.720   9.861   4.356  0.00  0.00    +0.019 C 
ATOM     14  C   UNL     1       8.456   8.462   2.421  0.00  0.00    +0.002 C 
ATOM     15  C   UNL     1       7.018  10.460   2.982  0.00  0.00    +0.002 C 
ATOM     16  C   UNL     1       7.329   9.377   1.953  0.00  0.00    +0.000 C 
ENDBRANCH   4   7
ENDBRANCH   8   4
BRANCH  12  17
ATOM     17  C   UNL     1      12.135   6.973   6.768  0.00  0.00    +0.140 C 
BRANCH  17   5
ATOM      3  O   UNL     1      12.066   7.272   3.921  0.00  0.00    -0.253 OA
ATOM      5  N   UNL     1      11.809   5.960   5.808  0.00  0.00    -0.297 N 
ATOM      6  N   UNL     1      11.444   5.016   3.737  0.00  0.00    -0.269 N 
ATOM     18  C   UNL     1      11.796   6.182   4.421  0.00  0.00    +0.304 C 
ATOM     27  H   UNL     1      11.562   5.036   6.151  0.00  0.00    +0.150 HD
ATOM     28  H   UNL     1      11.251   4.195   4.306  0.00  0.00    +0.156 HD
BRANCH   6  19
ATOM     19  C   UNL     1      11.321   4.832   2.340  0.00  0.00    +0.035 A 
ATOM     20  C   UNL     1      10.192   5.305   1.671  0.00  0.00    +0.023 A 
ATOM     21  C   UNL     1      12.329   4.178   1.632  0.00  0.00    +0.023 A 
ATOM     22  C   UNL     1      10.070   5.123   0.294  0.00  0.00    +0.002 A 
ATOM     23  C   UNL     1      12.207   3.997   0.254  0.00  0.00    +0.002 A 
ATOM     24  C   UNL     1      11.078   4.469  -0.414  0.00  0.00    +0.000 A 
ENDBRANCH   6  19
ENDBRANCH  17   5
ENDBRANCH  12  17
TORSDOF 6
ENDMDL
