MODEL 1
REMARK VINA RESULT:      -6.9      0.000      0.000
REMARK  Name = 40777644
REMARK  6 active torsions:
REMARK  status: ('A' for Active; 'I' for Inactive)
REMARK    1  A    between atoms: N_2  and  C_15
REMARK    2  A    between atoms: N_3  and  C_7
REMARK    3  A    between atoms: C_5  and  C_8
REMARK    4  A    between atoms: C_11  and  C_13
REMARK    5  A    between atoms: C_12  and  C_14
REMARK    6  A    between atoms: C_20  and  C_21
REMARK                            x       y       z     vdW  Elec       q    Type
REMARK                         _______ _______ _______ _____ _____    ______ ____
ROOT
ATOM      2  N   UNL     1      11.926   9.287  22.199  0.00  0.00    -0.236 N 
ATOM      4  N   UNL     1      11.073   8.249  22.169  0.00  0.00    -0.171 NA
ATOM      8  C   UNL     1      13.143   7.654  21.411  0.00  0.00    +0.003 A 
ATOM     11  C   UNL     1      13.179   8.983  21.755  0.00  0.00    +0.046 A 
ATOM     12  C   UNL     1      11.822   7.253  21.687  0.00  0.00    +0.064 A 
ATOM     13  C   UNL     1      14.280   9.966  21.698  0.00  0.00    +0.066 C 
ATOM     14  C   UNL     1      11.224   5.920  21.503  0.00  0.00    +0.068 C 
ENDROOT
BRANCH   2  15
ATOM      1 CL   UNL     1      10.761  14.132  21.097  0.00  0.00    -0.083 Cl
ATOM     15  C   UNL     1      11.489  10.530  22.658  0.00  0.00    +0.067 A 
ATOM     16  C   UNL     1      11.352  11.595  21.767  0.00  0.00    +0.048 A 
ATOM     17  C   UNL     1      11.190  10.708  24.009  0.00  0.00    +0.028 A 
ATOM     18  C   UNL     1      10.917  12.838  22.228  0.00  0.00    +0.046 A 
ATOM     19  C   UNL     1      10.755  11.950  24.469  0.00  0.00    +0.007 A 
ATOM     20  C   UNL     1      10.618  13.015  23.578  0.00  0.00    -0.032 A 
ATOM     21  C   UNL     1      10.148  14.330  24.110  0.00  0.00    +0.045 C 
ENDBRANCH   2  15
BRANCH   8   5
ATOM      5  C   UNL     1      14.271   6.812  20.859  0.00  0.00    +0.047 C 
ATOM      6  C   UNL     1      14.726   7.251  19.452  0.00  0.00    +0.035 C 
ATOM      7  C   UNL     1      16.239   7.002  19.404  0.00  0.00    +0.074 C 
ATOM      9  C   UNL     1      15.547   6.878  21.646  0.00  0.00    -0.021 C 
ATOM     10  C   UNL     1      16.617   6.978  20.849  0.00  0.00    -0.012 C 
BRANCH   7   3
ATOM      3  N   UNL     1      16.577   5.737  18.807  0.00  0.00    -0.324 NA
ATOM     22  H   UNL     1      15.778   5.372  18.290  0.00  0.00    +0.119 HD
ATOM     23  H   UNL     1      17.321   5.862  18.121  0.00  0.00    +0.119 HD
ENDBRANCH   7   3
ENDBRANCH   8   5
TORSDOF 3
ENDMDL
MODEL 2
REMARK VINA RESULT:      -6.5     15.534     17.369
REMARK  Name = 40777644
REMARK  6 active torsions:
REMARK  status: ('A' for Active; 'I' for Inactive)
REMARK    1  A    between atoms: N_2  and  C_15
REMARK    2  A    between atoms: N_3  and  C_7
REMARK    3  A    between atoms: C_5  and  C_8
REMARK    4  A    between atoms: C_11  and  C_13
REMARK    5  A    between atoms: C_12  and  C_14
REMARK    6  A    between atoms: C_20  and  C_21
REMARK                            x       y       z     vdW  Elec       q    Type
REMARK                         _______ _______ _______ _____ _____    ______ ____
ROOT
ATOM      2  N   UNL     1       9.028   8.550   5.287  0.00  0.00    -0.236 N 
ATOM      4  N   UNL     1       9.893   9.436   5.809  0.00  0.00    -0.171 NA
ATOM      8  C   UNL     1       9.862   7.491   7.005  0.00  0.00    +0.003 A 
ATOM     11  C   UNL     1       8.972   7.369   5.967  0.00  0.00    +0.046 A 
ATOM     12  C   UNL     1      10.400   8.784   6.859  0.00  0.00    +0.064 A 
ATOM     13  C   UNL     1       8.092   6.249   5.575  0.00  0.00    +0.066 C 
ATOM     14  C   UNL     1      11.408   9.446   7.705  0.00  0.00    +0.068 C 
ENDROOT
BRANCH   2  15
ATOM      1 CL   UNL     1       4.833  10.705   3.338  0.00  0.00    -0.083 Cl
ATOM     15  C   UNL     1       8.294   8.887   4.150  0.00  0.00    +0.067 A 
ATOM     16  C   UNL     1       7.073   9.551   4.278  0.00  0.00    +0.048 A 
ATOM     17  C   UNL     1       8.778   8.559   2.884  0.00  0.00    +0.028 A 
ATOM     18  C   UNL     1       6.338   9.886   3.140  0.00  0.00    +0.046 A 
ATOM     19  C   UNL     1       8.044   8.893   1.747  0.00  0.00    +0.007 A 
ATOM     20  C   UNL     1       6.824   9.557   1.875  0.00  0.00    -0.032 A 
ATOM     21  C   UNL     1       6.067   9.899   0.633  0.00  0.00    +0.045 C 
ENDBRANCH   2  15
BRANCH   8   5
ATOM      5  C   UNL     1      10.189   6.466   8.067  0.00  0.00    +0.047 C 
ATOM      6  C   UNL     1       9.047   6.258   9.084  0.00  0.00    +0.035 C 
ATOM      7  C   UNL     1       9.091   4.772   9.465  0.00  0.00    +0.074 C 
ATOM      9  C   UNL     1      10.416   5.076   7.549  0.00  0.00    -0.021 C 
ATOM     10  C   UNL     1       9.819   4.157   8.316  0.00  0.00    -0.012 C 
BRANCH   7   3
ATOM      3  N   UNL     1       9.830   4.530  10.676  0.00  0.00    -0.324 NA
ATOM     22  H   UNL     1       9.576   3.623  11.063  0.00  0.00    +0.119 HD
ATOM     23  H   UNL     1      10.827   4.480  10.473  0.00  0.00    +0.119 HD
ENDBRANCH   7   3
ENDBRANCH   8   5
TORSDOF 3
ENDMDL
MODEL 3
REMARK VINA RESULT:      -6.1     25.414     28.232
REMARK  Name = 40777644
REMARK  6 active torsions:
REMARK  status: ('A' for Active; 'I' for Inactive)
REMARK    1  A    between atoms: N_2  and  C_15
REMARK    2  A    between atoms: N_3  and  C_7
REMARK    3  A    between atoms: C_5  and  C_8
REMARK    4  A    between atoms: C_11  and  C_13
REMARK    5  A    between atoms: C_12  and  C_14
REMARK    6  A    between atoms: C_20  and  C_21
REMARK                            x       y       z     vdW  Elec       q    Type
REMARK                         _______ _______ _______ _____ _____    ______ ____
ROOT
ATOM      2  N   UNL     1      -3.533 -10.751  13.412  0.00  0.00    -0.236 N 
ATOM      4  N   UNL     1      -2.281 -10.482  13.818  0.00  0.00    -0.171 NA
ATOM      8  C   UNL     1      -3.663 -10.901  15.587  0.00  0.00    +0.003 A 
ATOM     11  C   UNL     1      -4.400 -11.009  14.433  0.00  0.00    +0.046 A 
ATOM     12  C   UNL     1      -2.366 -10.575  15.148  0.00  0.00    +0.064 A 
ATOM     13  C   UNL     1      -5.827 -11.329  14.225  0.00  0.00    +0.066 C 
ATOM     14  C   UNL     1      -1.165 -10.339  15.969  0.00  0.00    +0.068 C 
ENDROOT
BRANCH   2  15
ATOM      1 CL   UNL     1      -5.474  -8.226   9.425  0.00  0.00    -0.083 Cl
ATOM     15  C   UNL     1      -3.835 -10.749  12.051  0.00  0.00    +0.067 A 
ATOM     16  C   UNL     1      -4.431  -9.629  11.470  0.00  0.00    +0.048 A 
ATOM     17  C   UNL     1      -3.543 -11.866  11.269  0.00  0.00    +0.028 A 
ATOM     18  C   UNL     1      -4.735  -9.628  10.108  0.00  0.00    +0.046 A 
ATOM     19  C   UNL     1      -3.847 -11.865   9.908  0.00  0.00    +0.007 A 
ATOM     20  C   UNL     1      -4.443 -10.745   9.327  0.00  0.00    -0.032 A 
ATOM     21  C   UNL     1      -4.751 -10.783   7.866  0.00  0.00    +0.045 C 
ENDBRANCH   2  15
BRANCH   8   5
ATOM      5  C   UNL     1      -4.141 -11.089  17.009  0.00  0.00    +0.047 C 
ATOM      6  C   UNL     1      -5.345 -10.195  17.370  0.00  0.00    +0.035 C 
ATOM      7  C   UNL     1      -6.203 -11.019  18.339  0.00  0.00    +0.074 C 
ATOM      9  C   UNL     1      -4.654 -12.464  17.323  0.00  0.00    -0.021 C 
ATOM     10  C   UNL     1      -5.776 -12.421  18.050  0.00  0.00    -0.012 C 
BRANCH   7   3
ATOM      3  N   UNL     1      -5.930 -10.717  19.719  0.00  0.00    -0.324 NA
ATOM     22  H   UNL     1      -5.244  -9.966  19.782  0.00  0.00    +0.119 HD
ATOM     23  H   UNL     1      -6.772 -10.367  20.174  0.00  0.00    +0.119 HD
ENDBRANCH   7   3
ENDBRANCH   8   5
TORSDOF 3
ENDMDL
MODEL 4
REMARK VINA RESULT:      -6.1     26.892     27.947
REMARK  Name = 40777644
REMARK  6 active torsions:
REMARK  status: ('A' for Active; 'I' for Inactive)
REMARK    1  A    between atoms: N_2  and  C_15
REMARK    2  A    between atoms: N_3  and  C_7
REMARK    3  A    between atoms: C_5  and  C_8
REMARK    4  A    between atoms: C_11  and  C_13
REMARK    5  A    between atoms: C_12  and  C_14
REMARK    6  A    between atoms: C_20  and  C_21
REMARK                            x       y       z     vdW  Elec       q    Type
REMARK                         _______ _______ _______ _____ _____    ______ ____
ROOT
ATOM      2  N   UNL     1      -4.592 -10.520  14.745  0.00  0.00    -0.236 N 
ATOM      4  N   UNL     1      -3.297 -10.601  14.394  0.00  0.00    -0.171 NA
ATOM      8  C   UNL     1      -4.642 -10.312  12.571  0.00  0.00    +0.003 A 
ATOM     11  C   UNL     1      -5.438 -10.347  13.689  0.00  0.00    +0.046 A 
ATOM     12  C   UNL     1      -3.333 -10.474  13.065  0.00  0.00    +0.064 A 
ATOM     13  C   UNL     1      -6.904 -10.232  13.834  0.00  0.00    +0.066 C 
ATOM     14  C   UNL     1      -2.076 -10.514  12.299  0.00  0.00    +0.068 C 
ENDROOT
BRANCH   2  15
ATOM      1 CL   UNL     1      -3.455 -12.241  19.412  0.00  0.00    -0.083 Cl
ATOM     15  C   UNL     1      -4.953 -10.612  16.089  0.00  0.00    +0.067 A 
ATOM     16  C   UNL     1      -4.132 -11.294  16.987  0.00  0.00    +0.048 A 
ATOM     17  C   UNL     1      -6.136 -10.024  16.535  0.00  0.00    +0.028 A 
ATOM     18  C   UNL     1      -4.495 -11.388  18.331  0.00  0.00    +0.046 A 
ATOM     19  C   UNL     1      -6.499 -10.118  17.878  0.00  0.00    +0.007 A 
ATOM     20  C   UNL     1      -5.678 -10.800  18.776  0.00  0.00    -0.032 A 
ATOM     21  C   UNL     1      -6.101 -10.876  20.207  0.00  0.00    +0.045 C 
ENDBRANCH   2  15
BRANCH   8   5
ATOM      5  C   UNL     1      -5.075 -10.141  11.133  0.00  0.00    +0.047 C 
ATOM      6  C   UNL     1      -4.495  -8.875  10.468  0.00  0.00    +0.035 C 
ATOM      7  C   UNL     1      -4.251  -9.247   9.000  0.00  0.00    +0.074 C 
ATOM      9  C   UNL     1      -4.618 -11.230  10.206  0.00  0.00    -0.021 C 
ATOM     10  C   UNL     1      -4.173 -10.738   9.044  0.00  0.00    -0.012 C 
BRANCH   7   3
ATOM      3  N   UNL     1      -5.335  -8.856   8.139  0.00  0.00    -0.324 NA
ATOM     22  H   UNL     1      -5.513  -7.857   8.234  0.00  0.00    +0.119 HD
ATOM     23  H   UNL     1      -5.078  -9.003   7.164  0.00  0.00    +0.119 HD
ENDBRANCH   7   3
ENDBRANCH   8   5
TORSDOF 3
ENDMDL
MODEL 5
REMARK VINA RESULT:      -5.9     26.474     28.267
REMARK  Name = 40777644
REMARK  6 active torsions:
REMARK  status: ('A' for Active; 'I' for Inactive)
REMARK    1  A    between atoms: N_2  and  C_15
REMARK    2  A    between atoms: N_3  and  C_7
REMARK    3  A    between atoms: C_5  and  C_8
REMARK    4  A    between atoms: C_11  and  C_13
REMARK    5  A    between atoms: C_12  and  C_14
REMARK    6  A    between atoms: C_20  and  C_21
REMARK                            x       y       z     vdW  Elec       q    Type
REMARK                         _______ _______ _______ _____ _____    ______ ____
ROOT
ATOM      2  N   UNL     1      -3.791 -10.639  13.819  0.00  0.00    -0.236 N 
ATOM      4  N   UNL     1      -2.481 -10.544  13.537  0.00  0.00    -0.171 NA
ATOM      8  C   UNL     1      -3.768  -9.945  11.748  0.00  0.00    +0.003 A 
ATOM     11  C   UNL     1      -4.605 -10.292  12.780  0.00  0.00    +0.046 A 
ATOM     12  C   UNL     1      -2.472 -10.119  12.270  0.00  0.00    +0.064 A 
ATOM     13  C   UNL     1      -6.079 -10.321  12.860  0.00  0.00    +0.066 C 
ATOM     14  C   UNL     1      -1.185  -9.892  11.591  0.00  0.00    +0.068 C 
ENDROOT
BRANCH   2  15
ATOM      1 CL   UNL     1      -5.026 -14.529  16.882  0.00  0.00    -0.083 Cl
ATOM     15  C   UNL     1      -4.199 -11.061  15.084  0.00  0.00    +0.067 A 
ATOM     16  C   UNL     1      -4.389 -12.420  15.339  0.00  0.00    +0.048 A 
ATOM     17  C   UNL     1      -4.417 -10.126  16.095  0.00  0.00    +0.028 A 
ATOM     18  C   UNL     1      -4.799 -12.841  16.604  0.00  0.00    +0.046 A 
ATOM     19  C   UNL     1      -4.826 -10.547  17.359  0.00  0.00    +0.007 A 
ATOM     20  C   UNL     1      -5.017 -11.905  17.614  0.00  0.00    -0.032 A 
ATOM     21  C   UNL     1      -5.454 -12.317  18.982  0.00  0.00    +0.045 C 
ENDBRANCH   2  15
BRANCH   8   5
ATOM      5  C   UNL     1      -4.154  -9.483  10.361  0.00  0.00    +0.047 C 
ATOM      6  C   UNL     1      -5.007 -10.512   9.591  0.00  0.00    +0.035 C 
ATOM      7  C   UNL     1      -5.981  -9.693   8.735  0.00  0.00    +0.074 C 
ATOM      9  C   UNL     1      -5.020  -8.257  10.327  0.00  0.00    -0.021 C 
ATOM     10  C   UNL     1      -6.012  -8.375   9.437  0.00  0.00    -0.012 C 
BRANCH   7   3
ATOM      3  N   UNL     1      -5.512  -9.500   7.388  0.00  0.00    -0.324 NA
ATOM     22  H   UNL     1      -5.079 -10.356   7.044  0.00  0.00    +0.119 HD
ATOM     23  H   UNL     1      -6.299  -9.315   6.767  0.00  0.00    +0.119 HD
ENDBRANCH   7   3
ENDBRANCH   8   5
TORSDOF 3
ENDMDL
MODEL 6
REMARK VINA RESULT:      -5.9     27.856     29.468
REMARK  Name = 40777644
REMARK  6 active torsions:
REMARK  status: ('A' for Active; 'I' for Inactive)
REMARK    1  A    between atoms: N_2  and  C_15
REMARK    2  A    between atoms: N_3  and  C_7
REMARK    3  A    between atoms: C_5  and  C_8
REMARK    4  A    between atoms: C_11  and  C_13
REMARK    5  A    between atoms: C_12  and  C_14
REMARK    6  A    between atoms: C_20  and  C_21
REMARK                            x       y       z     vdW  Elec       q    Type
REMARK                         _______ _______ _______ _____ _____    ______ ____
ROOT
ATOM      2  N   UNL     1      -9.823  -9.501  17.467  0.00  0.00    -0.236 N 
ATOM      4  N   UNL     1     -10.536 -10.137  18.412  0.00  0.00    -0.171 NA
ATOM      8  C   UNL     1      -8.364 -10.845  18.381  0.00  0.00    +0.003 A 
ATOM     11  C   UNL     1      -8.517  -9.889  17.407  0.00  0.00    +0.046 A 
ATOM     12  C   UNL     1      -9.639 -10.957  18.968  0.00  0.00    +0.064 A 
ATOM     13  C   UNL     1      -7.548  -9.326  16.446  0.00  0.00    +0.066 C 
ATOM     14  C   UNL     1     -10.053 -11.843  20.070  0.00  0.00    +0.068 C 
ENDROOT
BRANCH   2  15
ATOM      1 CL   UNL     1     -12.187  -8.423  13.075  0.00  0.00    -0.083 Cl
ATOM     15  C   UNL     1     -10.440  -8.542  16.663  0.00  0.00    +0.067 A 
ATOM     16  C   UNL     1     -10.952  -8.902  15.416  0.00  0.00    +0.048 A 
ATOM     17  C   UNL     1     -10.545  -7.223  17.106  0.00  0.00    +0.028 A 
ATOM     18  C   UNL     1     -11.567  -7.942  14.612  0.00  0.00    +0.046 A 
ATOM     19  C   UNL     1     -11.160  -6.265  16.301  0.00  0.00    +0.007 A 
ATOM     20  C   UNL     1     -11.671  -6.624  15.054  0.00  0.00    -0.032 A 
ATOM     21  C   UNL     1     -12.324  -5.567  14.224  0.00  0.00    +0.045 C 
ENDBRANCH   2  15
BRANCH   8   5
ATOM      5  C   UNL     1      -7.108 -11.606  18.739  0.00  0.00    +0.047 C 
ATOM      6  C   UNL     1      -6.513 -12.392  17.553  0.00  0.00    +0.035 C 
ATOM      7  C   UNL     1      -4.991 -12.344  17.739  0.00  0.00    +0.074 C 
ATOM      9  C   UNL     1      -5.955 -10.747  19.168  0.00  0.00    -0.021 C 
ATOM     10  C   UNL     1      -4.803 -11.155  18.623  0.00  0.00    -0.012 C 
BRANCH   7   3
ATOM      3  N   UNL     1      -4.475 -13.512  18.402  0.00  0.00    -0.324 NA
ATOM     22  H   UNL     1      -5.093 -14.306  18.242  0.00  0.00    +0.119 HD
ATOM     23  H   UNL     1      -3.575 -13.773  18.001  0.00  0.00    +0.119 HD
ENDBRANCH   7   3
ENDBRANCH   8   5
TORSDOF 3
ENDMDL
MODEL 7
REMARK VINA RESULT:      -5.8     26.612     28.987
REMARK  Name = 40777644
REMARK  6 active torsions:
REMARK  status: ('A' for Active; 'I' for Inactive)
REMARK    1  A    between atoms: N_2  and  C_15
REMARK    2  A    between atoms: N_3  and  C_7
REMARK    3  A    between atoms: C_5  and  C_8
REMARK    4  A    between atoms: C_11  and  C_13
REMARK    5  A    between atoms: C_12  and  C_14
REMARK    6  A    between atoms: C_20  and  C_21
REMARK                            x       y       z     vdW  Elec       q    Type
REMARK                         _______ _______ _______ _____ _____    ______ ____
ROOT
ATOM      2  N   UNL     1      18.806  -4.851  -1.398  0.00  0.00    -0.236 N 
ATOM      4  N   UNL     1      18.322  -3.619  -1.629  0.00  0.00    -0.171 NA
ATOM      8  C   UNL     1      17.211  -5.197  -2.849  0.00  0.00    +0.003 A 
ATOM     11  C   UNL     1      18.175  -5.832  -2.105  0.00  0.00    +0.046 A 
ATOM     12  C   UNL     1      17.347  -3.836  -2.516  0.00  0.00    +0.064 A 
ATOM     13  C   UNL     1      18.538  -7.260  -2.012  0.00  0.00    +0.066 C 
ATOM     14  C   UNL     1      16.564  -2.697  -3.025  0.00  0.00    +0.068 C 
ENDROOT
BRANCH   2  15
ATOM      1 CL   UNL     1      23.790  -5.699  -0.704  0.00  0.00    -0.083 Cl
ATOM     15  C   UNL     1      19.860  -5.024  -0.501  0.00  0.00    +0.067 A 
ATOM     16  C   UNL     1      21.152  -5.247  -0.977  0.00  0.00    +0.048 A 
ATOM     17  C   UNL     1      19.622  -4.975   0.872  0.00  0.00    +0.028 A 
ATOM     18  C   UNL     1      22.206  -5.423  -0.079  0.00  0.00    +0.046 A 
ATOM     19  C   UNL     1      20.675  -5.151   1.769  0.00  0.00    +0.007 A 
ATOM     20  C   UNL     1      21.967  -5.374   1.294  0.00  0.00    -0.032 A 
ATOM     21  C   UNL     1      23.068  -5.556   2.288  0.00  0.00    +0.045 C 
ENDBRANCH   2  15
BRANCH   8   5
ATOM      5  C   UNL     1      16.226  -5.822  -3.811  0.00  0.00    +0.047 C 
ATOM      6  C   UNL     1      14.756  -5.497  -3.474  0.00  0.00    +0.035 C 
ATOM      7  C   UNL     1      14.031  -5.388  -4.822  0.00  0.00    +0.074 C 
ATOM      9  C   UNL     1      16.345  -5.344  -5.229  0.00  0.00    -0.021 C 
ATOM     10  C   UNL     1      15.147  -5.113  -5.777  0.00  0.00    -0.012 C 
BRANCH   7   3
ATOM      3  N   UNL     1      13.376  -6.612  -5.202  0.00  0.00    -0.324 NA
ATOM     22  H   UNL     1      12.797  -6.456  -6.026  0.00  0.00    +0.119 HD
ATOM     23  H   UNL     1      14.067  -7.309  -5.473  0.00  0.00    +0.119 HD
ENDBRANCH   7   3
ENDBRANCH   8   5
TORSDOF 3
ENDMDL
MODEL 8
REMARK VINA RESULT:      -5.7     26.573     29.188
REMARK  Name = 40777644
REMARK  6 active torsions:
REMARK  status: ('A' for Active; 'I' for Inactive)
REMARK    1  A    between atoms: N_2  and  C_15
REMARK    2  A    between atoms: N_3  and  C_7
REMARK    3  A    between atoms: C_5  and  C_8
REMARK    4  A    between atoms: C_11  and  C_13
REMARK    5  A    between atoms: C_12  and  C_14
REMARK    6  A    between atoms: C_20  and  C_21
REMARK                            x       y       z     vdW  Elec       q    Type
REMARK                         _______ _______ _______ _____ _____    ______ ____
ROOT
ATOM      2  N   UNL     1      17.278  -5.683  -2.857  0.00  0.00    -0.236 N 
ATOM      4  N   UNL     1      17.784  -6.907  -2.629  0.00  0.00    -0.171 NA
ATOM      8  C   UNL     1      18.856  -5.316  -1.392  0.00  0.00    +0.003 A 
ATOM     11  C   UNL     1      17.887  -4.694  -2.140  0.00  0.00    +0.046 A 
ATOM     12  C   UNL     1      18.748  -6.677  -1.733  0.00  0.00    +0.064 A 
ATOM     13  C   UNL     1      17.498  -3.272  -2.229  0.00  0.00    +0.066 C 
ATOM     14  C   UNL     1      19.550  -7.804  -1.226  0.00  0.00    +0.068 C 
ENDROOT
BRANCH   2  15
ATOM      1 CL   UNL     1      15.805  -4.685  -7.639  0.00  0.00    -0.083 Cl
ATOM     15  C   UNL     1      16.227  -5.525  -3.758  0.00  0.00    +0.067 A 
ATOM     16  C   UNL     1      16.492  -5.222  -5.094  0.00  0.00    +0.048 A 
ATOM     17  C   UNL     1      14.908  -5.668  -3.325  0.00  0.00    +0.028 A 
ATOM     18  C   UNL     1      15.439  -5.061  -5.996  0.00  0.00    +0.046 A 
ATOM     19  C   UNL     1      13.857  -5.507  -4.226  0.00  0.00    +0.007 A 
ATOM     20  C   UNL     1      14.122  -5.205  -5.562  0.00  0.00    -0.032 A 
ATOM     21  C   UNL     1      12.967  -5.042  -6.495  0.00  0.00    +0.045 C 
ENDBRANCH   2  15
BRANCH   8   5
ATOM      5  C   UNL     1      19.824  -4.678  -0.421  0.00  0.00    +0.047 C 
ATOM      6  C   UNL     1      19.597  -5.115   1.041  0.00  0.00    +0.035 C 
ATOM      7  C   UNL     1      20.989  -5.161   1.685  0.00  0.00    +0.074 C 
ATOM      9  C   UNL     1      21.265  -5.035  -0.645  0.00  0.00    -0.021 C 
ATOM     10  C   UNL     1      21.896  -5.294   0.506  0.00  0.00    -0.012 C 
BRANCH   7   3
ATOM      3  N   UNL     1      21.314  -3.953   2.397  0.00  0.00    -0.324 NA
ATOM     22  H   UNL     1      21.438  -3.185   1.739  0.00  0.00    +0.119 HD
ATOM     23  H   UNL     1      20.538  -3.684   3.000  0.00  0.00    +0.119 HD
ENDBRANCH   7   3
ENDBRANCH   8   5
TORSDOF 3
ENDMDL
MODEL 9
REMARK VINA RESULT:      -5.6     23.814     25.544
REMARK  Name = 40777644
REMARK  6 active torsions:
REMARK  status: ('A' for Active; 'I' for Inactive)
REMARK    1  A    between atoms: N_2  and  C_15
REMARK    2  A    between atoms: N_3  and  C_7
REMARK    3  A    between atoms: C_5  and  C_8
REMARK    4  A    between atoms: C_11  and  C_13
REMARK    5  A    between atoms: C_12  and  C_14
REMARK    6  A    between atoms: C_20  and  C_21
REMARK                            x       y       z     vdW  Elec       q    Type
REMARK                         _______ _______ _______ _____ _____    ______ ____
ROOT
ATOM      2  N   UNL     1     -11.914   8.704  18.159  0.00  0.00    -0.236 N 
ATOM      4  N   UNL     1     -11.690   8.133  16.963  0.00  0.00    -0.171 NA
ATOM      8  C   UNL     1     -11.136  10.349  16.951  0.00  0.00    +0.003 A 
ATOM     11  C   UNL     1     -11.599  10.030  18.204  0.00  0.00    +0.046 A 
ATOM     12  C   UNL     1     -11.214   9.143  16.228  0.00  0.00    +0.064 A 
ATOM     13  C   UNL     1     -11.763  10.862  19.413  0.00  0.00    +0.066 C 
ATOM     14  C   UNL     1     -10.845   8.905  14.823  0.00  0.00    +0.068 C 
ENDROOT
BRANCH   2  15
ATOM      1 CL   UNL     1     -16.022   6.993  20.657  0.00  0.00    -0.083 Cl
ATOM     15  C   UNL     1     -12.423   7.938  19.207  0.00  0.00    +0.067 A 
ATOM     16  C   UNL     1     -13.802   7.846  19.399  0.00  0.00    +0.048 A 
ATOM     17  C   UNL     1     -11.554   7.264  20.065  0.00  0.00    +0.028 A 
ATOM     18  C   UNL     1     -14.311   7.081  20.449  0.00  0.00    +0.046 A 
ATOM     19  C   UNL     1     -12.063   6.500  21.114  0.00  0.00    +0.007 A 
ATOM     20  C   UNL     1     -13.442   6.408  21.307  0.00  0.00    -0.032 A 
ATOM     21  C   UNL     1     -13.946   5.578  22.441  0.00  0.00    +0.045 C 
ENDBRANCH   2  15
BRANCH   8   5
ATOM      5  C   UNL     1     -10.653  11.694  16.459  0.00  0.00    +0.047 C 
ATOM      6  C   UNL     1     -11.729  12.797  16.545  0.00  0.00    +0.035 C 
ATOM      7  C   UNL     1     -10.977  14.092  16.878  0.00  0.00    +0.074 C 
ATOM      9  C   UNL     1      -9.523  12.284  17.252  0.00  0.00    -0.021 C 
ATOM     10  C   UNL     1      -9.702  13.591  17.475  0.00  0.00    -0.012 C 
BRANCH   7   3
ATOM      3  N   UNL     1     -10.675  14.876  15.710  0.00  0.00    -0.324 NA
ATOM     22  H   UNL     1     -10.724  14.292  14.876  0.00  0.00    +0.119 HD
ATOM     23  H   UNL     1     -11.378  15.603  15.585  0.00  0.00    +0.119 HD
ENDBRANCH   7   3
ENDBRANCH   8   5
TORSDOF 3
ENDMDL
MODEL 10
REMARK VINA RESULT:      -5.6     26.350     28.469
REMARK  Name = 40777644
REMARK  6 active torsions:
REMARK  status: ('A' for Active; 'I' for Inactive)
REMARK    1  A    between atoms: N_2  and  C_15
REMARK    2  A    between atoms: N_3  and  C_7
REMARK    3  A    between atoms: C_5  and  C_8
REMARK    4  A    between atoms: C_11  and  C_13
REMARK    5  A    between atoms: C_12  and  C_14
REMARK    6  A    between atoms: C_20  and  C_21
REMARK                            x       y       z     vdW  Elec       q    Type
REMARK                         _______ _______ _______ _____ _____    ______ ____
ROOT
ATOM      2  N   UNL     1      -3.872 -10.966  14.201  0.00  0.00    -0.236 N 
ATOM      4  N   UNL     1      -2.795 -10.233  13.873  0.00  0.00    -0.171 NA
ATOM      8  C   UNL     1      -3.468 -11.555  12.137  0.00  0.00    +0.003 A 
ATOM     11  C   UNL     1      -4.314 -11.776  13.196  0.00  0.00    +0.046 A 
ATOM     12  C   UNL     1      -2.553 -10.596  12.610  0.00  0.00    +0.064 A 
ATOM     13  C   UNL     1      -5.481 -12.671  13.330  0.00  0.00    +0.066 C 
ATOM     14  C   UNL     1      -1.419  -9.993  11.888  0.00  0.00    +0.068 C 
ENDROOT
BRANCH   2  15
ATOM      1 CL   UNL     1      -7.621  -9.115  17.126  0.00  0.00    -0.083 Cl
ATOM     15  C   UNL     1      -4.426 -10.851  15.476  0.00  0.00    +0.067 A 
ATOM     16  C   UNL     1      -5.607 -10.131  15.661  0.00  0.00    +0.048 A 
ATOM     17  C   UNL     1      -3.800 -11.453  16.567  0.00  0.00    +0.028 A 
ATOM     18  C   UNL     1      -6.160 -10.014  16.936  0.00  0.00    +0.046 A 
ATOM     19  C   UNL     1      -4.352 -11.335  17.841  0.00  0.00    +0.007 A 
ATOM     20  C   UNL     1      -5.533 -10.616  18.026  0.00  0.00    -0.032 A 
ATOM     21  C   UNL     1      -6.094 -10.515  19.407  0.00  0.00    +0.045 C 
ENDBRANCH   2  15
BRANCH   8   5
ATOM      5  C   UNL     1      -3.512 -12.200  10.771  0.00  0.00    +0.047 C 
ATOM      6  C   UNL     1      -3.624 -13.738  10.826  0.00  0.00    +0.035 C 
ATOM      7  C   UNL     1      -4.485 -14.139   9.622  0.00  0.00    +0.074 C 
ATOM      9  C   UNL     1      -4.699 -11.821   9.934  0.00  0.00    -0.021 C 
ATOM     10  C   UNL     1      -5.224 -12.880   9.308  0.00  0.00    -0.012 C 
BRANCH   7   3
ATOM      3  N   UNL     1      -3.699 -14.523   8.479  0.00  0.00    -0.324 NA
ATOM     22  H   UNL     1      -3.609 -13.737   7.838  0.00  0.00    +0.119 HD
ATOM     23  H   UNL     1      -2.751 -14.759   8.770  0.00  0.00    +0.119 HD
ENDBRANCH   7   3
ENDBRANCH   8   5
TORSDOF 3
ENDMDL
