MODEL 1
REMARK VINA RESULT:      -6.4      0.000      0.000
REMARK  Name = 45783341
REMARK  9 active torsions:
REMARK  status: ('A' for Active; 'I' for Inactive)
REMARK    1  A    between atoms: O_2  and  C_24
REMARK    2  A    between atoms: O_2  and  C_26
REMARK    3  A    between atoms: O_3  and  C_27
REMARK    4  A    between atoms: O_3  and  C_28
REMARK    5  A    between atoms: N_4  and  C_12
REMARK    6  A    between atoms: C_8  and  C_13
REMARK    7  A    between atoms: C_12  and  C_14
REMARK    8  A    between atoms: C_17  and  C_20
REMARK    9  A    between atoms: C_26  and  C_27
REMARK                            x       y       z     vdW  Elec       q    Type
REMARK                         _______ _______ _______ _____ _____    ______ ____
ROOT
ATOM      1  O   UNL     1      16.135   6.044  18.738  0.00  0.00    -0.336 OA
ATOM      5  N   UNL     1      16.023   7.819  20.099  0.00  0.00    -0.190 NA
ATOM      6  N   UNL     1      17.329   6.049  19.470  0.00  0.00    -0.056 NA
ATOM     13  C   UNL     1      15.425   7.118  19.169  0.00  0.00    +0.245 A 
ATOM     17  C   UNL     1      17.188   7.125  20.251  0.00  0.00    +0.202 A 
ENDROOT
BRANCH  17  20
ATOM      7  N   UNL     1      20.147   8.331  23.020  0.00  0.00    -0.221 NA
ATOM     20  C   UNL     1      18.191   7.533  21.190  0.00  0.00    +0.029 A 
ATOM     22  C   UNL     1      18.966   6.581  21.842  0.00  0.00    +0.079 A 
ATOM     23  C   UNL     1      18.392   8.884  21.453  0.00  0.00    +0.031 A 
ATOM     24  C   UNL     1      19.923   7.028  22.740  0.00  0.00    +0.215 A 
ATOM     25  C   UNL     1      19.374   9.228  22.368  0.00  0.00    +0.115 A 
BRANCH  24   2
ATOM      2  O   UNL     1      20.700   6.108  23.395  0.00  0.00    -0.474 OA
BRANCH   2  26
ATOM     26  C   UNL     1      22.109   6.234  23.238  0.00  0.00    +0.258 C 
BRANCH  26  27
ATOM     27  C   UNL     1      22.696   4.869  22.937  0.00  0.00    +0.200 C 
BRANCH  27   3
ATOM      3  O   UNL     1      21.644   3.973  22.601  0.00  0.00    -0.380 OA
ATOM     28  C   UNL     1      21.793   3.464  21.284  0.00  0.00    +0.194 C 
ENDBRANCH  27   3
ENDBRANCH  26  27
ENDBRANCH   2  26
ENDBRANCH  24   2
ENDBRANCH  17  20
BRANCH  13   8
ATOM      4  N   UNL     1      13.284   8.387  19.196  0.00  0.00    -0.287 NA
ATOM      8  C   UNL     1      14.072   7.338  18.521  0.00  0.00    +0.146 C 
ATOM      9  C   UNL     1      14.183   7.809  17.059  0.00  0.00    +0.030 C 
ATOM     10  C   UNL     1      13.376   9.098  16.995  0.00  0.00    +0.017 C 
ATOM     11  C   UNL     1      12.426   8.983  18.170  0.00  0.00    +0.085 C 
BRANCH   4  12
ATOM     12  C   UNL     1      12.517   7.892  20.331  0.00  0.00    +0.120 C 
BRANCH  12  14
ATOM     14  C   UNL     1      12.277   8.966  21.358  0.00  0.00    -0.033 A 
ATOM     15  C   UNL     1      13.332   9.772  21.784  0.00  0.00    +0.005 A 
ATOM     16  C   UNL     1      10.999   9.153  21.884  0.00  0.00    +0.005 A 
ATOM     18  C   UNL     1      13.109  10.767  22.736  0.00  0.00    +0.000 A 
ATOM     19  C   UNL     1      10.776  10.147  22.837  0.00  0.00    +0.000 A 
ATOM     21  C   UNL     1      11.830  10.955  23.262  0.00  0.00    +0.000 A 
ENDBRANCH  12  14
ENDBRANCH   4  12
ENDBRANCH  13   8
TORSDOF 8
ENDMDL
MODEL 2
REMARK VINA RESULT:      -6.3     26.799     30.185
REMARK  Name = 45783341
REMARK  9 active torsions:
REMARK  status: ('A' for Active; 'I' for Inactive)
REMARK    1  A    between atoms: O_2  and  C_24
REMARK    2  A    between atoms: O_2  and  C_26
REMARK    3  A    between atoms: O_3  and  C_27
REMARK    4  A    between atoms: O_3  and  C_28
REMARK    5  A    between atoms: N_4  and  C_12
REMARK    6  A    between atoms: C_8  and  C_13
REMARK    7  A    between atoms: C_12  and  C_14
REMARK    8  A    between atoms: C_17  and  C_20
REMARK    9  A    between atoms: C_26  and  C_27
REMARK                            x       y       z     vdW  Elec       q    Type
REMARK                         _______ _______ _______ _____ _____    ______ ____
ROOT
ATOM      1  O   UNL     1      -4.288 -11.997  17.469  0.00  0.00    -0.336 OA
ATOM      5  N   UNL     1      -5.337 -10.553  16.117  0.00  0.00    -0.190 NA
ATOM      6  N   UNL     1      -5.530 -11.741  18.063  0.00  0.00    -0.056 NA
ATOM     13  C   UNL     1      -4.255 -11.258  16.330  0.00  0.00    +0.245 A 
ATOM     17  C   UNL     1      -6.091 -10.881  17.206  0.00  0.00    +0.202 A 
ENDROOT
BRANCH  17  20
ATOM      7  N   UNL     1      -9.950  -9.261  17.808  0.00  0.00    -0.221 NA
ATOM     20  C   UNL     1      -7.399 -10.331  17.410  0.00  0.00    +0.029 A 
ATOM     22  C   UNL     1      -7.807  -9.214  16.690  0.00  0.00    +0.079 A 
ATOM     23  C   UNL     1      -8.265 -10.913  18.329  0.00  0.00    +0.031 A 
ATOM     24  C   UNL     1      -9.081  -8.722  16.924  0.00  0.00    +0.215 A 
ATOM     25  C   UNL     1      -9.518 -10.345  18.490  0.00  0.00    +0.115 A 
BRANCH  24   2
ATOM      2  O   UNL     1      -9.507  -7.622  16.226  0.00  0.00    -0.474 OA
BRANCH   2  26
ATOM     26  C   UNL     1     -10.905  -7.523  15.979  0.00  0.00    +0.258 C 
BRANCH  26  27
ATOM     27  C   UNL     1     -11.341  -6.084  16.177  0.00  0.00    +0.200 C 
BRANCH  27   3
ATOM      3  O   UNL     1     -11.811  -5.566  14.939  0.00  0.00    -0.380 OA
ATOM     28  C   UNL     1     -12.335  -6.593  14.109  0.00  0.00    +0.194 C 
ENDBRANCH  27   3
ENDBRANCH  26  27
ENDBRANCH   2  26
ENDBRANCH  24   2
ENDBRANCH  17  20
BRANCH  13   8
ATOM      4  N   UNL     1      -3.067 -10.556  14.258  0.00  0.00    -0.287 NA
ATOM      8  C   UNL     1      -2.996 -11.362  15.493  0.00  0.00    +0.146 C 
ATOM      9  C   UNL     1      -1.748 -10.841  16.230  0.00  0.00    +0.030 C 
ATOM     10  C   UNL     1      -1.151  -9.789  15.306  0.00  0.00    +0.017 C 
ATOM     11  C   UNL     1      -1.693 -10.164  13.941  0.00  0.00    +0.085 C 
BRANCH   4  12
ATOM     12  C   UNL     1      -3.707 -11.254  13.151  0.00  0.00    +0.120 C 
BRANCH  12  14
ATOM     14  C   UNL     1      -4.049 -10.320  12.021  0.00  0.00    -0.033 A 
ATOM     15  C   UNL     1      -5.235  -9.585  12.058  0.00  0.00    +0.005 A 
ATOM     16  C   UNL     1      -3.181 -10.189  10.938  0.00  0.00    +0.005 A 
ATOM     18  C   UNL     1      -5.551  -8.721  11.011  0.00  0.00    +0.000 A 
ATOM     19  C   UNL     1      -3.498  -9.325   9.890  0.00  0.00    +0.000 A 
ATOM     21  C   UNL     1      -4.683  -8.590   9.927  0.00  0.00    +0.000 A 
ENDBRANCH  12  14
ENDBRANCH   4  12
ENDBRANCH  13   8
TORSDOF 8
ENDMDL
MODEL 3
REMARK VINA RESULT:      -6.1     29.133     32.579
REMARK  Name = 45783341
REMARK  9 active torsions:
REMARK  status: ('A' for Active; 'I' for Inactive)
REMARK    1  A    between atoms: O_2  and  C_24
REMARK    2  A    between atoms: O_2  and  C_26
REMARK    3  A    between atoms: O_3  and  C_27
REMARK    4  A    between atoms: O_3  and  C_28
REMARK    5  A    between atoms: N_4  and  C_12
REMARK    6  A    between atoms: C_8  and  C_13
REMARK    7  A    between atoms: C_12  and  C_14
REMARK    8  A    between atoms: C_17  and  C_20
REMARK    9  A    between atoms: C_26  and  C_27
REMARK                            x       y       z     vdW  Elec       q    Type
REMARK                         _______ _______ _______ _____ _____    ______ ____
ROOT
ATOM      1  O   UNL     1     -16.705   3.542  22.083  0.00  0.00    -0.336 OA
ATOM      5  N   UNL     1     -16.992   4.601  24.036  0.00  0.00    -0.190 NA
ATOM      6  N   UNL     1     -16.530   2.574  23.080  0.00  0.00    -0.056 NA
ATOM     13  C   UNL     1     -16.972   4.705  22.731  0.00  0.00    +0.245 A 
ATOM     17  C   UNL     1     -16.715   3.275  24.203  0.00  0.00    +0.202 A 
ENDROOT
BRANCH  17  20
ATOM      7  N   UNL     1     -16.461   1.528  28.046  0.00  0.00    -0.221 NA
ATOM     20  C   UNL     1     -16.628   2.683  25.506  0.00  0.00    +0.029 A 
ATOM     22  C   UNL     1     -16.019   3.373  26.548  0.00  0.00    +0.079 A 
ATOM     23  C   UNL     1     -17.153   1.415  25.733  0.00  0.00    +0.031 A 
ATOM     24  C   UNL     1     -15.962   2.757  27.788  0.00  0.00    +0.215 A 
ATOM     25  C   UNL     1     -17.045   0.887  27.008  0.00  0.00    +0.115 A 
BRANCH  24   2
ATOM      2  O   UNL     1     -15.367   3.418  28.831  0.00  0.00    -0.474 OA
BRANCH   2  26
ATOM     26  C   UNL     1     -15.389   2.766  30.097  0.00  0.00    +0.258 C 
BRANCH  26  27
ATOM     27  C   UNL     1     -13.963   2.518  30.549  0.00  0.00    +0.200 C 
BRANCH  27   3
ATOM      3  O   UNL     1     -13.473   1.342  29.917  0.00  0.00    -0.380 OA
ATOM     28  C   UNL     1     -14.094   0.174  30.435  0.00  0.00    +0.194 C 
ENDBRANCH  27   3
ENDBRANCH  26  27
ENDBRANCH   2  26
ENDBRANCH  24   2
ENDBRANCH  17  20
BRANCH  13   8
ATOM      4  N   UNL     1     -15.975   6.386  21.190  0.00  0.00    -0.287 NA
ATOM      8  C   UNL     1     -17.205   5.924  21.861  0.00  0.00    +0.146 C 
ATOM      9  C   UNL     1     -18.200   5.656  20.717  0.00  0.00    +0.030 C 
ATOM     10  C   UNL     1     -17.461   6.054  19.447  0.00  0.00    +0.017 C 
ATOM     11  C   UNL     1     -16.399   7.016  19.939  0.00  0.00    +0.085 C 
BRANCH   4  12
ATOM     12  C   UNL     1     -15.174   7.284  22.011  0.00  0.00    +0.120 C 
BRANCH  12  14
ATOM     14  C   UNL     1     -13.802   7.503  21.429  0.00  0.00    -0.033 A 
ATOM     15  C   UNL     1     -13.394   8.787  21.069  0.00  0.00    +0.005 A 
ATOM     16  C   UNL     1     -12.941   6.420  21.251  0.00  0.00    +0.005 A 
ATOM     18  C   UNL     1     -12.124   8.988  20.529  0.00  0.00    +0.000 A 
ATOM     19  C   UNL     1     -11.671   6.622  20.711  0.00  0.00    +0.000 A 
ATOM     21  C   UNL     1     -11.261   7.906  20.351  0.00  0.00    +0.000 A 
ENDBRANCH  12  14
ENDBRANCH   4  12
ENDBRANCH  13   8
TORSDOF 8
ENDMDL
MODEL 4
REMARK VINA RESULT:      -6.1     27.173     30.398
REMARK  Name = 45783341
REMARK  9 active torsions:
REMARK  status: ('A' for Active; 'I' for Inactive)
REMARK    1  A    between atoms: O_2  and  C_24
REMARK    2  A    between atoms: O_2  and  C_26
REMARK    3  A    between atoms: O_3  and  C_27
REMARK    4  A    between atoms: O_3  and  C_28
REMARK    5  A    between atoms: N_4  and  C_12
REMARK    6  A    between atoms: C_8  and  C_13
REMARK    7  A    between atoms: C_12  and  C_14
REMARK    8  A    between atoms: C_17  and  C_20
REMARK    9  A    between atoms: C_26  and  C_27
REMARK                            x       y       z     vdW  Elec       q    Type
REMARK                         _______ _______ _______ _____ _____    ______ ____
ROOT
ATOM      1  O   UNL     1      -5.004  -9.793  15.904  0.00  0.00    -0.336 OA
ATOM      5  N   UNL     1      -5.076 -11.749  16.994  0.00  0.00    -0.190 NA
ATOM      6  N   UNL     1      -6.190  -9.780  16.649  0.00  0.00    -0.056 NA
ATOM     13  C   UNL     1      -4.410 -10.987  16.163  0.00  0.00    +0.245 A 
ATOM     17  C   UNL     1      -6.160 -10.967  17.265  0.00  0.00    +0.202 A 
ENDROOT
BRANCH  17  20
ATOM      7  N   UNL     1      -9.222 -12.248  19.886  0.00  0.00    -0.221 NA
ATOM     20  C   UNL     1      -7.199 -11.401  18.154  0.00  0.00    +0.029 A 
ATOM     22  C   UNL     1      -8.465 -10.833  18.078  0.00  0.00    +0.079 A 
ATOM     23  C   UNL     1      -6.942 -12.391  19.096  0.00  0.00    +0.031 A 
ATOM     24  C   UNL     1      -9.433 -11.287  18.959  0.00  0.00    +0.215 A 
ATOM     25  C   UNL     1      -7.978 -12.776  19.931  0.00  0.00    +0.115 A 
BRANCH  24   2
ATOM      2  O   UNL     1     -10.691 -10.744  18.903  0.00  0.00    -0.474 OA
BRANCH   2  26
ATOM     26  C   UNL     1     -11.125 -10.266  17.635  0.00  0.00    +0.258 C 
BRANCH  26  27
ATOM     27  C   UNL     1     -12.085  -9.111  17.846  0.00  0.00    +0.200 C 
BRANCH  27   3
ATOM      3  O   UNL     1     -11.723  -8.041  16.981  0.00  0.00    -0.380 OA
ATOM     28  C   UNL     1     -10.342  -7.728  17.091  0.00  0.00    +0.194 C 
ENDBRANCH  27   3
ENDBRANCH  26  27
ENDBRANCH   2  26
ENDBRANCH  24   2
ENDBRANCH  17  20
BRANCH  13   8
ATOM      4  N   UNL     1      -2.966 -10.518  14.191  0.00  0.00    -0.287 NA
ATOM      8  C   UNL     1      -3.090 -11.249  15.467  0.00  0.00    +0.146 C 
ATOM      9  C   UNL     1      -1.877 -10.793  16.300  0.00  0.00    +0.030 C 
ATOM     10  C   UNL     1      -1.099  -9.855  15.388  0.00  0.00    +0.017 C 
ATOM     11  C   UNL     1      -1.537 -10.266  13.996  0.00  0.00    +0.085 C 
BRANCH   4  12
ATOM     12  C   UNL     1      -3.555 -11.226  13.062  0.00  0.00    +0.120 C 
BRANCH  12  14
ATOM     14  C   UNL     1      -3.962 -10.285  11.960  0.00  0.00    -0.033 A 
ATOM     15  C   UNL     1      -3.120 -10.087  10.866  0.00  0.00    +0.005 A 
ATOM     16  C   UNL     1      -5.181  -9.612  12.034  0.00  0.00    +0.005 A 
ATOM     18  C   UNL     1      -3.498  -9.214   9.845  0.00  0.00    +0.000 A 
ATOM     19  C   UNL     1      -5.558  -8.738  11.014  0.00  0.00    +0.000 A 
ATOM     21  C   UNL     1      -4.717  -8.540   9.918  0.00  0.00    +0.000 A 
ENDBRANCH  12  14
ENDBRANCH   4  12
ENDBRANCH  13   8
TORSDOF 8
ENDMDL
MODEL 5
REMARK VINA RESULT:      -6.1     16.856     21.230
REMARK  Name = 45783341
REMARK  9 active torsions:
REMARK  status: ('A' for Active; 'I' for Inactive)
REMARK    1  A    between atoms: O_2  and  C_24
REMARK    2  A    between atoms: O_2  and  C_26
REMARK    3  A    between atoms: O_3  and  C_27
REMARK    4  A    between atoms: O_3  and  C_28
REMARK    5  A    between atoms: N_4  and  C_12
REMARK    6  A    between atoms: C_8  and  C_13
REMARK    7  A    between atoms: C_12  and  C_14
REMARK    8  A    between atoms: C_17  and  C_20
REMARK    9  A    between atoms: C_26  and  C_27
REMARK                            x       y       z     vdW  Elec       q    Type
REMARK                         _______ _______ _______ _____ _____    ______ ____
ROOT
ATOM      1  O   UNL     1      11.929   3.072   2.422  0.00  0.00    -0.336 OA
ATOM      5  N   UNL     1      11.810   5.189   1.700  0.00  0.00    -0.190 NA
ATOM      6  N   UNL     1      10.908   3.679   3.164  0.00  0.00    -0.056 NA
ATOM     13  C   UNL     1      12.408   4.029   1.586  0.00  0.00    +0.245 A 
ATOM     17  C   UNL     1      10.898   4.925   2.680  0.00  0.00    +0.202 A 
ENDROOT
BRANCH  17  20
ATOM      7  N   UNL     1       8.228   7.889   4.082  0.00  0.00    -0.221 NA
ATOM     20  C   UNL     1       9.992   5.930   3.156  0.00  0.00    +0.029 A 
ATOM     22  C   UNL     1       9.490   5.861   4.450  0.00  0.00    +0.079 A 
ATOM     23  C   UNL     1       9.613   6.977   2.323  0.00  0.00    +0.031 A 
ATOM     24  C   UNL     1       8.618   6.857   4.861  0.00  0.00    +0.215 A 
ATOM     25  C   UNL     1       8.736   7.923   2.829  0.00  0.00    +0.115 A 
BRANCH  24   2
ATOM      2  O   UNL     1       8.110   6.811   6.133  0.00  0.00    -0.474 OA
BRANCH   2  26
ATOM     26  C   UNL     1       8.641   7.743   7.068  0.00  0.00    +0.258 C 
BRANCH  26  27
ATOM     27  C   UNL     1       9.713   7.058   7.893  0.00  0.00    +0.200 C 
BRANCH  27   3
ATOM      3  O   UNL     1       9.124   5.994   8.631  0.00  0.00    -0.380 OA
ATOM     28  C   UNL     1       9.820   4.772   8.429  0.00  0.00    +0.194 C 
ENDBRANCH  27   3
ENDBRANCH  26  27
ENDBRANCH   2  26
ENDBRANCH  24   2
ENDBRANCH  17  20
BRANCH  13   8
ATOM      4  N   UNL     1      13.234   3.883  -0.757  0.00  0.00    -0.287 NA
ATOM      8  C   UNL     1      13.537   3.618   0.663  0.00  0.00    +0.146 C 
ATOM      9  C   UNL     1      14.840   4.390   0.937  0.00  0.00    +0.030 C 
ATOM     10  C   UNL     1      15.226   5.007  -0.400  0.00  0.00    +0.017 C 
ATOM     11  C   UNL     1      14.519   4.130  -1.414  0.00  0.00    +0.085 C 
BRANCH   4  12
ATOM     12  C   UNL     1      12.490   2.807  -1.398  0.00  0.00    +0.120 C 
BRANCH  12  14
ATOM     14  C   UNL     1      11.287   3.323  -2.143  0.00  0.00    -0.033 A 
ATOM     15  C   UNL     1      10.734   2.572  -3.180  0.00  0.00    +0.005 A 
ATOM     16  C   UNL     1      10.727   4.552  -1.795  0.00  0.00    +0.005 A 
ATOM     18  C   UNL     1       9.621   3.051  -3.870  0.00  0.00    +0.000 A 
ATOM     19  C   UNL     1       9.614   5.031  -2.485  0.00  0.00    +0.000 A 
ATOM     21  C   UNL     1       9.059   4.280  -3.522  0.00  0.00    +0.000 A 
ENDBRANCH  12  14
ENDBRANCH   4  12
ENDBRANCH  13   8
TORSDOF 8
ENDMDL
MODEL 6
REMARK VINA RESULT:      -6.0      1.871      3.579
REMARK  Name = 45783341
REMARK  9 active torsions:
REMARK  status: ('A' for Active; 'I' for Inactive)
REMARK    1  A    between atoms: O_2  and  C_24
REMARK    2  A    between atoms: O_2  and  C_26
REMARK    3  A    between atoms: O_3  and  C_27
REMARK    4  A    between atoms: O_3  and  C_28
REMARK    5  A    between atoms: N_4  and  C_12
REMARK    6  A    between atoms: C_8  and  C_13
REMARK    7  A    between atoms: C_12  and  C_14
REMARK    8  A    between atoms: C_17  and  C_20
REMARK    9  A    between atoms: C_26  and  C_27
REMARK                            x       y       z     vdW  Elec       q    Type
REMARK                         _______ _______ _______ _____ _____    ______ ____
ROOT
ATOM      1  O   UNL     1      14.759   6.852  19.890  0.00  0.00    -0.336 OA
ATOM      5  N   UNL     1      15.810   8.219  21.320  0.00  0.00    -0.190 NA
ATOM      6  N   UNL     1      16.123   6.547  19.789  0.00  0.00    -0.056 NA
ATOM     13  C   UNL     1      14.663   7.846  20.811  0.00  0.00    +0.245 A 
ATOM     17  C   UNL     1      16.676   7.395  20.663  0.00  0.00    +0.202 A 
ENDROOT
BRANCH  17  20
ATOM      7  N   UNL     1      20.844   7.542  21.362  0.00  0.00    -0.221 NA
ATOM     20  C   UNL     1      18.089   7.444  20.900  0.00  0.00    +0.029 A 
ATOM     22  C   UNL     1      18.877   6.324  20.661  0.00  0.00    +0.079 A 
ATOM     23  C   UNL     1      18.678   8.613  21.371  0.00  0.00    +0.031 A 
ATOM     24  C   UNL     1      20.237   6.423  20.906  0.00  0.00    +0.215 A 
ATOM     25  C   UNL     1      20.046   8.610  21.583  0.00  0.00    +0.115 A 
BRANCH  24   2
ATOM      2  O   UNL     1      21.035   5.332  20.677  0.00  0.00    -0.474 OA
BRANCH   2  26
ATOM     26  C   UNL     1      22.368   5.400  21.171  0.00  0.00    +0.258 C 
BRANCH  26  27
ATOM     27  C   UNL     1      23.209   4.353  20.467  0.00  0.00    +0.200 C 
BRANCH  27   3
ATOM      3  O   UNL     1      23.640   3.387  21.417  0.00  0.00    -0.380 OA
ATOM     28  C   UNL     1      23.729   2.092  20.839  0.00  0.00    +0.194 C 
ENDBRANCH  27   3
ENDBRANCH  26  27
ENDBRANCH   2  26
ENDBRANCH  24   2
ENDBRANCH  17  20
BRANCH  13   8
ATOM      4  N   UNL     1      12.517   8.698  19.881  0.00  0.00    -0.287 NA
ATOM      8  C   UNL     1      13.268   8.361  21.106  0.00  0.00    +0.146 C 
ATOM      9  C   UNL     1      12.392   7.321  21.829  0.00  0.00    +0.030 C 
ATOM     10  C   UNL     1      11.144   7.185  20.968  0.00  0.00    +0.017 C 
ATOM     11  C   UNL     1      11.103   8.486  20.192  0.00  0.00    +0.085 C 
BRANCH   4  12
ATOM     12  C   UNL     1      12.776  10.049  19.401  0.00  0.00    +0.120 C 
BRANCH  12  14
ATOM     14  C   UNL     1      13.392  10.049  18.028  0.00  0.00    -0.033 A 
ATOM     15  C   UNL     1      13.948  11.220  17.513  0.00  0.00    +0.005 A 
ATOM     16  C   UNL     1      13.405   8.878  17.271  0.00  0.00    +0.005 A 
ATOM     18  C   UNL     1      14.518  11.219  16.240  0.00  0.00    +0.000 A 
ATOM     19  C   UNL     1      13.974   8.878  15.997  0.00  0.00    +0.000 A 
ATOM     21  C   UNL     1      14.532  10.048  15.482  0.00  0.00    +0.000 A 
ENDBRANCH  12  14
ENDBRANCH   4  12
ENDBRANCH  13   8
TORSDOF 8
ENDMDL
MODEL 7
REMARK VINA RESULT:      -6.0      4.032      8.401
REMARK  Name = 45783341
REMARK  9 active torsions:
REMARK  status: ('A' for Active; 'I' for Inactive)
REMARK    1  A    between atoms: O_2  and  C_24
REMARK    2  A    between atoms: O_2  and  C_26
REMARK    3  A    between atoms: O_3  and  C_27
REMARK    4  A    between atoms: O_3  and  C_28
REMARK    5  A    between atoms: N_4  and  C_12
REMARK    6  A    between atoms: C_8  and  C_13
REMARK    7  A    between atoms: C_12  and  C_14
REMARK    8  A    between atoms: C_17  and  C_20
REMARK    9  A    between atoms: C_26  and  C_27
REMARK                            x       y       z     vdW  Elec       q    Type
REMARK                         _______ _______ _______ _____ _____    ______ ____
ROOT
ATOM      1  O   UNL     1      13.012   7.477  17.348  0.00  0.00    -0.336 OA
ATOM      5  N   UNL     1      13.530   9.484  18.197  0.00  0.00    -0.190 NA
ATOM      6  N   UNL     1      13.691   8.165  16.334  0.00  0.00    -0.056 NA
ATOM     13  C   UNL     1      12.959   8.325  18.408  0.00  0.00    +0.245 A 
ATOM     17  C   UNL     1      13.964   9.339  16.911  0.00  0.00    +0.202 A 
ENDROOT
BRANCH  17  20
ATOM      7  N   UNL     1      16.033  12.434  14.905  0.00  0.00    -0.221 NA
ATOM     20  C   UNL     1      14.666  10.388  16.231  0.00  0.00    +0.029 A 
ATOM     22  C   UNL     1      14.760  10.379  14.844  0.00  0.00    +0.079 A 
ATOM     23  C   UNL     1      15.255  11.418  16.956  0.00  0.00    +0.031 A 
ATOM     24  C   UNL     1      15.449  11.416  14.234  0.00  0.00    +0.215 A 
ATOM     25  C   UNL     1      15.921  12.408  16.252  0.00  0.00    +0.115 A 
BRANCH  24   2
ATOM      2  O   UNL     1      15.555  11.430  12.868  0.00  0.00    -0.474 OA
BRANCH   2  26
ATOM     26  C   UNL     1      15.204  12.643  12.211  0.00  0.00    +0.258 C 
BRANCH  26  27
ATOM     27  C   UNL     1      13.859  12.466  11.533  0.00  0.00    +0.200 C 
BRANCH  27   3
ATOM      3  O   UNL     1      12.834  12.929  12.404  0.00  0.00    -0.380 OA
ATOM     28  C   UNL     1      11.550  12.809  11.808  0.00  0.00    +0.194 C 
ENDBRANCH  27   3
ENDBRANCH  26  27
ENDBRANCH   2  26
ENDBRANCH  24   2
ENDBRANCH  17  20
BRANCH  13   8
ATOM      4  N   UNL     1      13.090   7.959  20.866  0.00  0.00    -0.287 NA
ATOM      8  C   UNL     1      12.265   7.809  19.652  0.00  0.00    +0.146 C 
ATOM      9  C   UNL     1      10.964   8.572  19.966  0.00  0.00    +0.030 C 
ATOM     10  C   UNL     1      11.126   9.062  21.398  0.00  0.00    +0.017 C 
ATOM     11  C   UNL     1      12.157   8.118  21.983  0.00  0.00    +0.085 C 
BRANCH   4  12
ATOM     12  C   UNL     1      14.011   6.849  21.077  0.00  0.00    +0.120 C 
BRANCH  12  14
ATOM     14  C   UNL     1      15.447   7.298  21.041  0.00  0.00    -0.033 A 
ATOM     15  C   UNL     1      15.801   8.547  21.551  0.00  0.00    +0.005 A 
ATOM     16  C   UNL     1      16.424   6.464  20.497  0.00  0.00    +0.005 A 
ATOM     18  C   UNL     1      17.133   8.962  21.517  0.00  0.00    +0.000 A 
ATOM     19  C   UNL     1      17.755   6.879  20.462  0.00  0.00    +0.000 A 
ATOM     21  C   UNL     1      18.110   8.128  20.973  0.00  0.00    +0.000 A 
ENDBRANCH  12  14
ENDBRANCH   4  12
ENDBRANCH  13   8
TORSDOF 8
ENDMDL
MODEL 8
REMARK VINA RESULT:      -5.9      1.855      2.898
REMARK  Name = 45783341
REMARK  9 active torsions:
REMARK  status: ('A' for Active; 'I' for Inactive)
REMARK    1  A    between atoms: O_2  and  C_24
REMARK    2  A    between atoms: O_2  and  C_26
REMARK    3  A    between atoms: O_3  and  C_27
REMARK    4  A    between atoms: O_3  and  C_28
REMARK    5  A    between atoms: N_4  and  C_12
REMARK    6  A    between atoms: C_8  and  C_13
REMARK    7  A    between atoms: C_12  and  C_14
REMARK    8  A    between atoms: C_17  and  C_20
REMARK    9  A    between atoms: C_26  and  C_27
REMARK                            x       y       z     vdW  Elec       q    Type
REMARK                         _______ _______ _______ _____ _____    ______ ____
ROOT
ATOM      1  O   UNL     1      16.126   5.948  18.408  0.00  0.00    -0.336 OA
ATOM      5  N   UNL     1      16.740   7.158  20.190  0.00  0.00    -0.190 NA
ATOM      6  N   UNL     1      17.388   5.472  18.786  0.00  0.00    -0.056 NA
ATOM     13  C   UNL     1      15.819   6.939  19.285  0.00  0.00    +0.245 A 
ATOM     17  C   UNL     1      17.683   6.235  19.844  0.00  0.00    +0.202 A 
ENDROOT
BRANCH  17  20
ATOM      7  N   UNL     1      21.300   5.838  21.997  0.00  0.00    -0.221 NA
ATOM     20  C   UNL     1      18.910   6.101  20.574  0.00  0.00    +0.029 A 
ATOM     22  C   UNL     1      19.131   6.866  21.714  0.00  0.00    +0.079 A 
ATOM     23  C   UNL     1      19.883   5.205  20.145  0.00  0.00    +0.031 A 
ATOM     24  C   UNL     1      20.332   6.698  22.384  0.00  0.00    +0.215 A 
ATOM     25  C   UNL     1      21.050   5.112  20.884  0.00  0.00    +0.115 A 
BRANCH  24   2
ATOM      2  O   UNL     1      20.574   7.440  23.511  0.00  0.00    -0.474 OA
BRANCH   2  26
ATOM     26  C   UNL     1      21.117   6.748  24.629  0.00  0.00    +0.258 C 
BRANCH  26  27
ATOM     27  C   UNL     1      21.103   7.667  25.834  0.00  0.00    +0.200 C 
BRANCH  27   3
ATOM      3  O   UNL     1      19.933   7.412  26.600  0.00  0.00    -0.380 OA
ATOM     28  C   UNL     1      20.202   7.459  27.994  0.00  0.00    +0.194 C 
ENDBRANCH  27   3
ENDBRANCH  26  27
ENDBRANCH   2  26
ENDBRANCH  24   2
ENDBRANCH  17  20
BRANCH  13   8
ATOM      4  N   UNL     1      14.483   9.018  19.578  0.00  0.00    -0.287 NA
ATOM      8  C   UNL     1      14.483   7.626  19.088  0.00  0.00    +0.146 C 
ATOM      9  C   UNL     1      14.082   7.731  17.605  0.00  0.00    +0.030 C 
ATOM     10  C   UNL     1      13.818   9.212  17.369  0.00  0.00    +0.017 C 
ATOM     11  C   UNL     1      13.515   9.745  18.755  0.00  0.00    +0.085 C 
BRANCH   4  12
ATOM     12  C   UNL     1      14.185   9.128  21.000  0.00  0.00    +0.120 C 
BRANCH  12  14
ATOM     14  C   UNL     1      12.849   8.524  21.342  0.00  0.00    -0.033 A 
ATOM     15  C   UNL     1      11.784   9.347  21.706  0.00  0.00    +0.005 A 
ATOM     16  C   UNL     1      12.678   7.141  21.294  0.00  0.00    +0.005 A 
ATOM     18  C   UNL     1      10.547   8.787  22.023  0.00  0.00    +0.000 A 
ATOM     19  C   UNL     1      11.441   6.580  21.613  0.00  0.00    +0.000 A 
ATOM     21  C   UNL     1      10.374   7.403  21.976  0.00  0.00    +0.000 A 
ENDBRANCH  12  14
ENDBRANCH   4  12
ENDBRANCH  13   8
TORSDOF 8
ENDMDL
MODEL 9
REMARK VINA RESULT:      -5.9     15.782     20.102
REMARK  Name = 45783341
REMARK  9 active torsions:
REMARK  status: ('A' for Active; 'I' for Inactive)
REMARK    1  A    between atoms: O_2  and  C_24
REMARK    2  A    between atoms: O_2  and  C_26
REMARK    3  A    between atoms: O_3  and  C_27
REMARK    4  A    between atoms: O_3  and  C_28
REMARK    5  A    between atoms: N_4  and  C_12
REMARK    6  A    between atoms: C_8  and  C_13
REMARK    7  A    between atoms: C_12  and  C_14
REMARK    8  A    between atoms: C_17  and  C_20
REMARK    9  A    between atoms: C_26  and  C_27
REMARK                            x       y       z     vdW  Elec       q    Type
REMARK                         _______ _______ _______ _____ _____    ______ ____
ROOT
ATOM      1  O   UNL     1      11.164   6.952   3.945  0.00  0.00    -0.336 OA
ATOM      5  N   UNL     1      10.934   4.741   3.668  0.00  0.00    -0.190 NA
ATOM      6  N   UNL     1      11.692   6.662   2.681  0.00  0.00    -0.056 NA
ATOM     13  C   UNL     1      10.741   5.767   4.458  0.00  0.00    +0.245 A 
ATOM     17  C   UNL     1      11.520   5.339   2.590  0.00  0.00    +0.202 A 
ENDROOT
BRANCH  17  20
ATOM      7  N   UNL     1      12.711   3.120  -0.807  0.00  0.00    -0.221 NA
ATOM     20  C   UNL     1      11.923   4.586   1.438  0.00  0.00    +0.029 A 
ATOM     22  C   UNL     1      11.024   4.358   0.403  0.00  0.00    +0.079 A 
ATOM     23  C   UNL     1      13.216   4.081   1.352  0.00  0.00    +0.031 A 
ATOM     24  C   UNL     1      11.464   3.626  -0.688  0.00  0.00    +0.215 A 
ATOM     25  C   UNL     1      13.558   3.361   0.220  0.00  0.00    +0.115 A 
BRANCH  24   2
ATOM      2  O   UNL     1      10.596   3.388  -1.722  0.00  0.00    -0.474 OA
BRANCH   2  26
ATOM     26  C   UNL     1      11.123   2.710  -2.857  0.00  0.00    +0.258 C 
BRANCH  26  27
ATOM     27  C   UNL     1      10.095   2.739  -3.971  0.00  0.00    +0.200 C 
BRANCH  27   3
ATOM      3  O   UNL     1       8.963   3.485  -3.541  0.00  0.00    -0.380 OA
ATOM     28  C   UNL     1       8.651   4.530  -4.452  0.00  0.00    +0.194 C 
ENDBRANCH  27   3
ENDBRANCH  26  27
ENDBRANCH   2  26
ENDBRANCH  24   2
ENDBRANCH  17  20
BRANCH  13   8
ATOM      4  N   UNL     1      10.641   6.922   6.660  0.00  0.00    -0.287 NA
ATOM      8  C   UNL     1      10.120   5.812   5.839  0.00  0.00    +0.146 C 
ATOM      9  C   UNL     1       8.597   6.034   5.799  0.00  0.00    +0.030 C 
ATOM     10  C   UNL     1       8.350   7.255   6.674  0.00  0.00    +0.017 C 
ATOM     11  C   UNL     1       9.565   7.296   7.580  0.00  0.00    +0.085 C 
BRANCH   4  12
ATOM     12  C   UNL     1      11.872   6.589   7.365  0.00  0.00    +0.120 C 
BRANCH  12  14
ATOM     14  C   UNL     1      13.006   7.498   6.973  0.00  0.00    -0.033 A 
ATOM     15  C   UNL     1      12.812   8.878   6.933  0.00  0.00    +0.005 A 
ATOM     16  C   UNL     1      14.251   6.958   6.651  0.00  0.00    +0.005 A 
ATOM     18  C   UNL     1      13.864   9.719   6.569  0.00  0.00    +0.000 A 
ATOM     19  C   UNL     1      15.302   7.799   6.286  0.00  0.00    +0.000 A 
ATOM     21  C   UNL     1      15.109   9.180   6.246  0.00  0.00    +0.000 A 
ENDBRANCH  12  14
ENDBRANCH   4  12
ENDBRANCH  13   8
TORSDOF 8
ENDMDL
MODEL 10
REMARK VINA RESULT:      -5.8      2.430      4.562
REMARK  Name = 45783341
REMARK  9 active torsions:
REMARK  status: ('A' for Active; 'I' for Inactive)
REMARK    1  A    between atoms: O_2  and  C_24
REMARK    2  A    between atoms: O_2  and  C_26
REMARK    3  A    between atoms: O_3  and  C_27
REMARK    4  A    between atoms: O_3  and  C_28
REMARK    5  A    between atoms: N_4  and  C_12
REMARK    6  A    between atoms: C_8  and  C_13
REMARK    7  A    between atoms: C_12  and  C_14
REMARK    8  A    between atoms: C_17  and  C_20
REMARK    9  A    between atoms: C_26  and  C_27
REMARK                            x       y       z     vdW  Elec       q    Type
REMARK                         _______ _______ _______ _____ _____    ______ ____
ROOT
ATOM      1  O   UNL     1      17.003  11.306  22.417  0.00  0.00    -0.336 OA
ATOM      5  N   UNL     1      15.407   9.786  22.020  0.00  0.00    -0.190 NA
ATOM      6  N   UNL     1      17.607  10.299  21.653  0.00  0.00    -0.056 NA
ATOM     13  C   UNL     1      15.711  10.926  22.589  0.00  0.00    +0.245 A 
ATOM     17  C   UNL     1      16.601   9.439  21.459  0.00  0.00    +0.202 A 
ENDROOT
BRANCH  17  20
ATOM      7  N   UNL     1      17.062   5.859  19.256  0.00  0.00    -0.221 NA
ATOM     20  C   UNL     1      16.758   8.225  20.712  0.00  0.00    +0.029 A 
ATOM     22  C   UNL     1      17.943   7.502  20.794  0.00  0.00    +0.079 A 
ATOM     23  C   UNL     1      15.726   7.767  19.901  0.00  0.00    +0.031 A 
ATOM     24  C   UNL     1      18.044   6.336  20.053  0.00  0.00    +0.215 A 
ATOM     25  C   UNL     1      15.925   6.589  19.200  0.00  0.00    +0.115 A 
BRANCH  24   2
ATOM      2  O   UNL     1      19.201   5.605  20.119  0.00  0.00    -0.474 OA
BRANCH   2  26
ATOM     26  C   UNL     1      20.310   6.218  20.767  0.00  0.00    +0.258 C 
BRANCH  26  27
ATOM     27  C   UNL     1      21.024   5.181  21.611  0.00  0.00    +0.200 C 
BRANCH  27   3
ATOM      3  O   UNL     1      20.927   5.549  22.981  0.00  0.00    -0.380 OA
ATOM     28  C   UNL     1      22.106   6.202  23.430  0.00  0.00    +0.194 C 
ENDBRANCH  27   3
ENDBRANCH  26  27
ENDBRANCH   2  26
ENDBRANCH  24   2
ENDBRANCH  17  20
BRANCH  13   8
ATOM      4  N   UNL     1      13.473  11.325  23.602  0.00  0.00    -0.287 NA
ATOM      8  C   UNL     1      14.832  11.861  23.394  0.00  0.00    +0.146 C 
ATOM      9  C   UNL     1      15.376  12.113  24.812  0.00  0.00    +0.030 C 
ATOM     10  C   UNL     1      14.232  11.748  25.748  0.00  0.00    +0.017 C 
ATOM     11  C   UNL     1      13.001  11.878  24.873  0.00  0.00    +0.085 C 
BRANCH   4  12
ATOM     12  C   UNL     1      12.563  11.622  22.504  0.00  0.00    +0.120 C 
BRANCH  12  14
ATOM     14  C   UNL     1      11.939  10.374  21.939  0.00  0.00    -0.033 A 
ATOM     15  C   UNL     1      12.138  10.041  20.598  0.00  0.00    +0.005 A 
ATOM     16  C   UNL     1      11.163   9.552  22.755  0.00  0.00    +0.005 A 
ATOM     18  C   UNL     1      11.559   8.884  20.075  0.00  0.00    +0.000 A 
ATOM     19  C   UNL     1      10.584   8.396  22.231  0.00  0.00    +0.000 A 
ATOM     21  C   UNL     1      10.783   8.061  20.892  0.00  0.00    +0.000 A 
ENDBRANCH  12  14
ENDBRANCH   4  12
ENDBRANCH  13   8
TORSDOF 8
ENDMDL
