MODEL 1
REMARK VINA RESULT:      -6.8      0.000      0.000
REMARK  Name = 7050334
REMARK  7 active torsions:
REMARK  status: ('A' for Active; 'I' for Inactive)
REMARK    1  A    between atoms: S_2  and  C_30
REMARK    2  A    between atoms: S_2  and  C_32
REMARK    3  A    between atoms: O_7  and  C_25
REMARK    4  A    between atoms: O_7  and  C_31
REMARK    5  A    between atoms: N_9  and  C_18
REMARK    6  A    between atoms: N_10  and  C_12
REMARK    7  A    between atoms: C_19  and  C_22
REMARK                            x       y       z     vdW  Elec       q    Type
REMARK                         _______ _______ _______ _____ _____    ______ ____
ROOT
ATOM      4  O   UNL     1      20.818   4.649  20.137  0.00  0.00    -0.273 OA
ATOM      5  O   UNL     1      22.502   5.603  24.358  0.00  0.00    -0.252 OA
ATOM      8  N   UNL     1      20.689   6.368  23.128  0.00  0.00    -0.273 N 
ATOM      9  N   UNL     1      21.970   4.782  22.201  0.00  0.00    -0.193 N 
ATOM     11  C   UNL     1      20.085   6.171  21.838  0.00  0.00    +0.166 C 
ATOM     12  C   UNL     1      19.511   8.642  21.852  0.00  0.00    +0.077 C 
ATOM     13  C   UNL     1      20.080   7.467  21.035  0.00  0.00    +0.054 C 
ATOM     14  C   UNL     1      20.195   8.756  23.225  0.00  0.00    +0.041 C 
ATOM     15  C   UNL     1      20.197   7.430  23.987  0.00  0.00    +0.112 C 
ATOM     16  C   UNL     1      21.003   5.110  21.257  0.00  0.00    +0.248 C 
ATOM     17  C   UNL     1      21.805   5.559  23.352  0.00  0.00    +0.316 C 
ENDROOT
BRANCH   9  18
ATOM      1 CL   UNL     1      26.273   3.358  19.755  0.00  0.00    -0.081 Cl
ATOM      3  F   UNL     1      25.975   0.980  21.500  0.00  0.00    -0.204 F 
ATOM     18  C   UNL     1      23.001   3.806  22.017  0.00  0.00    +0.047 A 
ATOM     20  C   UNL     1      24.018   4.027  21.084  0.00  0.00    +0.047 A 
ATOM     21  C   UNL     1      22.997   2.629  22.770  0.00  0.00    +0.027 A 
ATOM     23  C   UNL     1      25.024   3.076  20.905  0.00  0.00    +0.078 A 
ATOM     24  C   UNL     1      24.002   1.679  22.592  0.00  0.00    +0.041 A 
ATOM     27  C   UNL     1      25.016   1.902  21.659  0.00  0.00    +0.142 A 
ENDBRANCH   9  18
BRANCH  12  10
ATOM      6  O   UNL     1      17.594  10.280  20.590  0.00  0.00    -0.270 OA
ATOM     10  N   UNL     1      18.077   8.531  21.998  0.00  0.00    -0.308 N 
ATOM     19  C   UNL     1      17.197   9.384  21.336  0.00  0.00    +0.248 C 
ATOM     33  H   UNL     1      17.727   7.869  22.683  0.00  0.00    +0.149 HD
BRANCH  19  22
ATOM     22  C   UNL     1      15.768   9.125  21.560  0.00  0.00    +0.078 A 
ATOM     25  C   UNL     1      15.234   7.868  21.317  0.00  0.00    +0.133 A 
ATOM     26  C   UNL     1      14.968  10.164  22.018  0.00  0.00    +0.018 A 
ATOM     28  C   UNL     1      13.874   7.644  21.535  0.00  0.00    +0.061 A 
ATOM     29  C   UNL     1      13.609   9.940  22.236  0.00  0.00    +0.015 A 
ATOM     30  C   UNL     1      13.062   8.680  21.995  0.00  0.00    +0.011 A 
BRANCH  30   2
ATOM      2  S   UNL     1      11.325   8.394  22.274  0.00  0.00    -0.128 S 
ATOM     32  C   UNL     1      11.131   6.690  21.680  0.00  0.00    +0.090 C 
ENDBRANCH  30   2
BRANCH  25   7
ATOM      7  O   UNL     1      16.011   6.843  20.867  0.00  0.00    -0.494 OA
ATOM     31  C   UNL     1      15.854   6.461  19.502  0.00  0.00    +0.277 C 
ENDBRANCH  25   7
ENDBRANCH  19  22
ENDBRANCH  12  10
TORSDOF 5
ENDMDL
MODEL 2
REMARK VINA RESULT:      -6.6     33.115     35.773
REMARK  Name = 7050334
REMARK  7 active torsions:
REMARK  status: ('A' for Active; 'I' for Inactive)
REMARK    1  A    between atoms: S_2  and  C_30
REMARK    2  A    between atoms: S_2  and  C_32
REMARK    3  A    between atoms: O_7  and  C_25
REMARK    4  A    between atoms: O_7  and  C_31
REMARK    5  A    between atoms: N_9  and  C_18
REMARK    6  A    between atoms: N_10  and  C_12
REMARK    7  A    between atoms: C_19  and  C_22
REMARK                            x       y       z     vdW  Elec       q    Type
REMARK                         _______ _______ _______ _____ _____    ______ ____
ROOT
ATOM      4  O   UNL     1     -13.432   4.366  23.227  0.00  0.00    -0.273 OA
ATOM      5  O   UNL     1     -17.375   6.805  22.964  0.00  0.00    -0.252 OA
ATOM      8  N   UNL     1     -16.537   5.239  24.458  0.00  0.00    -0.273 N 
ATOM      9  N   UNL     1     -15.231   5.824  22.735  0.00  0.00    -0.193 N 
ATOM     11  C   UNL     1     -15.369   4.419  24.638  0.00  0.00    +0.166 C 
ATOM     12  C   UNL     1     -16.904   2.631  25.577  0.00  0.00    +0.077 C 
ATOM     13  C   UNL     1     -15.736   2.940  24.624  0.00  0.00    +0.054 C 
ATOM     14  C   UNL     1     -18.094   3.575  25.331  0.00  0.00    +0.041 C 
ATOM     15  C   UNL     1     -17.679   5.048  25.333  0.00  0.00    +0.112 C 
ATOM     16  C   UNL     1     -14.540   4.843  23.438  0.00  0.00    +0.248 C 
ATOM     17  C   UNL     1     -16.470   6.068  23.336  0.00  0.00    +0.316 C 
ENDROOT
BRANCH   9  18
ATOM      1 CL   UNL     1     -11.294   7.929  20.167  0.00  0.00    -0.081 Cl
ATOM      3  F   UNL     1     -13.402   8.354  18.126  0.00  0.00    -0.204 F 
ATOM     18  C   UNL     1     -14.757   6.475  21.552  0.00  0.00    +0.047 A 
ATOM     20  C   UNL     1     -13.414   6.845  21.444  0.00  0.00    +0.047 A 
ATOM     21  C   UNL     1     -15.635   6.745  20.498  0.00  0.00    +0.027 A 
ATOM     23  C   UNL     1     -12.951   7.479  20.291  0.00  0.00    +0.078 A 
ATOM     24  C   UNL     1     -15.173   7.378  19.346  0.00  0.00    +0.041 A 
ATOM     27  C   UNL     1     -13.830   7.746  19.241  0.00  0.00    +0.142 A 
ENDBRANCH   9  18
BRANCH  12  10
ATOM      6  O   UNL     1     -17.259   0.590  27.489  0.00  0.00    -0.270 OA
ATOM     10  N   UNL     1     -16.480   2.684  26.958  0.00  0.00    -0.308 N 
ATOM     19  C   UNL     1     -16.695   1.628  27.840  0.00  0.00    +0.248 C 
ATOM     33  H   UNL     1     -16.106   3.564  27.298  0.00  0.00    +0.149 HD
BRANCH  19  22
ATOM     22  C   UNL     1     -16.178   1.818  29.202  0.00  0.00    +0.078 A 
ATOM     25  C   UNL     1     -15.270   0.920  29.742  0.00  0.00    +0.133 A 
ATOM     26  C   UNL     1     -16.619   2.913  29.934  0.00  0.00    +0.018 A 
ATOM     28  C   UNL     1     -14.792   1.118  31.038  0.00  0.00    +0.061 A 
ATOM     29  C   UNL     1     -16.143   3.112  31.229  0.00  0.00    +0.015 A 
ATOM     30  C   UNL     1     -15.229   2.214  31.780  0.00  0.00    +0.011 A 
BRANCH  30   2
ATOM      2  S   UNL     1     -14.618   2.469  33.436  0.00  0.00    -0.128 S 
ATOM     32  C   UNL     1     -14.327   4.260  33.450  0.00  0.00    +0.090 C 
ENDBRANCH  30   2
BRANCH  25   7
ATOM      7  O   UNL     1     -14.831  -0.158  29.031  0.00  0.00    -0.494 OA
ATOM     31  C   UNL     1     -13.616  -0.767  29.463  0.00  0.00    +0.277 C 
ENDBRANCH  25   7
ENDBRANCH  19  22
ENDBRANCH  12  10
TORSDOF 5
ENDMDL
MODEL 3
REMARK VINA RESULT:      -6.5     31.648     34.975
REMARK  Name = 7050334
REMARK  7 active torsions:
REMARK  status: ('A' for Active; 'I' for Inactive)
REMARK    1  A    between atoms: S_2  and  C_30
REMARK    2  A    between atoms: S_2  and  C_32
REMARK    3  A    between atoms: O_7  and  C_25
REMARK    4  A    between atoms: O_7  and  C_31
REMARK    5  A    between atoms: N_9  and  C_18
REMARK    6  A    between atoms: N_10  and  C_12
REMARK    7  A    between atoms: C_19  and  C_22
REMARK                            x       y       z     vdW  Elec       q    Type
REMARK                         _______ _______ _______ _____ _____    ______ ____
ROOT
ATOM      4  O   UNL     1     -12.629   5.206  21.935  0.00  0.00    -0.273 OA
ATOM      5  O   UNL     1     -15.483   8.831  21.414  0.00  0.00    -0.252 OA
ATOM      8  N   UNL     1     -15.317   7.113  22.963  0.00  0.00    -0.273 N 
ATOM      9  N   UNL     1     -13.792   7.175  21.324  0.00  0.00    -0.193 N 
ATOM     11  C   UNL     1     -14.511   5.949  23.220  0.00  0.00    +0.166 C 
ATOM     12  C   UNL     1     -16.616   4.814  24.066  0.00  0.00    +0.077 C 
ATOM     13  C   UNL     1     -15.358   4.682  23.188  0.00  0.00    +0.054 C 
ATOM     14  C   UNL     1     -17.396   6.099  23.741  0.00  0.00    +0.041 C 
ATOM     15  C   UNL     1     -16.505   7.343  23.765  0.00  0.00    +0.112 C 
ATOM     16  C   UNL     1     -13.519   6.036  22.074  0.00  0.00    +0.248 C 
ATOM     17  C   UNL     1     -14.906   7.840  21.845  0.00  0.00    +0.316 C 
ENDROOT
BRANCH   9  18
ATOM      1 CL   UNL     1     -13.739   8.150  16.267  0.00  0.00    -0.081 Cl
ATOM      3  F   UNL     1     -10.912   8.822  16.854  0.00  0.00    -0.204 F 
ATOM     18  C   UNL     1     -13.055   7.597  20.172  0.00  0.00    +0.047 A 
ATOM     20  C   UNL     1     -13.679   7.661  18.923  0.00  0.00    +0.047 A 
ATOM     21  C   UNL     1     -11.707   7.948  20.290  0.00  0.00    +0.027 A 
ATOM     23  C   UNL     1     -12.961   8.073  17.800  0.00  0.00    +0.078 A 
ATOM     24  C   UNL     1     -10.989   8.360  19.168  0.00  0.00    +0.041 A 
ATOM     27  C   UNL     1     -11.616   8.423  17.922  0.00  0.00    +0.142 A 
ENDBRANCH   9  18
BRANCH  12  10
ATOM      6  O   UNL     1     -17.553   2.891  25.903  0.00  0.00    -0.270 OA
ATOM     10  N   UNL     1     -16.281   4.754  25.470  0.00  0.00    -0.308 N 
ATOM     19  C   UNL     1     -16.789   3.768  26.312  0.00  0.00    +0.248 C 
ATOM     33  H   UNL     1     -15.737   5.520  25.854  0.00  0.00    +0.149 HD
BRANCH  19  22
ATOM     22  C   UNL     1     -16.331   3.820  27.708  0.00  0.00    +0.078 A 
ATOM     25  C   UNL     1     -16.664   4.897  28.517  0.00  0.00    +0.133 A 
ATOM     26  C   UNL     1     -15.561   2.773  28.195  0.00  0.00    +0.018 A 
ATOM     28  C   UNL     1     -16.219   4.928  29.838  0.00  0.00    +0.061 A 
ATOM     29  C   UNL     1     -15.115   2.804  29.516  0.00  0.00    +0.015 A 
ATOM     30  C   UNL     1     -15.444   3.882  30.337  0.00  0.00    +0.011 A 
BRANCH  30   2
ATOM      2  S   UNL     1     -14.875   3.921  32.026  0.00  0.00    -0.128 S 
ATOM     32  C   UNL     1     -13.594   2.635  32.013  0.00  0.00    +0.090 C 
ENDBRANCH  30   2
BRANCH  25   7
ATOM      7  O   UNL     1     -17.421   5.929  28.047  0.00  0.00    -0.494 OA
ATOM     31  C   UNL     1     -17.249   7.197  28.679  0.00  0.00    +0.277 C 
ENDBRANCH  25   7
ENDBRANCH  19  22
ENDBRANCH  12  10
TORSDOF 5
ENDMDL
MODEL 4
REMARK VINA RESULT:      -6.3     32.637     35.555
REMARK  Name = 7050334
REMARK  7 active torsions:
REMARK  status: ('A' for Active; 'I' for Inactive)
REMARK    1  A    between atoms: S_2  and  C_30
REMARK    2  A    between atoms: S_2  and  C_32
REMARK    3  A    between atoms: O_7  and  C_25
REMARK    4  A    between atoms: O_7  and  C_31
REMARK    5  A    between atoms: N_9  and  C_18
REMARK    6  A    between atoms: N_10  and  C_12
REMARK    7  A    between atoms: C_19  and  C_22
REMARK                            x       y       z     vdW  Elec       q    Type
REMARK                         _______ _______ _______ _____ _____    ______ ____
ROOT
ATOM      4  O   UNL     1     -13.225   4.708  22.269  0.00  0.00    -0.273 OA
ATOM      5  O   UNL     1     -16.666   7.821  22.438  0.00  0.00    -0.252 OA
ATOM      8  N   UNL     1     -16.078   5.988  23.733  0.00  0.00    -0.273 N 
ATOM      9  N   UNL     1     -14.745   6.504  22.008  0.00  0.00    -0.193 N 
ATOM     11  C   UNL     1     -15.074   4.960  23.775  0.00  0.00    +0.166 C 
ATOM     12  C   UNL     1     -16.876   3.387  24.617  0.00  0.00    +0.077 C 
ATOM     13  C   UNL     1     -15.703   3.578  23.640  0.00  0.00    +0.054 C 
ATOM     14  C   UNL     1     -17.882   4.547  24.522  0.00  0.00    +0.041 C 
ATOM     15  C   UNL     1     -17.207   5.914  24.643  0.00  0.00    +0.112 C 
ATOM     16  C   UNL     1     -14.221   5.350  22.581  0.00  0.00    +0.248 C 
ATOM     17  C   UNL     1     -15.898   6.901  22.692  0.00  0.00    +0.316 C 
ENDROOT
BRANCH   9  18
ATOM      1 CL   UNL     1     -10.747   8.928  19.847  0.00  0.00    -0.081 Cl
ATOM      3  F   UNL     1     -12.636   9.120  17.570  0.00  0.00    -0.204 F 
ATOM     18  C   UNL     1     -14.199   7.178  20.870  0.00  0.00    +0.047 A 
ATOM     20  C   UNL     1     -12.892   7.670  20.905  0.00  0.00    +0.047 A 
ATOM     21  C   UNL     1     -14.971   7.347  19.716  0.00  0.00    +0.027 A 
ATOM     23  C   UNL     1     -12.359   8.326  19.795  0.00  0.00    +0.078 A 
ATOM     24  C   UNL     1     -14.439   8.002  18.607  0.00  0.00    +0.041 A 
ATOM     27  C   UNL     1     -13.132   8.493  18.646  0.00  0.00    +0.142 A 
ENDBRANCH   9  18
BRANCH  12  10
ATOM      6  O   UNL     1     -17.868   1.530  26.494  0.00  0.00    -0.270 OA
ATOM     10  N   UNL     1     -16.405   3.223  25.974  0.00  0.00    -0.308 N 
ATOM     19  C   UNL     1     -16.951   2.278  26.839  0.00  0.00    +0.248 C 
ATOM     33  H   UNL     1     -15.723   3.892  26.316  0.00  0.00    +0.149 HD
BRANCH  19  22
ATOM     22  C   UNL     1     -16.345   2.209  28.176  0.00  0.00    +0.078 A 
ATOM     25  C   UNL     1     -16.121   3.366  28.907  0.00  0.00    +0.133 A 
ATOM     26  C   UNL     1     -16.002   0.964  28.687  0.00  0.00    +0.018 A 
ATOM     28  C   UNL     1     -15.543   3.279  30.173  0.00  0.00    +0.061 A 
ATOM     29  C   UNL     1     -15.423   0.877  29.953  0.00  0.00    +0.015 A 
ATOM     30  C   UNL     1     -15.194   2.035  30.696  0.00  0.00    +0.011 A 
BRANCH  30   2
ATOM      2  S   UNL     1     -14.456   1.922  32.315  0.00  0.00    -0.128 S 
ATOM     32  C   UNL     1     -15.332   3.235  33.212  0.00  0.00    +0.090 C 
ENDBRANCH  30   2
BRANCH  25   7
ATOM      7  O   UNL     1     -16.454   4.592  28.413  0.00  0.00    -0.494 OA
ATOM     31  C   UNL     1     -16.821   5.594  29.360  0.00  0.00    +0.277 C 
ENDBRANCH  25   7
ENDBRANCH  19  22
ENDBRANCH  12  10
TORSDOF 5
ENDMDL
MODEL 5
REMARK VINA RESULT:      -6.3     30.242     33.093
REMARK  Name = 7050334
REMARK  7 active torsions:
REMARK  status: ('A' for Active; 'I' for Inactive)
REMARK    1  A    between atoms: S_2  and  C_30
REMARK    2  A    between atoms: S_2  and  C_32
REMARK    3  A    between atoms: O_7  and  C_25
REMARK    4  A    between atoms: O_7  and  C_31
REMARK    5  A    between atoms: N_9  and  C_18
REMARK    6  A    between atoms: N_10  and  C_12
REMARK    7  A    between atoms: C_19  and  C_22
REMARK                            x       y       z     vdW  Elec       q    Type
REMARK                         _______ _______ _______ _____ _____    ______ ____
ROOT
ATOM      4  O   UNL     1      -6.136  -7.684   9.217  0.00  0.00    -0.273 OA
ATOM      5  O   UNL     1      -7.112 -11.883   7.492  0.00  0.00    -0.252 OA
ATOM      8  N   UNL     1      -6.144 -11.128   9.461  0.00  0.00    -0.273 N 
ATOM      9  N   UNL     1      -6.847  -9.585   7.998  0.00  0.00    -0.193 N 
ATOM     11  C   UNL     1      -5.779  -9.888  10.091  0.00  0.00    +0.166 C 
ATOM     12  C   UNL     1      -3.759 -11.093  11.040  0.00  0.00    +0.077 C 
ATOM     13  C   UNL     1      -4.276  -9.824  10.338  0.00  0.00    +0.054 C 
ATOM     14  C   UNL     1      -4.222 -12.367  10.314  0.00  0.00    +0.041 C 
ATOM     15  C   UNL     1      -5.733 -12.380  10.069  0.00  0.00    +0.112 C 
ATOM     16  C   UNL     1      -6.258  -8.892   9.050  0.00  0.00    +0.248 C 
ATOM     17  C   UNL     1      -6.770 -10.962   8.224  0.00  0.00    +0.316 C 
ENDROOT
BRANCH   9  18
ATOM      1 CL   UNL     1     -10.736  -6.921   5.924  0.00  0.00    -0.081 Cl
ATOM      3  F   UNL     1      -9.091  -7.235   3.478  0.00  0.00    -0.204 F 
ATOM     18  C   UNL     1      -7.428  -8.980   6.838  0.00  0.00    +0.047 A 
ATOM     20  C   UNL     1      -8.657  -8.321   6.930  0.00  0.00    +0.047 A 
ATOM     21  C   UNL     1      -6.768  -9.044   5.607  0.00  0.00    +0.027 A 
ATOM     23  C   UNL     1      -9.223  -7.731   5.800  0.00  0.00    +0.078 A 
ATOM     24  C   UNL     1      -7.334  -8.454   4.478  0.00  0.00    +0.041 A 
ATOM     27  C   UNL     1      -8.561  -7.797   4.574  0.00  0.00    +0.142 A 
ENDBRANCH   9  18
BRANCH  12  10
ATOM      6  O   UNL     1      -2.222 -10.150  13.209  0.00  0.00    -0.270 OA
ATOM     10  N   UNL     1      -4.154 -11.118  12.431  0.00  0.00    -0.308 N 
ATOM     19  C   UNL     1      -3.332 -10.630  13.444  0.00  0.00    +0.248 C 
ATOM     33  H   UNL     1      -5.017 -11.599  12.662  0.00  0.00    +0.149 HD
BRANCH  19  22
ATOM     22  C   UNL     1      -3.887 -10.696  14.803  0.00  0.00    +0.078 A 
ATOM     25  C   UNL     1      -5.174 -10.248  15.059  0.00  0.00    +0.133 A 
ATOM     26  C   UNL     1      -3.095 -11.213  15.820  0.00  0.00    +0.018 A 
ATOM     28  C   UNL     1      -5.682 -10.318  16.357  0.00  0.00    +0.061 A 
ATOM     29  C   UNL     1      -3.602 -11.282  17.118  0.00  0.00    +0.015 A 
ATOM     30  C   UNL     1      -4.895 -10.835  17.386  0.00  0.00    +0.011 A 
BRANCH  30   2
ATOM      2  S   UNL     1      -5.543 -10.925  19.044  0.00  0.00    -0.128 S 
ATOM     32  C   UNL     1      -7.313 -10.639  18.765  0.00  0.00    +0.090 C 
ENDBRANCH  30   2
BRANCH  25   7
ATOM      7  O   UNL     1      -5.959  -9.739  14.067  0.00  0.00    -0.494 OA
ATOM     31  C   UNL     1      -7.305 -10.207  14.002  0.00  0.00    +0.277 C 
ENDBRANCH  25   7
ENDBRANCH  19  22
ENDBRANCH  12  10
TORSDOF 5
ENDMDL
MODEL 6
REMARK VINA RESULT:      -6.2     30.623     33.132
REMARK  Name = 7050334
REMARK  7 active torsions:
REMARK  status: ('A' for Active; 'I' for Inactive)
REMARK    1  A    between atoms: S_2  and  C_30
REMARK    2  A    between atoms: S_2  and  C_32
REMARK    3  A    between atoms: O_7  and  C_25
REMARK    4  A    between atoms: O_7  and  C_31
REMARK    5  A    between atoms: N_9  and  C_18
REMARK    6  A    between atoms: N_10  and  C_12
REMARK    7  A    between atoms: C_19  and  C_22
REMARK                            x       y       z     vdW  Elec       q    Type
REMARK                         _______ _______ _______ _____ _____    ______ ____
ROOT
ATOM      4  O   UNL     1      -8.352 -14.350  17.349  0.00  0.00    -0.273 OA
ATOM      5  O   UNL     1      -7.365 -10.777  20.145  0.00  0.00    -0.252 OA
ATOM      8  N   UNL     1      -6.615 -11.451  18.055  0.00  0.00    -0.273 N 
ATOM      9  N   UNL     1      -8.202 -12.693  19.033  0.00  0.00    -0.193 N 
ATOM     11  C   UNL     1      -6.822 -12.519  17.114  0.00  0.00    +0.166 C 
ATOM     12  C   UNL     1      -4.354 -12.357  16.553  0.00  0.00    +0.077 C 
ATOM     13  C   UNL     1      -5.531 -13.294  16.876  0.00  0.00    +0.054 C 
ATOM     14  C   UNL     1      -4.228 -11.231  17.595  0.00  0.00    +0.041 C 
ATOM     15  C   UNL     1      -5.550 -10.494  17.817  0.00  0.00    +0.112 C 
ATOM     16  C   UNL     1      -7.883 -13.329  17.838  0.00  0.00    +0.248 C 
ATOM     17  C   UNL     1      -7.418 -11.546  19.193  0.00  0.00    +0.316 C 
ENDROOT
BRANCH   9  18
ATOM      1 CL   UNL     1     -12.852 -12.127  21.172  0.00  0.00    -0.081 Cl
ATOM      3  F   UNL     1     -11.972 -14.506  22.705  0.00  0.00    -0.204 F 
ATOM     18  C   UNL     1      -9.174 -13.155  19.976  0.00  0.00    +0.047 A 
ATOM     20  C   UNL     1     -10.398 -12.495  20.104  0.00  0.00    +0.047 A 
ATOM     21  C   UNL     1      -8.903 -14.271  20.775  0.00  0.00    +0.027 A 
ATOM     23  C   UNL     1     -11.346 -12.946  21.023  0.00  0.00    +0.078 A 
ATOM     24  C   UNL     1      -9.850 -14.722  21.693  0.00  0.00    +0.041 A 
ATOM     27  C   UNL     1     -11.072 -14.060  21.818  0.00  0.00    +0.142 A 
ENDBRANCH   9  18
BRANCH  12  10
ATOM      6  O   UNL     1      -2.361 -10.904  15.186  0.00  0.00    -0.270 OA
ATOM     10  N   UNL     1      -4.470 -11.813  15.218  0.00  0.00    -0.308 N 
ATOM     19  C   UNL     1      -3.434 -11.105  14.614  0.00  0.00    +0.248 C 
ATOM     33  H   UNL     1      -5.376 -11.876  14.766  0.00  0.00    +0.149 HD
BRANCH  19  22
ATOM     22  C   UNL     1      -3.691 -10.644  13.243  0.00  0.00    +0.078 A 
ATOM     25  C   UNL     1      -4.882 -10.008  12.926  0.00  0.00    +0.133 A 
ATOM     26  C   UNL     1      -2.718 -10.859  12.275  0.00  0.00    +0.018 A 
ATOM     28  C   UNL     1      -5.107  -9.578  11.618  0.00  0.00    +0.061 A 
ATOM     29  C   UNL     1      -2.942 -10.430  10.968  0.00  0.00    +0.015 A 
ATOM     30  C   UNL     1      -4.136  -9.789  10.640  0.00  0.00    +0.011 A 
BRANCH  30   2
ATOM      2  S   UNL     1      -4.422  -9.240   8.968  0.00  0.00    -0.128 S 
ATOM     32  C   UNL     1      -4.868 -10.792   8.140  0.00  0.00    +0.090 C 
ENDBRANCH  30   2
BRANCH  25   7
ATOM      7  O   UNL     1      -5.843  -9.792  13.869  0.00  0.00    -0.494 OA
ATOM     31  C   UNL     1      -7.198  -9.993  13.471  0.00  0.00    +0.277 C 
ENDBRANCH  25   7
ENDBRANCH  19  22
ENDBRANCH  12  10
TORSDOF 5
ENDMDL
MODEL 7
REMARK VINA RESULT:      -6.2     29.521     33.626
REMARK  Name = 7050334
REMARK  7 active torsions:
REMARK  status: ('A' for Active; 'I' for Inactive)
REMARK    1  A    between atoms: S_2  and  C_30
REMARK    2  A    between atoms: S_2  and  C_32
REMARK    3  A    between atoms: O_7  and  C_25
REMARK    4  A    between atoms: O_7  and  C_31
REMARK    5  A    between atoms: N_9  and  C_18
REMARK    6  A    between atoms: N_10  and  C_12
REMARK    7  A    between atoms: C_19  and  C_22
REMARK                            x       y       z     vdW  Elec       q    Type
REMARK                         _______ _______ _______ _____ _____    ______ ____
ROOT
ATOM      4  O   UNL     1      -5.272 -13.923  17.150  0.00  0.00    -0.273 OA
ATOM      5  O   UNL     1      -6.778  -9.532  17.242  0.00  0.00    -0.252 OA
ATOM      8  N   UNL     1      -7.375 -11.471  18.369  0.00  0.00    -0.273 N 
ATOM      9  N   UNL     1      -5.677 -11.603  16.913  0.00  0.00    -0.193 N 
ATOM     11  C   UNL     1      -7.008 -12.861  18.417  0.00  0.00    +0.166 C 
ATOM     12  C   UNL     1      -9.459 -13.380  18.813  0.00  0.00    +0.077 C 
ATOM     13  C   UNL     1      -8.186 -13.748  18.031  0.00  0.00    +0.054 C 
ATOM     14  C   UNL     1      -9.755 -11.873  18.729  0.00  0.00    +0.041 C 
ATOM     15  C   UNL     1      -8.541 -11.019  19.105  0.00  0.00    +0.112 C 
ATOM     16  C   UNL     1      -5.878 -12.889  17.403  0.00  0.00    +0.248 C 
ATOM     17  C   UNL     1      -6.601 -10.720  17.481  0.00  0.00    +0.316 C 
ENDROOT
BRANCH   9  18
ATOM      1 CL   UNL     1      -0.812 -10.230  15.931  0.00  0.00    -0.081 Cl
ATOM      3  F   UNL     1      -1.832 -10.182  13.148  0.00  0.00    -0.204 F 
ATOM     18  C   UNL     1      -4.685 -11.236  15.949  0.00  0.00    +0.047 A 
ATOM     20  C   UNL     1      -3.382 -10.944  16.357  0.00  0.00    +0.047 A 
ATOM     21  C   UNL     1      -5.016 -11.170  14.591  0.00  0.00    +0.027 A 
ATOM     23  C   UNL     1      -2.415 -10.587  15.417  0.00  0.00    +0.078 A 
ATOM     24  C   UNL     1      -4.050 -10.814  13.652  0.00  0.00    +0.041 A 
ATOM     27  C   UNL     1      -2.748 -10.522  14.064  0.00  0.00    +0.142 A 
ENDBRANCH   9  18
BRANCH  12  10
ATOM      6  O   UNL     1     -10.310 -15.874  19.816  0.00  0.00    -0.270 OA
ATOM     10  N   UNL     1      -9.370 -13.812  20.190  0.00  0.00    -0.308 N 
ATOM     19  C   UNL     1      -9.815 -15.065  20.603  0.00  0.00    +0.248 C 
ATOM     33  H   UNL     1      -9.061 -13.130  20.874  0.00  0.00    +0.149 HD
BRANCH  19  22
ATOM     22  C   UNL     1      -9.628 -15.372  22.028  0.00  0.00    +0.078 A 
ATOM     25  C   UNL     1     -10.479 -14.832  22.981  0.00  0.00    +0.133 A 
ATOM     26  C   UNL     1      -8.583 -16.209  22.396  0.00  0.00    +0.018 A 
ATOM     28  C   UNL     1     -10.283 -15.135  24.329  0.00  0.00    +0.061 A 
ATOM     29  C   UNL     1      -8.387 -16.512  23.744  0.00  0.00    +0.015 A 
ATOM     30  C   UNL     1      -9.237 -15.975  24.709  0.00  0.00    +0.011 A 
BRANCH  30   2
ATOM      2  S   UNL     1      -8.987 -16.362  26.431  0.00  0.00    -0.128 S 
ATOM     32  C   UNL     1      -7.249 -15.893  26.666  0.00  0.00    +0.090 C 
ENDBRANCH  30   2
BRANCH  25   7
ATOM      7  O   UNL     1     -11.507 -14.009  22.629  0.00  0.00    -0.494 OA
ATOM     31  C   UNL     1     -12.566 -13.855  23.573  0.00  0.00    +0.277 C 
ENDBRANCH  25   7
ENDBRANCH  19  22
ENDBRANCH  12  10
TORSDOF 5
ENDMDL
MODEL 8
REMARK VINA RESULT:      -6.0     30.324     33.742
REMARK  Name = 7050334
REMARK  7 active torsions:
REMARK  status: ('A' for Active; 'I' for Inactive)
REMARK    1  A    between atoms: S_2  and  C_30
REMARK    2  A    between atoms: S_2  and  C_32
REMARK    3  A    between atoms: O_7  and  C_25
REMARK    4  A    between atoms: O_7  and  C_31
REMARK    5  A    between atoms: N_9  and  C_18
REMARK    6  A    between atoms: N_10  and  C_12
REMARK    7  A    between atoms: C_19  and  C_22
REMARK                            x       y       z     vdW  Elec       q    Type
REMARK                         _______ _______ _______ _____ _____    ______ ____
ROOT
ATOM      4  O   UNL     1      -7.147  -7.219   8.426  0.00  0.00    -0.273 OA
ATOM      5  O   UNL     1      -8.136 -11.283   6.409  0.00  0.00    -0.252 OA
ATOM      8  N   UNL     1      -6.819 -10.650   8.211  0.00  0.00    -0.273 N 
ATOM      9  N   UNL     1      -7.954  -9.039   7.145  0.00  0.00    -0.193 N 
ATOM     11  C   UNL     1      -6.426  -9.454   8.908  0.00  0.00    +0.166 C 
ATOM     12  C   UNL     1      -4.153 -10.530   9.242  0.00  0.00    +0.077 C 
ATOM     13  C   UNL     1      -4.916  -9.255   8.838  0.00  0.00    +0.054 C 
ATOM     14  C   UNL     1      -4.661 -11.759   8.469  0.00  0.00    +0.041 C 
ATOM     15  C   UNL     1      -6.181 -11.909   8.549  0.00  0.00    +0.112 C 
ATOM     16  C   UNL     1      -7.205  -8.407   8.132  0.00  0.00    +0.248 C 
ATOM     17  C   UNL     1      -7.716 -10.417   7.167  0.00  0.00    +0.316 C 
ENDROOT
BRANCH   9  18
ATOM      1 CL   UNL     1      -8.655  -6.972   2.481  0.00  0.00    -0.081 Cl
ATOM      3  F   UNL     1     -11.363  -6.466   3.576  0.00  0.00    -0.204 F 
ATOM     18  C   UNL     1      -8.827  -8.376   6.225  0.00  0.00    +0.047 A 
ATOM     20  C   UNL     1      -8.373  -8.034   4.948  0.00  0.00    +0.047 A 
ATOM     21  C   UNL     1     -10.139  -8.070   6.597  0.00  0.00    +0.027 A 
ATOM     23  C   UNL     1      -9.224  -7.389   4.051  0.00  0.00    +0.078 A 
ATOM     24  C   UNL     1     -10.990  -7.425   5.700  0.00  0.00    +0.041 A 
ATOM     27  C   UNL     1     -10.532  -7.084   4.426  0.00  0.00    +0.142 A 
ENDBRANCH   9  18
BRANCH  12  10
ATOM      6  O   UNL     1      -2.247  -9.685  11.141  0.00  0.00    -0.270 OA
ATOM     10  N   UNL     1      -4.225 -10.752  10.669  0.00  0.00    -0.308 N 
ATOM     19  C   UNL     1      -3.237 -10.299  11.540  0.00  0.00    +0.248 C 
ATOM     33  H   UNL     1      -4.976 -11.341  11.012  0.00  0.00    +0.149 HD
BRANCH  19  22
ATOM     22  C   UNL     1      -3.468 -10.573  12.965  0.00  0.00    +0.078 A 
ATOM     25  C   UNL     1      -4.700 -10.303  13.543  0.00  0.00    +0.133 A 
ATOM     26  C   UNL     1      -2.429 -11.106  13.717  0.00  0.00    +0.018 A 
ATOM     28  C   UNL     1      -4.899 -10.569  14.898  0.00  0.00    +0.061 A 
ATOM     29  C   UNL     1      -2.627 -11.372  15.071  0.00  0.00    +0.015 A 
ATOM     30  C   UNL     1      -3.862 -11.104  15.661  0.00  0.00    +0.011 A 
BRANCH  30   2
ATOM      2  S   UNL     1      -4.114 -11.446  17.392  0.00  0.00    -0.128 S 
ATOM     32  C   UNL     1      -5.832 -10.907  17.628  0.00  0.00    +0.090 C 
ENDBRANCH  30   2
BRANCH  25   7
ATOM      7  O   UNL     1      -5.726  -9.780  12.813  0.00  0.00    -0.494 OA
ATOM     31  C   UNL     1      -7.030  -9.850  13.386  0.00  0.00    +0.277 C 
ENDBRANCH  25   7
ENDBRANCH  19  22
ENDBRANCH  12  10
TORSDOF 5
ENDMDL
MODEL 9
REMARK VINA RESULT:      -6.0     17.296     19.446
REMARK  Name = 7050334
REMARK  7 active torsions:
REMARK  status: ('A' for Active; 'I' for Inactive)
REMARK    1  A    between atoms: S_2  and  C_30
REMARK    2  A    between atoms: S_2  and  C_32
REMARK    3  A    between atoms: O_7  and  C_25
REMARK    4  A    between atoms: O_7  and  C_31
REMARK    5  A    between atoms: N_9  and  C_18
REMARK    6  A    between atoms: N_10  and  C_12
REMARK    7  A    between atoms: C_19  and  C_22
REMARK                            x       y       z     vdW  Elec       q    Type
REMARK                         _______ _______ _______ _____ _____    ______ ____
ROOT
ATOM      4  O   UNL     1      11.585   8.274   3.305  0.00  0.00    -0.273 OA
ATOM      5  O   UNL     1       9.418   4.488   4.895  0.00  0.00    -0.252 OA
ATOM      8  N   UNL     1       9.684   6.653   5.687  0.00  0.00    -0.273 N 
ATOM      9  N   UNL     1      10.592   6.162   3.700  0.00  0.00    -0.193 N 
ATOM     11  C   UNL     1      10.329   7.881   5.309  0.00  0.00    +0.166 C 
ATOM     12  C   UNL     1      10.792   8.269   7.773  0.00  0.00    +0.077 C 
ATOM     13  C   UNL     1      11.369   8.292   6.346  0.00  0.00    +0.054 C 
ATOM     14  C   UNL     1      10.097   6.930   8.077  0.00  0.00    +0.041 C 
ATOM     15  C   UNL     1       9.078   6.546   7.002  0.00  0.00    +0.112 C 
ATOM     16  C   UNL     1      10.938   7.480   3.977  0.00  0.00    +0.248 C 
ATOM     17  C   UNL     1       9.837   5.630   4.749  0.00  0.00    +0.316 C 
ENDROOT
BRANCH   9  18
ATOM      1 CL   UNL     1      14.054   3.203   1.294  0.00  0.00    -0.081 Cl
ATOM      3  F   UNL     1      12.053   3.366  -0.887  0.00  0.00    -0.204 F 
ATOM     18  C   UNL     1      10.973   5.442   2.522  0.00  0.00    +0.047 A 
ATOM     20  C   UNL     1      12.187   4.753   2.481  0.00  0.00    +0.047 A 
ATOM     21  C   UNL     1      10.130   5.425   1.407  0.00  0.00    +0.027 A 
ATOM     23  C   UNL     1      12.557   4.051   1.334  0.00  0.00    +0.078 A 
ATOM     24  C   UNL     1      10.499   4.723   0.260  0.00  0.00    +0.041 A 
ATOM     27  C   UNL     1      11.713   4.036   0.223  0.00  0.00    +0.142 A 
ENDBRANCH   9  18
BRANCH  12  10
ATOM      6  O   UNL     1      11.452  10.703   9.033  0.00  0.00    -0.270 OA
ATOM     10  N   UNL     1       9.892   9.378   7.990  0.00  0.00    -0.308 N 
ATOM     19  C   UNL     1      10.300  10.550   8.624  0.00  0.00    +0.248 C 
ATOM     33  H   UNL     1       8.915   9.240   7.756  0.00  0.00    +0.149 HD
BRANCH  19  22
ATOM     22  C   UNL     1       9.279  11.601   8.743  0.00  0.00    +0.078 A 
ATOM     25  C   UNL     1       8.893  12.335   7.631  0.00  0.00    +0.133 A 
ATOM     26  C   UNL     1       8.714  11.840   9.989  0.00  0.00    +0.018 A 
ATOM     28  C   UNL     1       7.922  13.328   7.766  0.00  0.00    +0.061 A 
ATOM     29  C   UNL     1       7.745  12.834  10.124  0.00  0.00    +0.015 A 
ATOM     30  C   UNL     1       7.349  13.577   9.012  0.00  0.00    +0.011 A 
BRANCH  30   2
ATOM      2  S   UNL     1       6.109  14.846   9.185  0.00  0.00    -0.128 S 
ATOM     32  C   UNL     1       4.919  14.050  10.301  0.00  0.00    +0.090 C 
ENDBRANCH  30   2
BRANCH  25   7
ATOM      7  O   UNL     1       9.442  12.106   6.405  0.00  0.00    -0.494 OA
ATOM     31  C   UNL     1       8.604  11.496   5.424  0.00  0.00    +0.277 C 
ENDBRANCH  25   7
ENDBRANCH  19  22
ENDBRANCH  12  10
TORSDOF 5
ENDMDL
MODEL 10
REMARK VINA RESULT:      -6.0      1.293      2.135
REMARK  Name = 7050334
REMARK  7 active torsions:
REMARK  status: ('A' for Active; 'I' for Inactive)
REMARK    1  A    between atoms: S_2  and  C_30
REMARK    2  A    between atoms: S_2  and  C_32
REMARK    3  A    between atoms: O_7  and  C_25
REMARK    4  A    between atoms: O_7  and  C_31
REMARK    5  A    between atoms: N_9  and  C_18
REMARK    6  A    between atoms: N_10  and  C_12
REMARK    7  A    between atoms: C_19  and  C_22
REMARK                            x       y       z     vdW  Elec       q    Type
REMARK                         _______ _______ _______ _____ _____    ______ ____
ROOT
ATOM      4  O   UNL     1      20.699   4.393  20.143  0.00  0.00    -0.273 OA
ATOM      5  O   UNL     1      22.486   5.498  24.284  0.00  0.00    -0.252 OA
ATOM      8  N   UNL     1      20.674   6.256  23.050  0.00  0.00    -0.273 N 
ATOM      9  N   UNL     1      21.892   4.590  22.178  0.00  0.00    -0.193 N 
ATOM     11  C   UNL     1      20.041   6.016  21.781  0.00  0.00    +0.166 C 
ATOM     12  C   UNL     1      19.538   8.500  21.685  0.00  0.00    +0.077 C 
ATOM     13  C   UNL     1      20.058   7.272  20.917  0.00  0.00    +0.054 C 
ATOM     14  C   UNL     1      20.250   8.660  23.039  0.00  0.00    +0.041 C 
ATOM     15  C   UNL     1      20.227   7.372  23.864  0.00  0.00    +0.112 C 
ATOM     16  C   UNL     1      20.917   4.902  21.236  0.00  0.00    +0.248 C 
ATOM     17  C   UNL     1      21.769   5.426  23.293  0.00  0.00    +0.316 C 
ENDROOT
BRANCH   9  18
ATOM      1 CL   UNL     1      24.145   0.336  24.009  0.00  0.00    -0.081 Cl
ATOM      3  F   UNL     1      25.782   0.658  21.558  0.00  0.00    -0.204 F 
ATOM     18  C   UNL     1      22.891   3.578  22.024  0.00  0.00    +0.047 A 
ATOM     20  C   UNL     1      23.021   2.566  22.979  0.00  0.00    +0.047 A 
ATOM     21  C   UNL     1      23.743   3.595  20.915  0.00  0.00    +0.027 A 
ATOM     23  C   UNL     1      23.994   1.579  22.827  0.00  0.00    +0.078 A 
ATOM     24  C   UNL     1      24.715   2.608  20.763  0.00  0.00    +0.041 A 
ATOM     27  C   UNL     1      24.842   1.599  21.719  0.00  0.00    +0.142 A 
ENDBRANCH   9  18
BRANCH  12  10
ATOM      6  O   UNL     1      17.663  10.288  20.571  0.00  0.00    -0.270 OA
ATOM     10  N   UNL     1      18.105   8.438  21.860  0.00  0.00    -0.308 N 
ATOM     19  C   UNL     1      17.246   9.365  21.273  0.00  0.00    +0.248 C 
ATOM     33  H   UNL     1      17.743   7.752  22.513  0.00  0.00    +0.149 HD
BRANCH  19  22
ATOM     22  C   UNL     1      15.812   9.151  21.517  0.00  0.00    +0.078 A 
ATOM     25  C   UNL     1      15.081  10.069  22.255  0.00  0.00    +0.133 A 
ATOM     26  C   UNL     1      15.211   8.014  20.994  0.00  0.00    +0.018 A 
ATOM     28  C   UNL     1      13.721   9.847  22.477  0.00  0.00    +0.061 A 
ATOM     29  C   UNL     1      13.852   7.791  21.215  0.00  0.00    +0.015 A 
ATOM     30  C   UNL     1      13.108   8.709  21.956  0.00  0.00    +0.011 A 
BRANCH  30   2
ATOM      2  S   UNL     1      11.370   8.424  22.238  0.00  0.00    -0.128 S 
ATOM     32  C   UNL     1      11.160   6.744  21.584  0.00  0.00    +0.090 C 
ENDBRANCH  30   2
BRANCH  25   7
ATOM      7  O   UNL     1      15.662  11.189  22.772  0.00  0.00    -0.494 OA
ATOM     31  C   UNL     1      15.158  12.446  22.324  0.00  0.00    +0.277 C 
ENDBRANCH  25   7
ENDBRANCH  19  22
ENDBRANCH  12  10
TORSDOF 5
ENDMDL
