MODEL 1
REMARK VINA RESULT:      -6.9      0.000      0.000
REMARK  Name = 51138057
REMARK  8 active torsions:
REMARK  status: ('A' for Active; 'I' for Inactive)
REMARK    1  A    between atoms: N_2  and  C_6
REMARK    2  A    between atoms: N_4  and  C_22
REMARK    3  A    between atoms: C_9  and  C_16
REMARK    4  A    between atoms: C_10  and  C_15
REMARK    5  A    between atoms: C_15  and  C_18
REMARK    6  A    between atoms: C_18  and  C_24
REMARK    7  A    between atoms: C_18  and  C_25
REMARK    8  A    between atoms: C_22  and  C_26
REMARK                            x       y       z     vdW  Elec       q    Type
REMARK                         _______ _______ _______ _____ _____    ______ ____
ROOT
ATOM      3  N   UNL     1      19.297   8.486  22.663  0.00  0.00    -0.299 NA
ATOM      4  N   UNL     1      15.032   8.497  19.959  0.00  0.00    -0.341 N 
ATOM      9  C   UNL     1      18.960   9.821  22.188  0.00  0.00    +0.145 C 
ATOM     10  C   UNL     1      19.496   7.490  21.602  0.00  0.00    +0.085 C 
ATOM     11  C   UNL     1      17.452  10.064  22.220  0.00  0.00    +0.065 C 
ATOM     12  C   UNL     1      18.266   7.167  20.747  0.00  0.00    -0.021 A 
ATOM     13  C   UNL     1      17.089   7.968  20.668  0.00  0.00    +0.008 A 
ATOM     14  C   UNL     1      16.681   9.209  21.270  0.00  0.00    -0.020 A 
ATOM     17  C   UNL     1      16.038   7.568  19.835  0.00  0.00    +0.050 A 
ATOM     19  C   UNL     1      15.410   9.490  20.813  0.00  0.00    +0.091 A 
ATOM     20  C   UNL     1      18.307   6.032  19.899  0.00  0.00    +0.006 A 
ATOM     21  C   UNL     1      16.079   6.420  19.043  0.00  0.00    +0.026 A 
ATOM     23  C   UNL     1      17.242   5.662  19.079  0.00  0.00    +0.002 A 
ATOM     32  H   UNL     1      18.619   8.157  23.349  0.00  0.00    +0.123 HD
ENDROOT
BRANCH   9  16
ATOM      1  O   UNL     1      20.845  10.922  23.154  0.00  0.00    -0.274 OA
ATOM      2  N   UNL     1      18.729  11.371  24.003  0.00  0.00    -0.311 N 
ATOM     16  C   UNL     1      19.628  10.759  23.145  0.00  0.00    +0.231 C 
ATOM     31  H   UNL     1      17.735  11.175  23.922  0.00  0.00    +0.149 HD
BRANCH   2   6
ATOM      6  C   UNL     1      19.142  12.290  25.025  0.00  0.00    +0.073 C 
ATOM      7  C   UNL     1      19.564  11.808  26.382  0.00  0.00    +0.024 C 
ATOM      8  C   UNL     1      18.276  12.560  26.220  0.00  0.00    +0.024 C 
ENDBRANCH   2   6
ENDBRANCH   9  16
BRANCH  10  15
ATOM     15  C   UNL     1      20.048   6.251  22.330  0.00  0.00    +0.026 C 
BRANCH  15  18
ATOM     18  C   UNL     1      21.421   5.813  21.809  0.00  0.00    -0.015 C 
ATOM     24  C   UNL     1      21.410   4.394  21.240  0.00  0.00    +0.007 C 
ATOM     25  C   UNL     1      21.891   6.798  20.737  0.00  0.00    +0.007 C 
ENDBRANCH  15  18
ENDBRANCH  10  15
BRANCH   4  22
ATOM     22  C   UNL     1      13.757   8.455  19.274  0.00  0.00    +0.177 C 
BRANCH  22  26
ATOM      5  N   UNL     1      12.608   6.732  20.555  0.00  0.00    -0.258 NA
ATOM     26  C   UNL     1      12.615   8.025  20.160  0.00  0.00    +0.061 A 
ATOM     27  C   UNL     1      11.652   8.953  20.522  0.00  0.00    +0.025 A 
ATOM     28  C   UNL     1      10.612   8.525  21.341  0.00  0.00    +0.003 A 
ATOM     29  C   UNL     1      11.582   6.353  21.350  0.00  0.00    +0.111 A 
ATOM     30  C   UNL     1      10.570   7.202  21.767  0.00  0.00    +0.020 A 
ENDBRANCH  22  26
ENDBRANCH   4  22
TORSDOF 6
ENDMDL
MODEL 2
REMARK VINA RESULT:      -6.9     28.330     30.787
REMARK  Name = 51138057
REMARK  8 active torsions:
REMARK  status: ('A' for Active; 'I' for Inactive)
REMARK    1  A    between atoms: N_2  and  C_6
REMARK    2  A    between atoms: N_4  and  C_22
REMARK    3  A    between atoms: C_9  and  C_16
REMARK    4  A    between atoms: C_10  and  C_15
REMARK    5  A    between atoms: C_15  and  C_18
REMARK    6  A    between atoms: C_18  and  C_24
REMARK    7  A    between atoms: C_18  and  C_25
REMARK    8  A    between atoms: C_22  and  C_26
REMARK                            x       y       z     vdW  Elec       q    Type
REMARK                         _______ _______ _______ _____ _____    ______ ____
ROOT
ATOM      3  N   UNL     1      -6.636 -10.880  16.686  0.00  0.00    -0.299 NA
ATOM      4  N   UNL     1      -3.620 -10.385  12.666  0.00  0.00    -0.341 N 
ATOM      9  C   UNL     1      -7.046  -9.772  15.834  0.00  0.00    +0.145 C 
ATOM     10  C   UNL     1      -5.273 -10.769  17.223  0.00  0.00    +0.085 C 
ATOM     11  C   UNL     1      -6.859 -10.103  14.355  0.00  0.00    +0.065 C 
ATOM     12  C   UNL     1      -4.142 -10.794  16.188  0.00  0.00    -0.021 A 
ATOM     13  C   UNL     1      -4.305 -10.574  14.790  0.00  0.00    +0.008 A 
ATOM     14  C   UNL     1      -5.434 -10.276  13.949  0.00  0.00    -0.020 A 
ATOM     17  C   UNL     1      -3.186 -10.609  13.951  0.00  0.00    +0.050 A 
ATOM     19  C   UNL     1      -4.967 -10.178  12.653  0.00  0.00    +0.091 A 
ATOM     20  C   UNL     1      -2.811 -10.969  16.642  0.00  0.00    +0.006 A 
ATOM     21  C   UNL     1      -1.887 -10.831  14.412  0.00  0.00    +0.026 A 
ATOM     23  C   UNL     1      -1.716 -10.998  15.780  0.00  0.00    +0.002 A 
ATOM     32  H   UNL     1      -6.771 -11.775  16.218  0.00  0.00    +0.123 HD
ENDROOT
BRANCH   9  16
ATOM      1  O   UNL     1      -9.177 -10.438  16.680  0.00  0.00    -0.274 OA
ATOM      2  N   UNL     1      -8.981  -8.368  15.641  0.00  0.00    -0.311 N 
ATOM     16  C   UNL     1      -8.505  -9.580  16.114  0.00  0.00    +0.231 C 
ATOM     31  H   UNL     1      -8.348  -7.718  15.182  0.00  0.00    +0.149 HD
BRANCH   2   6
ATOM      6  C   UNL     1     -10.355  -7.977  15.769  0.00  0.00    +0.073 C 
ATOM      7  C   UNL     1     -10.766  -6.536  15.690  0.00  0.00    +0.024 C 
ATOM      8  C   UNL     1     -10.848  -7.269  16.996  0.00  0.00    +0.024 C 
ENDBRANCH   2   6
ENDBRANCH   9  16
BRANCH  10  15
ATOM     15  C   UNL     1      -5.162 -11.917  18.243  0.00  0.00    +0.026 C 
BRANCH  15  18
ATOM     18  C   UNL     1      -5.900 -11.624  19.554  0.00  0.00    -0.015 C 
ATOM     24  C   UNL     1      -6.173 -10.134  19.756  0.00  0.00    +0.007 C 
ATOM     25  C   UNL     1      -7.220 -12.400  19.574  0.00  0.00    +0.007 C 
ENDBRANCH  15  18
ENDBRANCH  10  15
BRANCH   4  22
ATOM     22  C   UNL     1      -2.781 -10.350  11.487  0.00  0.00    +0.177 C 
BRANCH  22  26
ATOM      5  N   UNL     1      -3.820 -11.731   9.770  0.00  0.00    -0.258 NA
ATOM     26  C   UNL     1      -3.555 -10.476  10.198  0.00  0.00    +0.061 A 
ATOM     27  C   UNL     1      -3.949  -9.328   9.530  0.00  0.00    +0.025 A 
ATOM     28  C   UNL     1      -4.662  -9.478   8.345  0.00  0.00    +0.003 A 
ATOM     29  C   UNL     1      -4.514 -11.837   8.616  0.00  0.00    +0.111 A 
ATOM     30  C   UNL     1      -4.954 -10.753   7.873  0.00  0.00    +0.020 A 
ENDBRANCH  22  26
ENDBRANCH   4  22
TORSDOF 6
ENDMDL
MODEL 3
REMARK VINA RESULT:      -6.7      2.016      4.673
REMARK  Name = 51138057
REMARK  8 active torsions:
REMARK  status: ('A' for Active; 'I' for Inactive)
REMARK    1  A    between atoms: N_2  and  C_6
REMARK    2  A    between atoms: N_4  and  C_22
REMARK    3  A    between atoms: C_9  and  C_16
REMARK    4  A    between atoms: C_10  and  C_15
REMARK    5  A    between atoms: C_15  and  C_18
REMARK    6  A    between atoms: C_18  and  C_24
REMARK    7  A    between atoms: C_18  and  C_25
REMARK    8  A    between atoms: C_22  and  C_26
REMARK                            x       y       z     vdW  Elec       q    Type
REMARK                         _______ _______ _______ _____ _____    ______ ____
ROOT
ATOM      3  N   UNL     1      19.954   8.395  21.951  0.00  0.00    -0.299 NA
ATOM      4  N   UNL     1      15.566   7.682  19.554  0.00  0.00    -0.341 N 
ATOM      9  C   UNL     1      19.343   7.121  22.306  0.00  0.00    +0.145 C 
ATOM     10  C   UNL     1      19.135   9.575  22.260  0.00  0.00    +0.085 C 
ATOM     11  C   UNL     1      18.658   6.473  21.104  0.00  0.00    +0.065 C 
ATOM     12  C   UNL     1      17.812   9.690  21.497  0.00  0.00    -0.021 A 
ATOM     13  C   UNL     1      17.171   8.624  20.801  0.00  0.00    +0.008 A 
ATOM     14  C   UNL     1      17.480   7.235  20.596  0.00  0.00    -0.020 A 
ATOM     17  C   UNL     1      15.953   8.858  20.153  0.00  0.00    +0.050 A 
ATOM     19  C   UNL     1      16.473   6.699  19.818  0.00  0.00    +0.091 A 
ATOM     20  C   UNL     1      17.111  10.922  21.535  0.00  0.00    +0.006 A 
ATOM     21  C   UNL     1      15.301  10.092  20.163  0.00  0.00    +0.026 A 
ATOM     23  C   UNL     1      15.897  11.121  20.879  0.00  0.00    +0.002 A 
ATOM     32  H   UNL     1      20.250   8.402  20.976  0.00  0.00    +0.123 HD
ENDROOT
BRANCH   9  16
ATOM      1  O   UNL     1      20.886   6.257  23.910  0.00  0.00    -0.274 OA
ATOM      2  N   UNL     1      21.003   5.492  21.718  0.00  0.00    -0.311 N 
ATOM     16  C   UNL     1      20.478   6.252  22.752  0.00  0.00    +0.231 C 
ATOM     31  H   UNL     1      20.599   5.553  20.787  0.00  0.00    +0.149 HD
BRANCH   2   6
ATOM      6  C   UNL     1      22.115   4.605  21.901  0.00  0.00    +0.073 C 
ATOM      7  C   UNL     1      23.061   4.299  20.778  0.00  0.00    +0.024 C 
ATOM      8  C   UNL     1      22.127   3.239  21.281  0.00  0.00    +0.024 C 
ENDBRANCH   2   6
ENDBRANCH   9  16
BRANCH  10  15
ATOM     15  C   UNL     1      20.068  10.773  22.006  0.00  0.00    +0.026 C 
BRANCH  15  18
ATOM     18  C   UNL     1      20.720  10.739  20.619  0.00  0.00    -0.015 C 
ATOM     24  C   UNL     1      20.221  11.859  19.706  0.00  0.00    +0.007 C 
ATOM     25  C   UNL     1      22.240  10.836  20.773  0.00  0.00    +0.007 C 
ENDBRANCH  15  18
ENDBRANCH  10  15
BRANCH   4  22
ATOM     22  C   UNL     1      14.365   7.491  18.770  0.00  0.00    +0.177 C 
BRANCH  22  26
ATOM      5  N   UNL     1      13.005   6.774  20.659  0.00  0.00    -0.258 NA
ATOM     26  C   UNL     1      13.098   7.586  19.582  0.00  0.00    +0.061 A 
ATOM     27  C   UNL     1      12.113   8.482  19.198  0.00  0.00    +0.025 A 
ATOM     28  C   UNL     1      10.957   8.547  19.969  0.00  0.00    +0.003 A 
ATOM     29  C   UNL     1      11.868   6.865  21.383  0.00  0.00    +0.111 A 
ATOM     30  C   UNL     1      10.825   7.727  21.084  0.00  0.00    +0.020 A 
ENDBRANCH  22  26
ENDBRANCH   4  22
TORSDOF 6
ENDMDL
MODEL 4
REMARK VINA RESULT:      -6.6     27.226     30.901
REMARK  Name = 51138057
REMARK  8 active torsions:
REMARK  status: ('A' for Active; 'I' for Inactive)
REMARK    1  A    between atoms: N_2  and  C_6
REMARK    2  A    between atoms: N_4  and  C_22
REMARK    3  A    between atoms: C_9  and  C_16
REMARK    4  A    between atoms: C_10  and  C_15
REMARK    5  A    between atoms: C_15  and  C_18
REMARK    6  A    between atoms: C_18  and  C_24
REMARK    7  A    between atoms: C_18  and  C_25
REMARK    8  A    between atoms: C_22  and  C_26
REMARK                            x       y       z     vdW  Elec       q    Type
REMARK                         _______ _______ _______ _____ _____    ______ ____
ROOT
ATOM      3  N   UNL     1      -4.636 -10.573  14.593  0.00  0.00    -0.299 NA
ATOM      4  N   UNL     1      -8.865  -9.646  17.195  0.00  0.00    -0.341 N 
ATOM      9  C   UNL     1      -5.821 -11.036  13.884  0.00  0.00    +0.145 C 
ATOM     10  C   UNL     1      -4.434 -11.185  15.914  0.00  0.00    +0.085 C 
ATOM     11  C   UNL     1      -6.997 -10.079  14.072  0.00  0.00    +0.065 C 
ATOM     12  C   UNL     1      -5.509 -10.884  16.963  0.00  0.00    -0.021 A 
ATOM     13  C   UNL     1      -6.809 -10.371  16.682  0.00  0.00    +0.008 A 
ATOM     14  C   UNL     1      -7.501 -10.008  15.475  0.00  0.00    -0.020 A 
ATOM     17  C   UNL     1      -7.706 -10.153  17.734  0.00  0.00    +0.050 A 
ATOM     19  C   UNL     1      -8.755  -9.560  15.839  0.00  0.00    +0.091 A 
ATOM     20  C   UNL     1      -5.243 -11.204  18.318  0.00  0.00    +0.006 A 
ATOM     21  C   UNL     1      -7.408 -10.431  19.068  0.00  0.00    +0.026 A 
ATOM     23  C   UNL     1      -6.160 -10.975  19.343  0.00  0.00    +0.002 A 
ATOM     32  H   UNL     1      -4.619  -9.556  14.656  0.00  0.00    +0.123 HD
ENDROOT
BRANCH   9  16
ATOM      1  O   UNL     1      -6.083 -11.670  11.598  0.00  0.00    -0.274 OA
ATOM      2  N   UNL     1      -4.270 -10.342  12.192  0.00  0.00    -0.311 N 
ATOM     16  C   UNL     1      -5.432 -11.056  12.438  0.00  0.00    +0.231 C 
ATOM     31  H   UNL     1      -3.797  -9.864  12.954  0.00  0.00    +0.149 HD
BRANCH   2   6
ATOM      6  C   UNL     1      -3.689 -10.245  10.884  0.00  0.00    +0.073 C 
ATOM      7  C   UNL     1      -2.473  -9.402  10.632  0.00  0.00    +0.024 C 
ATOM      8  C   UNL     1      -3.803  -8.985  10.077  0.00  0.00    +0.024 C 
ENDBRANCH   2   6
ENDBRANCH   9  16
BRANCH  10  15
ATOM     15  C   UNL     1      -3.035 -10.711  16.351  0.00  0.00    +0.026 C 
BRANCH  15  18
ATOM     18  C   UNL     1      -2.059 -10.570  15.178  0.00  0.00    -0.015 C 
ATOM     24  C   UNL     1      -0.783  -9.820  15.562  0.00  0.00    +0.007 C 
ATOM     25  C   UNL     1      -1.702 -11.961  14.648  0.00  0.00    +0.007 C 
ENDBRANCH  15  18
ENDBRANCH  10  15
BRANCH   4  22
ATOM     22  C   UNL     1     -10.047  -9.271  17.940  0.00  0.00    +0.177 C 
BRANCH  22  26
ATOM      5  N   UNL     1     -10.488  -7.064  17.009  0.00  0.00    -0.258 NA
ATOM     26  C   UNL     1     -10.950  -8.321  17.192  0.00  0.00    +0.061 A 
ATOM     27  C   UNL     1     -12.179  -8.771  16.738  0.00  0.00    +0.025 A 
ATOM     28  C   UNL     1     -12.988  -7.872  16.051  0.00  0.00    +0.003 A 
ATOM     29  C   UNL     1     -11.301  -6.218  16.337  0.00  0.00    +0.111 A 
ATOM     30  C   UNL     1     -12.547  -6.569  15.843  0.00  0.00    +0.020 A 
ENDBRANCH  22  26
ENDBRANCH   4  22
TORSDOF 6
ENDMDL
MODEL 5
REMARK VINA RESULT:      -6.5     31.855     34.166
REMARK  Name = 51138057
REMARK  8 active torsions:
REMARK  status: ('A' for Active; 'I' for Inactive)
REMARK    1  A    between atoms: N_2  and  C_6
REMARK    2  A    between atoms: N_4  and  C_22
REMARK    3  A    between atoms: C_9  and  C_16
REMARK    4  A    between atoms: C_10  and  C_15
REMARK    5  A    between atoms: C_15  and  C_18
REMARK    6  A    between atoms: C_18  and  C_24
REMARK    7  A    between atoms: C_18  and  C_25
REMARK    8  A    between atoms: C_22  and  C_26
REMARK                            x       y       z     vdW  Elec       q    Type
REMARK                         _______ _______ _______ _____ _____    ______ ____
ROOT
ATOM      3  N   UNL     1     -15.449   2.967  28.881  0.00  0.00    -0.299 NA
ATOM      4  N   UNL     1     -15.551   6.610  32.377  0.00  0.00    -0.341 N 
ATOM      9  C   UNL     1     -16.665   3.764  28.798  0.00  0.00    +0.145 C 
ATOM     10  C   UNL     1     -15.247   2.289  30.168  0.00  0.00    +0.085 C 
ATOM     11  C   UNL     1     -16.390   5.239  29.085  0.00  0.00    +0.065 C 
ATOM     12  C   UNL     1     -15.052   3.203  31.383  0.00  0.00    -0.021 A 
ATOM     13  C   UNL     1     -15.383   4.588  31.428  0.00  0.00    +0.008 A 
ATOM     14  C   UNL     1     -15.953   5.512  30.485  0.00  0.00    -0.020 A 
ATOM     17  C   UNL     1     -15.168   5.310  32.608  0.00  0.00    +0.050 A 
ATOM     19  C   UNL     1     -16.030   6.742  31.108  0.00  0.00    +0.091 A 
ATOM     20  C   UNL     1     -14.582   2.632  32.593  0.00  0.00    +0.006 A 
ATOM     21  C   UNL     1     -14.659   4.740  33.776  0.00  0.00    +0.026 A 
ATOM     23  C   UNL     1     -14.381   3.380  33.752  0.00  0.00    +0.002 A 
ATOM     32  H   UNL     1     -14.630   3.517  28.627  0.00  0.00    +0.123 HD
ENDROOT
BRANCH   9  16
ATOM      1  O   UNL     1     -18.104   2.926  27.087  0.00  0.00    -0.274 OA
ATOM      2  N   UNL     1     -16.344   4.319  26.487  0.00  0.00    -0.311 N 
ATOM     16  C   UNL     1     -17.135   3.619  27.383  0.00  0.00    +0.231 C 
ATOM     31  H   UNL     1     -15.557   4.868  26.824  0.00  0.00    +0.149 HD
BRANCH   2   6
ATOM      6  C   UNL     1     -16.584   4.305  25.072  0.00  0.00    +0.073 C 
ATOM      7  C   UNL     1     -16.034   3.217  24.199  0.00  0.00    +0.024 C 
ATOM      8  C   UNL     1     -15.486   4.609  24.097  0.00  0.00    +0.024 C 
ENDBRANCH   2   6
ENDBRANCH   9  16
BRANCH  10  15
ATOM     15  C   UNL     1     -14.043   1.358  29.933  0.00  0.00    +0.026 C 
BRANCH  15  18
ATOM     18  C   UNL     1     -14.451  -0.102  29.709  0.00  0.00    -0.015 C 
ATOM     24  C   UNL     1     -13.252  -1.019  29.469  0.00  0.00    +0.007 C 
ATOM     25  C   UNL     1     -15.245  -0.595  30.922  0.00  0.00    +0.007 C 
ENDBRANCH  15  18
ENDBRANCH  10  15
BRANCH   4  22
ATOM     22  C   UNL     1     -15.483   7.692  33.336  0.00  0.00    +0.177 C 
BRANCH  22  26
ATOM      5  N   UNL     1     -13.621   8.425  34.726  0.00  0.00    -0.258 NA
ATOM     26  C   UNL     1     -14.103   8.286  33.470  0.00  0.00    +0.061 A 
ATOM     27  C   UNL     1     -13.409   8.652  32.328  0.00  0.00    +0.025 A 
ATOM     28  C   UNL     1     -12.139   9.196  32.486  0.00  0.00    +0.003 A 
ATOM     29  C   UNL     1     -12.384   8.957  34.839  0.00  0.00    +0.111 A 
ATOM     30  C   UNL     1     -11.609   9.354  33.762  0.00  0.00    +0.020 A 
ENDBRANCH  22  26
ENDBRANCH   4  22
TORSDOF 6
ENDMDL
MODEL 6
REMARK VINA RESULT:      -6.3     28.469     31.020
REMARK  Name = 51138057
REMARK  8 active torsions:
REMARK  status: ('A' for Active; 'I' for Inactive)
REMARK    1  A    between atoms: N_2  and  C_6
REMARK    2  A    between atoms: N_4  and  C_22
REMARK    3  A    between atoms: C_9  and  C_16
REMARK    4  A    between atoms: C_10  and  C_15
REMARK    5  A    between atoms: C_15  and  C_18
REMARK    6  A    between atoms: C_18  and  C_24
REMARK    7  A    between atoms: C_18  and  C_25
REMARK    8  A    between atoms: C_22  and  C_26
REMARK                            x       y       z     vdW  Elec       q    Type
REMARK                         _______ _______ _______ _____ _____    ______ ____
ROOT
ATOM      3  N   UNL     1      -5.065 -10.797  13.824  0.00  0.00    -0.299 NA
ATOM      4  N   UNL     1      -7.687  -9.210   9.810  0.00  0.00    -0.341 N 
ATOM      9  C   UNL     1      -6.162  -9.919  14.206  0.00  0.00    +0.145 C 
ATOM     10  C   UNL     1      -4.080 -10.191  12.919  0.00  0.00    +0.085 C 
ATOM     11  C   UNL     1      -7.397 -10.153  13.339  0.00  0.00    +0.065 C 
ATOM     12  C   UNL     1      -4.599  -9.792  11.533  0.00  0.00    -0.021 A 
ATOM     13  C   UNL     1      -5.973  -9.644  11.184  0.00  0.00    +0.008 A 
ATOM     14  C   UNL     1      -7.209  -9.785  11.905  0.00  0.00    -0.020 A 
ATOM     17  C   UNL     1      -6.315  -9.260   9.883  0.00  0.00    +0.050 A 
ATOM     19  C   UNL     1      -8.234  -9.517  11.020  0.00  0.00    +0.091 A 
ATOM     20  C   UNL     1      -3.658  -9.462  10.525  0.00  0.00    +0.006 A 
ATOM     21  C   UNL     1      -5.374  -8.986   8.889  0.00  0.00    +0.026 A 
ATOM     23  C   UNL     1      -4.033  -9.081   9.238  0.00  0.00    +0.002 A 
ATOM     32  H   UNL     1      -5.413 -11.677  13.446  0.00  0.00    +0.123 HD
ENDROOT
BRANCH   9  16
ATOM      1  O   UNL     1      -7.388  -9.736  16.246  0.00  0.00    -0.274 OA
ATOM      2  N   UNL     1      -5.633 -11.255  16.126  0.00  0.00    -0.311 N 
ATOM     16  C   UNL     1      -6.481 -10.282  15.623  0.00  0.00    +0.231 C 
ATOM     31  H   UNL     1      -4.908 -11.652  15.534  0.00  0.00    +0.149 HD
BRANCH   2   6
ATOM      6  C   UNL     1      -5.731 -11.742  17.472  0.00  0.00    +0.073 C 
ATOM      7  C   UNL     1      -4.958 -11.105  18.589  0.00  0.00    +0.024 C 
ATOM      8  C   UNL     1      -4.592 -12.480  18.113  0.00  0.00    +0.024 C 
ENDBRANCH   2   6
ENDBRANCH   9  16
BRANCH  10  15
ATOM     15  C   UNL     1      -2.935 -11.218  12.846  0.00  0.00    +0.026 C 
BRANCH  15  18
ATOM     18  C   UNL     1      -2.608 -11.847  14.204  0.00  0.00    -0.015 C 
ATOM     24  C   UNL     1      -1.915 -13.203  14.074  0.00  0.00    +0.007 C 
ATOM     25  C   UNL     1      -1.724 -10.888  15.005  0.00  0.00    +0.007 C 
ENDBRANCH  15  18
ENDBRANCH  10  15
BRANCH   4  22
ATOM     22  C   UNL     1      -8.457  -8.864   8.634  0.00  0.00    +0.177 C 
BRANCH  22  26
ATOM      5  N   UNL     1     -10.346  -7.412   9.142  0.00  0.00    -0.258 NA
ATOM     26  C   UNL     1      -9.069  -7.487   8.703  0.00  0.00    +0.061 A 
ATOM     27  C   UNL     1      -8.312  -6.389   8.325  0.00  0.00    +0.025 A 
ATOM     28  C   UNL     1      -8.905  -5.134   8.401  0.00  0.00    +0.003 A 
ATOM     29  C   UNL     1     -10.887  -6.176   9.203  0.00  0.00    +0.111 A 
ATOM     30  C   UNL     1     -10.217  -5.016   8.848  0.00  0.00    +0.020 A 
ENDBRANCH  22  26
ENDBRANCH   4  22
TORSDOF 6
ENDMDL
MODEL 7
REMARK VINA RESULT:      -6.3      1.980      2.760
REMARK  Name = 51138057
REMARK  8 active torsions:
REMARK  status: ('A' for Active; 'I' for Inactive)
REMARK    1  A    between atoms: N_2  and  C_6
REMARK    2  A    between atoms: N_4  and  C_22
REMARK    3  A    between atoms: C_9  and  C_16
REMARK    4  A    between atoms: C_10  and  C_15
REMARK    5  A    between atoms: C_15  and  C_18
REMARK    6  A    between atoms: C_18  and  C_24
REMARK    7  A    between atoms: C_18  and  C_25
REMARK    8  A    between atoms: C_22  and  C_26
REMARK                            x       y       z     vdW  Elec       q    Type
REMARK                         _______ _______ _______ _____ _____    ______ ____
ROOT
ATOM      3  N   UNL     1      18.355   9.507  22.565  0.00  0.00    -0.299 NA
ATOM      4  N   UNL     1      14.542   7.674  19.808  0.00  0.00    -0.341 N 
ATOM      9  C   UNL     1      17.590  10.568  21.925  0.00  0.00    +0.145 C 
ATOM     10  C   UNL     1      18.962   8.544  21.637  0.00  0.00    +0.085 C 
ATOM     11  C   UNL     1      16.096  10.247  21.901  0.00  0.00    +0.065 C 
ATOM     12  C   UNL     1      17.984   7.706  20.807  0.00  0.00    -0.021 A 
ATOM     13  C   UNL     1      16.605   8.009  20.612  0.00  0.00    +0.008 A 
ATOM     14  C   UNL     1      15.743   9.074  21.050  0.00  0.00    -0.020 A 
ATOM     17  C   UNL     1      15.821   7.167  19.816  0.00  0.00    +0.050 A 
ATOM     19  C   UNL     1      14.486   8.821  20.541  0.00  0.00    +0.091 A 
ATOM     20  C   UNL     1      18.482   6.579  20.105  0.00  0.00    +0.006 A 
ATOM     21  C   UNL     1      16.319   6.035  19.171  0.00  0.00    +0.026 A 
ATOM     23  C   UNL     1      17.672   5.761  19.319  0.00  0.00    +0.002 A 
ATOM     32  H   UNL     1      17.801   9.030  23.275  0.00  0.00    +0.123 HD
ENDROOT
BRANCH   9  16
ATOM      1  O   UNL     1      17.501  12.907  22.394  0.00  0.00    -0.274 OA
ATOM      2  N   UNL     1      18.432  11.482  23.977  0.00  0.00    -0.311 N 
ATOM     16  C   UNL     1      17.817  11.783  22.772  0.00  0.00    +0.231 C 
ATOM     31  H   UNL     1      18.658  10.517  24.205  0.00  0.00    +0.149 HD
BRANCH   2   6
ATOM      6  C   UNL     1      18.775  12.489  24.939  0.00  0.00    +0.073 C 
ATOM      7  C   UNL     1      19.635  12.171  26.126  0.00  0.00    +0.024 C 
ATOM      8  C   UNL     1      18.180  12.480  26.316  0.00  0.00    +0.024 C 
ENDBRANCH   2   6
ENDBRANCH   9  16
BRANCH  10  15
ATOM     15  C   UNL     1      19.878   7.677  22.521  0.00  0.00    +0.026 C 
BRANCH  15  18
ATOM     18  C   UNL     1      20.435   8.436  23.730  0.00  0.00    -0.015 C 
ATOM     24  C   UNL     1      20.525   7.564  24.983  0.00  0.00    +0.007 C 
ATOM     25  C   UNL     1      21.820   8.988  23.384  0.00  0.00    +0.007 C 
ENDBRANCH  15  18
ENDBRANCH  10  15
BRANCH   4  22
ATOM     22  C   UNL     1      13.412   7.097  19.111  0.00  0.00    +0.177 C 
BRANCH  22  26
ATOM      5  N   UNL     1      11.650   8.115  17.772  0.00  0.00    -0.258 NA
ATOM     26  C   UNL     1      12.977   7.898  17.909  0.00  0.00    +0.061 A 
ATOM     27  C   UNL     1      13.936   8.366  17.024  0.00  0.00    +0.025 A 
ATOM     28  C   UNL     1      13.503   9.102  15.927  0.00  0.00    +0.003 A 
ATOM     29  C   UNL     1      11.268   8.834  16.693  0.00  0.00    +0.111 A 
ATOM     30  C   UNL     1      12.146   9.345  15.751  0.00  0.00    +0.020 A 
ENDBRANCH  22  26
ENDBRANCH   4  22
TORSDOF 6
ENDMDL
MODEL 8
REMARK VINA RESULT:      -6.3     17.797     20.639
REMARK  Name = 51138057
REMARK  8 active torsions:
REMARK  status: ('A' for Active; 'I' for Inactive)
REMARK    1  A    between atoms: N_2  and  C_6
REMARK    2  A    between atoms: N_4  and  C_22
REMARK    3  A    between atoms: C_9  and  C_16
REMARK    4  A    between atoms: C_10  and  C_15
REMARK    5  A    between atoms: C_15  and  C_18
REMARK    6  A    between atoms: C_18  and  C_24
REMARK    7  A    between atoms: C_18  and  C_25
REMARK    8  A    between atoms: C_22  and  C_26
REMARK                            x       y       z     vdW  Elec       q    Type
REMARK                         _______ _______ _______ _____ _____    ______ ____
ROOT
ATOM      3  N   UNL     1      11.928   6.255   4.941  0.00  0.00    -0.299 NA
ATOM      4  N   UNL     1      12.790   4.052   0.479  0.00  0.00    -0.341 N 
ATOM      9  C   UNL     1      10.689   5.900   4.263  0.00  0.00    +0.145 C 
ATOM     10  C   UNL     1      12.789   7.184   4.198  0.00  0.00    +0.085 C 
ATOM     11  C   UNL     1      10.815   4.571   3.521  0.00  0.00    +0.065 C 
ATOM     12  C   UNL     1      13.349   6.663   2.870  0.00  0.00    -0.021 A 
ATOM     13  C   UNL     1      12.850   5.534   2.156  0.00  0.00    +0.008 A 
ATOM     14  C   UNL     1      11.777   4.604   2.380  0.00  0.00    -0.020 A 
ATOM     17  C   UNL     1      13.444   5.169   0.943  0.00  0.00    +0.050 A 
ATOM     19  C   UNL     1      11.783   3.707   1.331  0.00  0.00    +0.091 A 
ATOM     20  C   UNL     1      14.394   7.387   2.243  0.00  0.00    +0.006 A 
ATOM     21  C   UNL     1      14.504   5.867   0.365  0.00  0.00    +0.026 A 
ATOM     23  C   UNL     1      14.963   6.996   1.032  0.00  0.00    +0.002 A 
ATOM     32  H   UNL     1      12.446   5.423   5.220  0.00  0.00    +0.123 HD
ENDROOT
BRANCH   9  16
ATOM      1  O   UNL     1       8.482   6.003   5.169  0.00  0.00    -0.274 OA
ATOM      2  N   UNL     1      10.233   5.359   6.555  0.00  0.00    -0.311 N 
ATOM     16  C   UNL     1       9.671   5.759   5.353  0.00  0.00    +0.231 C 
ATOM     31  H   UNL     1      11.232   5.179   6.614  0.00  0.00    +0.149 HD
BRANCH   2   6
ATOM      6  C   UNL     1       9.456   5.184   7.748  0.00  0.00    +0.073 C 
ATOM      7  C   UNL     1      10.041   5.449   9.104  0.00  0.00    +0.024 C 
ATOM      8  C   UNL     1       9.722   4.044   8.686  0.00  0.00    +0.024 C 
ENDBRANCH   2   6
ENDBRANCH   9  16
BRANCH  10  15
ATOM     15  C   UNL     1      13.898   7.568   5.194  0.00  0.00    +0.026 C 
BRANCH  15  18
ATOM     18  C   UNL     1      13.793   9.019   5.676  0.00  0.00    -0.015 C 
ATOM     24  C   UNL     1      13.049   9.916   4.686  0.00  0.00    +0.007 C 
ATOM     25  C   UNL     1      13.087   9.050   7.034  0.00  0.00    +0.007 C 
ENDBRANCH  15  18
ENDBRANCH  10  15
BRANCH   4  22
ATOM     22  C   UNL     1      13.098   3.342  -0.745  0.00  0.00    +0.177 C 
BRANCH  22  26
ATOM      5  N   UNL     1      11.616   4.670  -2.150  0.00  0.00    -0.258 NA
ATOM     26  C   UNL     1      12.003   3.429  -1.778  0.00  0.00    +0.061 A 
ATOM     27  C   UNL     1      11.458   2.260  -2.287  0.00  0.00    +0.025 A 
ATOM     28  C   UNL     1      10.451   2.374  -3.239  0.00  0.00    +0.003 A 
ATOM     29  C   UNL     1      10.635   4.740  -3.077  0.00  0.00    +0.111 A 
ATOM     30  C   UNL     1      10.026   3.634  -3.647  0.00  0.00    +0.020 A 
ENDBRANCH  22  26
ENDBRANCH   4  22
TORSDOF 6
ENDMDL
MODEL 9
REMARK VINA RESULT:      -6.3     17.139     20.620
REMARK  Name = 51138057
REMARK  8 active torsions:
REMARK  status: ('A' for Active; 'I' for Inactive)
REMARK    1  A    between atoms: N_2  and  C_6
REMARK    2  A    between atoms: N_4  and  C_22
REMARK    3  A    between atoms: C_9  and  C_16
REMARK    4  A    between atoms: C_10  and  C_15
REMARK    5  A    between atoms: C_15  and  C_18
REMARK    6  A    between atoms: C_18  and  C_24
REMARK    7  A    between atoms: C_18  and  C_25
REMARK    8  A    between atoms: C_22  and  C_26
REMARK                            x       y       z     vdW  Elec       q    Type
REMARK                         _______ _______ _______ _____ _____    ______ ____
ROOT
ATOM      3  N   UNL     1       9.293   8.198   4.919  0.00  0.00    -0.299 NA
ATOM      4  N   UNL     1      10.903   4.835   1.511  0.00  0.00    -0.341 N 
ATOM      9  C   UNL     1       8.890   6.841   5.264  0.00  0.00    +0.145 C 
ATOM     10  C   UNL     1       8.795   8.675   3.622  0.00  0.00    +0.085 C 
ATOM     11  C   UNL     1       9.977   5.827   4.915  0.00  0.00    +0.065 C 
ATOM     12  C   UNL     1       9.306   7.922   2.389  0.00  0.00    -0.021 A 
ATOM     13  C   UNL     1       9.921   6.636   2.411  0.00  0.00    +0.008 A 
ATOM     14  C   UNL     1      10.236   5.695   3.451  0.00  0.00    -0.020 A 
ATOM     17  C   UNL     1      10.332   6.050   1.209  0.00  0.00    +0.050 A 
ATOM     19  C   UNL     1      10.845   4.610   2.854  0.00  0.00    +0.091 A 
ATOM     20  C   UNL     1       9.092   8.491   1.109  0.00  0.00    +0.006 A 
ATOM     21  C   UNL     1      10.155   6.648  -0.039  0.00  0.00    +0.026 A 
ATOM     23  C   UNL     1       9.513   7.879  -0.070  0.00  0.00    +0.002 A 
ATOM     32  H   UNL     1      10.304   8.309   4.984  0.00  0.00    +0.123 HD
ENDROOT
BRANCH   9  16
ATOM      1  O   UNL     1       8.181   7.812   7.326  0.00  0.00    -0.274 OA
ATOM      2  N   UNL     1       9.162   5.705   7.358  0.00  0.00    -0.311 N 
ATOM     16  C   UNL     1       8.690   6.856   6.748  0.00  0.00    +0.231 C 
ATOM     31  H   UNL     1       9.570   4.962   6.796  0.00  0.00    +0.149 HD
BRANCH   2   6
ATOM      6  C   UNL     1       9.103   5.506   8.778  0.00  0.00    +0.073 C 
ATOM      7  C   UNL     1      10.348   5.287   9.586  0.00  0.00    +0.024 C 
ATOM      8  C   UNL     1       9.378   4.162   9.384  0.00  0.00    +0.024 C 
ENDBRANCH   2   6
ENDBRANCH   9  16
BRANCH  10  15
ATOM     15  C   UNL     1       9.160  10.170   3.592  0.00  0.00    +0.026 C 
BRANCH  15  18
ATOM     18  C   UNL     1       7.975  11.082   3.931  0.00  0.00    -0.015 C 
ATOM     24  C   UNL     1       6.630  10.365   3.820  0.00  0.00    +0.007 C 
ATOM     25  C   UNL     1       8.153  11.634   5.348  0.00  0.00    +0.007 C 
ENDBRANCH  15  18
ENDBRANCH  10  15
BRANCH   4  22
ATOM     22  C   UNL     1      11.469   3.908   0.555  0.00  0.00    +0.177 C 
BRANCH  22  26
ATOM      5  N   UNL     1      13.517   4.500  -0.623  0.00  0.00    -0.258 NA
ATOM     26  C   UNL     1      12.975   3.960   0.491  0.00  0.00    +0.061 A 
ATOM     27  C   UNL     1      13.716   3.466   1.553  0.00  0.00    +0.025 A 
ATOM     28  C   UNL     1      15.102   3.529   1.464  0.00  0.00    +0.003 A 
ATOM     29  C   UNL     1      14.867   4.544  -0.674  0.00  0.00    +0.111 A 
ATOM     30  C   UNL     1      15.696   4.078   0.333  0.00  0.00    +0.020 A 
ENDBRANCH  22  26
ENDBRANCH   4  22
TORSDOF 6
ENDMDL
MODEL 10
REMARK VINA RESULT:      -6.2     28.576     31.777
REMARK  Name = 51138057
REMARK  8 active torsions:
REMARK  status: ('A' for Active; 'I' for Inactive)
REMARK    1  A    between atoms: N_2  and  C_6
REMARK    2  A    between atoms: N_4  and  C_22
REMARK    3  A    between atoms: C_9  and  C_16
REMARK    4  A    between atoms: C_10  and  C_15
REMARK    5  A    between atoms: C_15  and  C_18
REMARK    6  A    between atoms: C_18  and  C_24
REMARK    7  A    between atoms: C_18  and  C_25
REMARK    8  A    between atoms: C_22  and  C_26
REMARK                            x       y       z     vdW  Elec       q    Type
REMARK                         _______ _______ _______ _____ _____    ______ ____
ROOT
ATOM      3  N   UNL     1      -8.883 -10.362  17.956  0.00  0.00    -0.299 NA
ATOM      4  N   UNL     1      -4.095 -10.583  16.365  0.00  0.00    -0.341 N 
ATOM      9  C   UNL     1      -8.454  -9.108  17.350  0.00  0.00    +0.145 C 
ATOM     10  C   UNL     1      -8.095 -10.780  19.123  0.00  0.00    +0.085 C 
ATOM     11  C   UNL     1      -7.538  -9.348  16.152  0.00  0.00    +0.065 C 
ATOM     12  C   UNL     1      -6.620 -11.102  18.855  0.00  0.00    -0.021 A 
ATOM     13  C   UNL     1      -5.895 -10.713  17.691  0.00  0.00    +0.008 A 
ATOM     14  C   UNL     1      -6.227  -9.968  16.507  0.00  0.00    -0.020 A 
ATOM     17  C   UNL     1      -4.544 -11.059  17.575  0.00  0.00    +0.050 A 
ATOM     19  C   UNL     1      -5.096  -9.921  15.719  0.00  0.00    +0.091 A 
ATOM     20  C   UNL     1      -5.878 -11.769  19.861  0.00  0.00    +0.006 A 
ATOM     21  C   UNL     1      -3.841 -11.759  18.557  0.00  0.00    +0.026 A 
ATOM     23  C   UNL     1      -4.531 -12.098  19.713  0.00  0.00    +0.002 A 
ATOM     32  H   UNL     1      -8.932 -11.107  17.263  0.00  0.00    +0.123 HD
ENDROOT
BRANCH   9  16
ATOM      1  O   UNL     1      -9.707  -7.346  16.339  0.00  0.00    -0.274 OA
ATOM      2  N   UNL     1     -10.843  -9.204  17.152  0.00  0.00    -0.311 N 
ATOM     16  C   UNL     1      -9.714  -8.448  16.880  0.00  0.00    +0.231 C 
ATOM     31  H   UNL     1     -10.751 -10.109  17.606  0.00  0.00    +0.149 HD
BRANCH   2   6
ATOM      6  C   UNL     1     -12.166  -8.760  16.819  0.00  0.00    +0.073 C 
ATOM      7  C   UNL     1     -13.357  -9.188  17.624  0.00  0.00    +0.024 C 
ATOM      8  C   UNL     1     -13.172  -9.702  16.227  0.00  0.00    +0.024 C 
ENDBRANCH   2   6
ENDBRANCH   9  16
BRANCH  10  15
ATOM     15  C   UNL     1      -8.864 -11.982  19.701  0.00  0.00    +0.026 C 
BRANCH  15  18
ATOM     18  C   UNL     1      -9.522 -12.847  18.620  0.00  0.00    -0.015 C 
ATOM     24  C   UNL     1      -8.746 -14.133  18.341  0.00  0.00    +0.007 C 
ATOM     25  C   UNL     1     -10.952 -13.187  19.047  0.00  0.00    +0.007 C 
ENDBRANCH  15  18
ENDBRANCH  10  15
BRANCH   4  22
ATOM     22  C   UNL     1      -2.752 -10.735  15.845  0.00  0.00    +0.177 C 
BRANCH  22  26
ATOM      5  N   UNL     1      -3.218 -12.442  14.171  0.00  0.00    -0.258 NA
ATOM     26  C   UNL     1      -2.715 -11.211  14.414  0.00  0.00    +0.061 A 
ATOM     27  C   UNL     1      -2.182 -10.383  13.439  0.00  0.00    +0.025 A 
ATOM     28  C   UNL     1      -2.163 -10.850  12.129  0.00  0.00    +0.003 A 
ATOM     29  C   UNL     1      -3.182 -12.861  12.887  0.00  0.00    +0.111 A 
ATOM     30  C   UNL     1      -2.671 -12.111  11.839  0.00  0.00    +0.020 A 
ENDBRANCH  22  26
ENDBRANCH   4  22
TORSDOF 6
ENDMDL
