MODEL 1
REMARK VINA RESULT:      -7.3      0.000      0.000
REMARK  Name = 71694004
REMARK  8 active torsions:
REMARK  status: ('A' for Active; 'I' for Inactive)
REMARK    1  A    between atoms: O_1  and  C_11
REMARK    2  A    between atoms: O_2  and  C_13
REMARK    3  A    between atoms: O_5  and  C_27
REMARK    4  A    between atoms: O_5  and  C_30
REMARK    5  A    between atoms: N_6  and  C_10
REMARK    6  A    between atoms: N_8  and  C_19
REMARK    7  A    between atoms: C_9  and  C_14
REMARK    8  A    between atoms: C_17  and  C_20
REMARK                            x       y       z     vdW  Elec       q    Type
REMARK                         _______ _______ _______ _____ _____    ______ ____
ROOT
ATOM      9  C   UNL     1      13.566   9.572  19.952  0.00  0.00    +0.046 C 
ATOM     10  C   UNL     1      13.911   8.075  20.123  0.00  0.00    +0.112 C 
ATOM     11  C   UNL     1      12.937   7.607  21.204  0.00  0.00    +0.164 C 
ATOM     12  C   UNL     1      12.109   9.731  20.457  0.00  0.00    +0.044 C 
ATOM     13  C   UNL     1      11.644   8.327  20.840  0.00  0.00    +0.145 C 
ENDROOT
BRANCH   9  14
ATOM      7  N   UNL     1      14.223  11.938  17.062  0.00  0.00    -0.240 NA
ATOM     14  C   UNL     1      13.797  10.076  18.544  0.00  0.00    -0.024 A 
ATOM     15  C   UNL     1      13.795   9.205  17.460  0.00  0.00    +0.009 A 
ATOM     16  C   UNL     1      14.014  11.421  18.294  0.00  0.00    +0.116 A 
ATOM     18  C   UNL     1      14.009   9.698  16.178  0.00  0.00    +0.044 A 
ATOM     19  C   UNL     1      14.215  11.061  16.034  0.00  0.00    +0.121 A 
BRANCH  19   8
ATOM      4  O   UNL     1      14.996  12.721  12.250  0.00  0.00    -0.377 OA
ATOM      8  N   UNL     1      14.427  11.543  14.737  0.00  0.00    -0.311 N 
ATOM     21  C   UNL     1      15.801  11.554  14.218  0.00  0.00    +0.134 C 
ATOM     22  C   UNL     1      13.543  12.576  14.188  0.00  0.00    +0.134 C 
ATOM     23  C   UNL     1      15.776  11.610  12.695  0.00  0.00    +0.178 C 
ATOM     24  C   UNL     1      13.638  12.578  12.666  0.00  0.00    +0.178 C 
ENDBRANCH  19   8
ENDBRANCH   9  14
BRANCH  10   6
ATOM      3  O   UNL     1      15.778   6.234  18.952  0.00  0.00    -0.270 OA
ATOM      6  N   UNL     1      15.283   7.877  20.513  0.00  0.00    -0.305 N 
ATOM     17  C   UNL     1      16.114   6.959  19.884  0.00  0.00    +0.244 C 
ATOM     31  H   UNL     1      15.623   8.426  21.295  0.00  0.00    +0.149 HD
BRANCH  17  20
ATOM     20  C   UNL     1      17.495   6.855  20.423  0.00  0.00    +0.040 A 
ATOM     25  C   UNL     1      18.333   5.824  19.998  0.00  0.00    +0.058 A 
ATOM     26  C   UNL     1      17.954   7.789  21.351  0.00  0.00    +0.013 A 
ATOM     27  C   UNL     1      19.630   5.727  20.503  0.00  0.00    +0.121 A 
ATOM     28  C   UNL     1      19.250   7.693  21.857  0.00  0.00    +0.004 A 
ATOM     29  C   UNL     1      20.089   6.662  21.432  0.00  0.00    +0.045 A 
BRANCH  27   5
ATOM      5  O   UNL     1      20.449   4.721  20.091  0.00  0.00    -0.495 OA
ATOM     30  C   UNL     1      21.647   4.513  20.839  0.00  0.00    +0.277 C 
ENDBRANCH  27   5
ENDBRANCH  17  20
ENDBRANCH  10   6
BRANCH  11   1
ATOM      1  O   UNL     1      12.760   6.203  21.195  0.00  0.00    -0.387 OA
ATOM     32  H   UNL     1      12.664   5.915  22.118  0.00  0.00    +0.210 HD
ENDBRANCH  11   1
BRANCH  13   2
ATOM      2  O   UNL     1      11.027   7.726  19.706  0.00  0.00    -0.389 OA
ATOM     33  H   UNL     1      10.300   8.308  19.426  0.00  0.00    +0.210 HD
ENDBRANCH  13   2
TORSDOF 7
ENDMDL
MODEL 2
REMARK VINA RESULT:      -7.3      3.623      8.520
REMARK  Name = 71694004
REMARK  8 active torsions:
REMARK  status: ('A' for Active; 'I' for Inactive)
REMARK    1  A    between atoms: O_1  and  C_11
REMARK    2  A    between atoms: O_2  and  C_13
REMARK    3  A    between atoms: O_5  and  C_27
REMARK    4  A    between atoms: O_5  and  C_30
REMARK    5  A    between atoms: N_6  and  C_10
REMARK    6  A    between atoms: N_8  and  C_19
REMARK    7  A    between atoms: C_9  and  C_14
REMARK    8  A    between atoms: C_17  and  C_20
REMARK                            x       y       z     vdW  Elec       q    Type
REMARK                         _______ _______ _______ _____ _____    ______ ____
ROOT
ATOM      9  C   UNL     1      13.628   9.374  19.457  0.00  0.00    +0.046 C 
ATOM     10  C   UNL     1      12.436   9.064  20.390  0.00  0.00    +0.112 C 
ATOM     11  C   UNL     1      11.295   8.762  19.421  0.00  0.00    +0.164 C 
ATOM     12  C   UNL     1      13.301   8.682  18.108  0.00  0.00    +0.044 C 
ATOM     13  C   UNL     1      11.976   7.952  18.324  0.00  0.00    +0.145 C 
ENDROOT
BRANCH   9  14
ATOM      7  N   UNL     1      16.760   7.371  20.211  0.00  0.00    -0.240 NA
ATOM     14  C   UNL     1      14.964   8.982  20.051  0.00  0.00    -0.024 A 
ATOM     15  C   UNL     1      15.620   9.814  20.952  0.00  0.00    +0.009 A 
ATOM     16  C   UNL     1      15.570   7.783  19.716  0.00  0.00    +0.116 A 
ATOM     18  C   UNL     1      16.846   9.426  21.482  0.00  0.00    +0.044 A 
ATOM     19  C   UNL     1      17.368   8.206  21.083  0.00  0.00    +0.121 A 
BRANCH  19   8
ATOM      4  O   UNL     1      21.195   7.255  22.542  0.00  0.00    -0.377 OA
ATOM      8  N   UNL     1      18.601   7.828  21.626  0.00  0.00    -0.311 N 
ATOM     21  C   UNL     1      19.353   8.827  22.397  0.00  0.00    +0.134 C 
ATOM     22  C   UNL     1      19.418   6.815  20.950  0.00  0.00    +0.134 C 
ATOM     23  C   UNL     1      20.358   8.127  23.304  0.00  0.00    +0.178 C 
ATOM     24  C   UNL     1      20.420   6.222  21.935  0.00  0.00    +0.178 C 
ENDBRANCH  19   8
ENDBRANCH   9  14
BRANCH  10   6
ATOM      3  O   UNL     1      10.966   8.954  22.855  0.00  0.00    -0.270 OA
ATOM      6  N   UNL     1      12.127  10.172  21.258  0.00  0.00    -0.305 N 
ATOM     17  C   UNL     1      11.407  10.020  22.435  0.00  0.00    +0.244 C 
ATOM     31  H   UNL     1      12.439  11.089  20.961  0.00  0.00    +0.149 HD
BRANCH  17  20
ATOM     20  C   UNL     1      11.147  11.265  23.205  0.00  0.00    +0.040 A 
ATOM     25  C   UNL     1      10.894  12.460  22.532  0.00  0.00    +0.058 A 
ATOM     26  C   UNL     1      11.155  11.237  24.599  0.00  0.00    +0.013 A 
ATOM     27  C   UNL     1      10.649  13.628  23.255  0.00  0.00    +0.121 A 
ATOM     28  C   UNL     1      10.911  12.404  25.322  0.00  0.00    +0.004 A 
ATOM     29  C   UNL     1      10.657  13.600  24.650  0.00  0.00    +0.045 A 
BRANCH  27   5
ATOM      5  O   UNL     1      10.402  14.796  22.601  0.00  0.00    -0.495 OA
ATOM     30  C   UNL     1       9.313  14.804  21.678  0.00  0.00    +0.277 C 
ENDBRANCH  27   5
ENDBRANCH  17  20
ENDBRANCH  10   6
BRANCH  11   1
ATOM      1  O   UNL     1      10.255   8.021  20.031  0.00  0.00    -0.387 OA
ATOM     32  H   UNL     1       9.431   8.526  19.918  0.00  0.00    +0.210 HD
ENDBRANCH  11   1
BRANCH  13   2
ATOM      2  O   UNL     1      12.253   6.627  18.766  0.00  0.00    -0.389 OA
ATOM     33  H   UNL     1      12.557   6.684  19.688  0.00  0.00    +0.210 HD
ENDBRANCH  13   2
TORSDOF 7
ENDMDL
MODEL 3
REMARK VINA RESULT:      -7.2      3.469      8.012
REMARK  Name = 71694004
REMARK  8 active torsions:
REMARK  status: ('A' for Active; 'I' for Inactive)
REMARK    1  A    between atoms: O_1  and  C_11
REMARK    2  A    between atoms: O_2  and  C_13
REMARK    3  A    between atoms: O_5  and  C_27
REMARK    4  A    between atoms: O_5  and  C_30
REMARK    5  A    between atoms: N_6  and  C_10
REMARK    6  A    between atoms: N_8  and  C_19
REMARK    7  A    between atoms: C_9  and  C_14
REMARK    8  A    between atoms: C_17  and  C_20
REMARK                            x       y       z     vdW  Elec       q    Type
REMARK                         _______ _______ _______ _____ _____    ______ ____
ROOT
ATOM      9  C   UNL     1      13.943   9.148  19.244  0.00  0.00    +0.046 C 
ATOM     10  C   UNL     1      12.778   8.916  20.233  0.00  0.00    +0.112 C 
ATOM     11  C   UNL     1      11.544   8.901  19.332  0.00  0.00    +0.164 C 
ATOM     12  C   UNL     1      13.426   8.672  17.862  0.00  0.00    +0.044 C 
ATOM     13  C   UNL     1      12.018   8.129  18.107  0.00  0.00    +0.145 C 
ENDROOT
BRANCH   9  14
ATOM      7  N   UNL     1      16.690   6.565  19.649  0.00  0.00    -0.240 NA
ATOM     14  C   UNL     1      15.235   8.495  19.685  0.00  0.00    -0.024 A 
ATOM     15  C   UNL     1      16.137   9.168  20.502  0.00  0.00    +0.009 A 
ATOM     16  C   UNL     1      15.555   7.207  19.289  0.00  0.00    +0.116 A 
ATOM     18  C   UNL     1      17.315   8.541  20.892  0.00  0.00    +0.044 A 
ATOM     19  C   UNL     1      17.542   7.250  20.443  0.00  0.00    +0.121 A 
BRANCH  19   8
ATOM      4  O   UNL     1      20.961   5.181  21.749  0.00  0.00    -0.377 OA
ATOM      8  N   UNL     1      18.731   6.632  20.845  0.00  0.00    -0.311 N 
ATOM     21  C   UNL     1      19.113   5.373  20.190  0.00  0.00    +0.134 C 
ATOM     22  C   UNL     1      19.208   6.790  22.223  0.00  0.00    +0.134 C 
ATOM     23  C   UNL     1      20.609   5.135  20.366  0.00  0.00    +0.178 C 
ATOM     24  C   UNL     1      20.698   6.475  22.291  0.00  0.00    +0.178 C 
ENDBRANCH  19   8
ENDBRANCH   9  14
BRANCH  10   6
ATOM      3  O   UNL     1      11.311   8.814  22.699  0.00  0.00    -0.270 OA
ATOM      6  N   UNL     1      12.703   9.950  21.233  0.00  0.00    -0.305 N 
ATOM     17  C   UNL     1      11.964   9.810  22.400  0.00  0.00    +0.244 C 
ATOM     31  H   UNL     1      13.200  10.813  21.039  0.00  0.00    +0.149 HD
BRANCH  17  20
ATOM     20  C   UNL     1      11.967  10.979  23.317  0.00  0.00    +0.040 A 
ATOM     25  C   UNL     1      12.984  11.929  23.234  0.00  0.00    +0.058 A 
ATOM     26  C   UNL     1      10.950  11.126  24.260  0.00  0.00    +0.013 A 
ATOM     27  C   UNL     1      12.985  13.026  24.095  0.00  0.00    +0.121 A 
ATOM     28  C   UNL     1      10.950  12.223  25.122  0.00  0.00    +0.004 A 
ATOM     29  C   UNL     1      11.968  13.174  25.038  0.00  0.00    +0.045 A 
BRANCH  27   5
ATOM      5  O   UNL     1      13.978  13.954  24.015  0.00  0.00    -0.495 OA
ATOM     30  C   UNL     1      14.179  14.787  25.157  0.00  0.00    +0.277 C 
ENDBRANCH  27   5
ENDBRANCH  17  20
ENDBRANCH  10   6
BRANCH  11   1
ATOM      1  O   UNL     1      10.441   8.260  19.943  0.00  0.00    -0.387 OA
ATOM     32  H   UNL     1      10.424   7.341  19.626  0.00  0.00    +0.210 HD
ENDBRANCH  11   1
BRANCH  13   2
ATOM      2  O   UNL     1      12.110   6.736  18.385  0.00  0.00    -0.389 OA
ATOM     33  H   UNL     1      11.300   6.316  18.046  0.00  0.00    +0.210 HD
ENDBRANCH  13   2
TORSDOF 7
ENDMDL
MODEL 4
REMARK VINA RESULT:      -7.0      1.509      2.193
REMARK  Name = 71694004
REMARK  8 active torsions:
REMARK  status: ('A' for Active; 'I' for Inactive)
REMARK    1  A    between atoms: O_1  and  C_11
REMARK    2  A    between atoms: O_2  and  C_13
REMARK    3  A    between atoms: O_5  and  C_27
REMARK    4  A    between atoms: O_5  and  C_30
REMARK    5  A    between atoms: N_6  and  C_10
REMARK    6  A    between atoms: N_8  and  C_19
REMARK    7  A    between atoms: C_9  and  C_14
REMARK    8  A    between atoms: C_17  and  C_20
REMARK                            x       y       z     vdW  Elec       q    Type
REMARK                         _______ _______ _______ _____ _____    ______ ____
ROOT
ATOM      9  C   UNL     1      13.224   9.774  19.992  0.00  0.00    +0.046 C 
ATOM     10  C   UNL     1      13.412   8.273  19.675  0.00  0.00    +0.112 C 
ATOM     11  C   UNL     1      12.323   7.595  20.506  0.00  0.00    +0.164 C 
ATOM     12  C   UNL     1      11.756   9.926  20.467  0.00  0.00    +0.044 C 
ATOM     13  C   UNL     1      11.133   8.535  20.350  0.00  0.00    +0.145 C 
ENDROOT
BRANCH   9  14
ATOM      7  N   UNL     1      14.337  10.896  16.545  0.00  0.00    -0.240 NA
ATOM     14  C   UNL     1      13.603  10.676  18.837  0.00  0.00    -0.024 A 
ATOM     15  C   UNL     1      13.580  12.060  18.970  0.00  0.00    +0.009 A 
ATOM     16  C   UNL     1      13.985  10.149  17.615  0.00  0.00    +0.116 A 
ATOM     18  C   UNL     1      13.935  12.863  17.892  0.00  0.00    +0.044 A 
ATOM     19  C   UNL     1      14.302  12.237  16.712  0.00  0.00    +0.121 A 
BRANCH  19   8
ATOM      4  O   UNL     1      15.381  14.474  13.319  0.00  0.00    -0.377 OA
ATOM      8  N   UNL     1      14.658  13.058  15.635  0.00  0.00    -0.311 N 
ATOM     21  C   UNL     1      13.718  13.174  14.513  0.00  0.00    +0.134 C 
ATOM     22  C   UNL     1      16.071  13.237  15.288  0.00  0.00    +0.134 C 
ATOM     23  C   UNL     1      14.012  14.446  13.724  0.00  0.00    +0.178 C 
ATOM     24  C   UNL     1      16.241  14.504  14.457  0.00  0.00    +0.178 C 
ENDBRANCH  19   8
ENDBRANCH   9  14
BRANCH  10   6
ATOM      3  O   UNL     1      15.231   6.828  17.987  0.00  0.00    -0.270 OA
ATOM      6  N   UNL     1      14.728   7.806  20.029  0.00  0.00    -0.305 N 
ATOM     17  C   UNL     1      15.539   7.112  19.141  0.00  0.00    +0.244 C 
ATOM     31  H   UNL     1      15.039   7.985  20.978  0.00  0.00    +0.149 HD
BRANCH  17  20
ATOM     20  C   UNL     1      16.858   6.676  19.669  0.00  0.00    +0.040 A 
ATOM     25  C   UNL     1      17.414   7.318  20.775  0.00  0.00    +0.058 A 
ATOM     26  C   UNL     1      17.539   5.623  19.058  0.00  0.00    +0.013 A 
ATOM     27  C   UNL     1      18.652   6.907  21.270  0.00  0.00    +0.121 A 
ATOM     28  C   UNL     1      18.777   5.212  19.552  0.00  0.00    +0.004 A 
ATOM     29  C   UNL     1      19.333   5.853  20.659  0.00  0.00    +0.045 A 
BRANCH  27   5
ATOM      5  O   UNL     1      19.196   7.532  22.349  0.00  0.00    -0.495 OA
ATOM     30  C   UNL     1      20.205   6.823  23.068  0.00  0.00    +0.277 C 
ENDBRANCH  27   5
ENDBRANCH  17  20
ENDBRANCH  10   6
BRANCH  11   1
ATOM      1  O   UNL     1      12.015   6.299  20.030  0.00  0.00    -0.387 OA
ATOM     32  H   UNL     1      11.048   6.240  19.947  0.00  0.00    +0.210 HD
ENDBRANCH  11   1
BRANCH  13   2
ATOM      2  O   UNL     1      10.546   8.405  19.060  0.00  0.00    -0.389 OA
ATOM     33  H   UNL     1      10.043   9.219  18.885  0.00  0.00    +0.210 HD
ENDBRANCH  13   2
TORSDOF 7
ENDMDL
MODEL 5
REMARK VINA RESULT:      -6.6     12.423     15.555
REMARK  Name = 71694004
REMARK  8 active torsions:
REMARK  status: ('A' for Active; 'I' for Inactive)
REMARK    1  A    between atoms: O_1  and  C_11
REMARK    2  A    between atoms: O_2  and  C_13
REMARK    3  A    between atoms: O_5  and  C_27
REMARK    4  A    between atoms: O_5  and  C_30
REMARK    5  A    between atoms: N_6  and  C_10
REMARK    6  A    between atoms: N_8  and  C_19
REMARK    7  A    between atoms: C_9  and  C_14
REMARK    8  A    between atoms: C_17  and  C_20
REMARK                            x       y       z     vdW  Elec       q    Type
REMARK                         _______ _______ _______ _____ _____    ______ ____
ROOT
ATOM      9  C   UNL     1      10.358   6.190   4.872  0.00  0.00    +0.046 C 
ATOM     10  C   UNL     1      11.434   6.172   5.982  0.00  0.00    +0.112 C 
ATOM     11  C   UNL     1      10.625   5.946   7.258  0.00  0.00    +0.164 C 
ATOM     12  C   UNL     1       9.145   5.414   5.446  0.00  0.00    +0.044 C 
ATOM     13  C   UNL     1       9.577   4.926   6.828  0.00  0.00    +0.145 C 
ENDROOT
BRANCH   9  14
ATOM      7  N   UNL     1      11.653   6.122   1.308  0.00  0.00    -0.240 NA
ATOM     14  C   UNL     1      10.865   5.663   3.547  0.00  0.00    -0.024 A 
ATOM     15  C   UNL     1      11.008   4.298   3.325  0.00  0.00    +0.009 A 
ATOM     16  C   UNL     1      11.198   6.525   2.516  0.00  0.00    +0.116 A 
ATOM     18  C   UNL     1      11.474   3.843   2.096  0.00  0.00    +0.044 A 
ATOM     19  C   UNL     1      11.780   4.788   1.130  0.00  0.00    +0.121 A 
BRANCH  19   8
ATOM      4  O   UNL     1      13.113   3.617  -2.682  0.00  0.00    -0.377 OA
ATOM      8  N   UNL     1      12.247   4.316  -0.102  0.00  0.00    -0.311 N 
ATOM     21  C   UNL     1      13.432   4.958  -0.686  0.00  0.00    +0.134 C 
ATOM     22  C   UNL     1      11.305   3.743  -1.070  0.00  0.00    +0.134 C 
ATOM     23  C   UNL     1      14.073   4.024  -1.706  0.00  0.00    +0.178 C 
ATOM     24  C   UNL     1      12.060   2.875  -2.070  0.00  0.00    +0.178 C 
ENDBRANCH  19   8
ENDBRANCH   9  14
BRANCH  10   6
ATOM      3  O   UNL     1      14.060   6.540   7.085  0.00  0.00    -0.270 OA
ATOM      6  N   UNL     1      12.183   7.402   6.030  0.00  0.00    -0.305 N 
ATOM     17  C   UNL     1      13.452   7.483   6.586  0.00  0.00    +0.244 C 
ATOM     31  H   UNL     1      11.731   8.229   5.657  0.00  0.00    +0.149 HD
BRANCH  17  20
ATOM     20  C   UNL     1      14.080   8.830   6.582  0.00  0.00    +0.040 A 
ATOM     25  C   UNL     1      15.422   8.973   6.231  0.00  0.00    +0.058 A 
ATOM     26  C   UNL     1      13.326   9.951   6.930  0.00  0.00    +0.013 A 
ATOM     27  C   UNL     1      16.011  10.238   6.227  0.00  0.00    +0.121 A 
ATOM     28  C   UNL     1      13.914  11.216   6.927  0.00  0.00    +0.004 A 
ATOM     29  C   UNL     1      15.257  11.359   6.575  0.00  0.00    +0.045 A 
BRANCH  27   5
ATOM      5  O   UNL     1      17.320  10.379   5.885  0.00  0.00    -0.495 OA
ATOM     30  C   UNL     1      18.156   9.231   6.031  0.00  0.00    +0.277 C 
ENDBRANCH  27   5
ENDBRANCH  17  20
ENDBRANCH  10   6
BRANCH  11   1
ATOM      1  O   UNL     1      11.419   5.446   8.316  0.00  0.00    -0.387 OA
ATOM     32  H   UNL     1      10.858   4.860   8.852  0.00  0.00    +0.210 HD
ENDBRANCH  11   1
BRANCH  13   2
ATOM      2  O   UNL     1      10.152   3.630   6.695  0.00  0.00    -0.389 OA
ATOM     33  H   UNL     1      11.034   3.658   7.102  0.00  0.00    +0.210 HD
ENDBRANCH  13   2
TORSDOF 7
ENDMDL
MODEL 6
REMARK VINA RESULT:      -6.6      3.481      6.530
REMARK  Name = 71694004
REMARK  8 active torsions:
REMARK  status: ('A' for Active; 'I' for Inactive)
REMARK    1  A    between atoms: O_1  and  C_11
REMARK    2  A    between atoms: O_2  and  C_13
REMARK    3  A    between atoms: O_5  and  C_27
REMARK    4  A    between atoms: O_5  and  C_30
REMARK    5  A    between atoms: N_6  and  C_10
REMARK    6  A    between atoms: N_8  and  C_19
REMARK    7  A    between atoms: C_9  and  C_14
REMARK    8  A    between atoms: C_17  and  C_20
REMARK                            x       y       z     vdW  Elec       q    Type
REMARK                         _______ _______ _______ _____ _____    ______ ____
ROOT
ATOM      9  C   UNL     1      12.339   8.688  18.943  0.00  0.00    +0.046 C 
ATOM     10  C   UNL     1      12.942   9.199  20.271  0.00  0.00    +0.112 C 
ATOM     11  C   UNL     1      12.981   7.948  21.148  0.00  0.00    +0.164 C 
ATOM     12  C   UNL     1      12.618   7.163  18.911  0.00  0.00    +0.044 C 
ATOM     13  C   UNL     1      13.417   6.857  20.177  0.00  0.00    +0.145 C 
ENDROOT
BRANCH   9  14
ATOM      7  N   UNL     1      12.754   9.819  15.347  0.00  0.00    -0.240 NA
ATOM     14  C   UNL     1      12.849   9.441  17.733  0.00  0.00    -0.024 A 
ATOM     15  C   UNL     1      13.841  10.407  17.854  0.00  0.00    +0.009 A 
ATOM     16  C   UNL     1      12.343   9.186  16.469  0.00  0.00    +0.116 A 
ATOM     18  C   UNL     1      14.290  11.081  16.723  0.00  0.00    +0.044 A 
ATOM     19  C   UNL     1      13.719  10.752  15.504  0.00  0.00    +0.121 A 
BRANCH  19   8
ATOM      4  O   UNL     1      15.239  12.989  12.284  0.00  0.00    -0.377 OA
ATOM      8  N   UNL     1      14.182  11.438  14.375  0.00  0.00    -0.311 N 
ATOM     21  C   UNL     1      15.627  11.441  14.110  0.00  0.00    +0.134 C 
ATOM     22  C   UNL     1      13.454  12.612  13.883  0.00  0.00    +0.134 C 
ATOM     23  C   UNL     1      15.880  11.765  12.642  0.00  0.00    +0.178 C 
ATOM     24  C   UNL     1      13.824  12.874  12.428  0.00  0.00    +0.178 C 
ENDBRANCH  19   8
ENDBRANCH   9  14
BRANCH  10   6
ATOM      3  O   UNL     1      13.853  11.243  22.071  0.00  0.00    -0.270 OA
ATOM      6  N   UNL     1      12.145  10.244  20.860  0.00  0.00    -0.305 N 
ATOM     17  C   UNL     1      12.676  11.193  21.724  0.00  0.00    +0.244 C 
ATOM     31  H   UNL     1      11.156  10.249  20.637  0.00  0.00    +0.149 HD
BRANCH  17  20
ATOM     20  C   UNL     1      11.717  12.188  22.268  0.00  0.00    +0.040 A 
ATOM     25  C   UNL     1      11.421  12.199  23.631  0.00  0.00    +0.058 A 
ATOM     26  C   UNL     1      11.113  13.113  21.416  0.00  0.00    +0.013 A 
ATOM     27  C   UNL     1      10.521  13.135  24.142  0.00  0.00    +0.121 A 
ATOM     28  C   UNL     1      10.212  14.048  21.925  0.00  0.00    +0.004 A 
ATOM     29  C   UNL     1       9.917  14.059  23.289  0.00  0.00    +0.045 A 
BRANCH  27   5
ATOM      5  O   UNL     1      10.231  13.146  25.471  0.00  0.00    -0.495 OA
ATOM     30  C   UNL     1      10.769  14.220  26.242  0.00  0.00    +0.277 C 
ENDBRANCH  27   5
ENDBRANCH  17  20
ENDBRANCH  10   6
BRANCH  11   1
ATOM      1  O   UNL     1      13.897   8.072  22.219  0.00  0.00    -0.387 OA
ATOM     32  H   UNL     1      13.512   7.618  22.988  0.00  0.00    +0.210 HD
ENDBRANCH  11   1
BRANCH  13   2
ATOM      2  O   UNL     1      14.805   6.965  19.877  0.00  0.00    -0.389 OA
ATOM     33  H   UNL     1      15.297   6.616  20.640  0.00  0.00    +0.210 HD
ENDBRANCH  13   2
TORSDOF 7
ENDMDL
MODEL 7
REMARK VINA RESULT:      -6.5      1.982      8.030
REMARK  Name = 71694004
REMARK  8 active torsions:
REMARK  status: ('A' for Active; 'I' for Inactive)
REMARK    1  A    between atoms: O_1  and  C_11
REMARK    2  A    between atoms: O_2  and  C_13
REMARK    3  A    between atoms: O_5  and  C_27
REMARK    4  A    between atoms: O_5  and  C_30
REMARK    5  A    between atoms: N_6  and  C_10
REMARK    6  A    between atoms: N_8  and  C_19
REMARK    7  A    between atoms: C_9  and  C_14
REMARK    8  A    between atoms: C_17  and  C_20
REMARK                            x       y       z     vdW  Elec       q    Type
REMARK                         _______ _______ _______ _____ _____    ______ ____
ROOT
ATOM      9  C   UNL     1      14.249   7.382  19.421  0.00  0.00    +0.046 C 
ATOM     10  C   UNL     1      13.857   8.873  19.521  0.00  0.00    +0.112 C 
ATOM     11  C   UNL     1      12.377   8.828  19.898  0.00  0.00    +0.164 C 
ATOM     12  C   UNL     1      13.216   6.614  20.286  0.00  0.00    +0.044 C 
ATOM     13  C   UNL     1      12.310   7.681  20.900  0.00  0.00    +0.145 C 
ENDROOT
BRANCH   9  14
ATOM      7  N   UNL     1      17.755   5.936  19.367  0.00  0.00    -0.240 NA
ATOM     14  C   UNL     1      15.692   7.121  19.796  0.00  0.00    -0.024 A 
ATOM     15  C   UNL     1      16.285   7.779  20.868  0.00  0.00    +0.009 A 
ATOM     16  C   UNL     1      16.463   6.218  19.084  0.00  0.00    +0.116 A 
ATOM     18  C   UNL     1      17.612   7.518  21.190  0.00  0.00    +0.044 A 
ATOM     19  C   UNL     1      18.297   6.596  20.415  0.00  0.00    +0.121 A 
BRANCH  19   8
ATOM      4  O   UNL     1      22.215   5.642  21.606  0.00  0.00    -0.377 OA
ATOM      8  N   UNL     1      19.632   6.342  20.751  0.00  0.00    -0.311 N 
ATOM     21  C   UNL     1      20.190   5.023  20.423  0.00  0.00    +0.134 C 
ATOM     22  C   UNL     1      20.231   7.003  21.915  0.00  0.00    +0.134 C 
ATOM     23  C   UNL     1      21.712   5.104  20.382  0.00  0.00    +0.178 C 
ATOM     24  C   UNL     1      21.751   6.977  21.795  0.00  0.00    +0.178 C 
ENDBRANCH  19   8
ENDBRANCH   9  14
BRANCH  10   6
ATOM      3  O   UNL     1      15.489  11.205  19.132  0.00  0.00    -0.270 OA
ATOM      6  N   UNL     1      14.076   9.574  18.281  0.00  0.00    -0.305 N 
ATOM     17  C   UNL     1      14.886  10.698  18.190  0.00  0.00    +0.244 C 
ATOM     31  H   UNL     1      13.588   9.224  17.464  0.00  0.00    +0.149 HD
BRANCH  17  20
ATOM     20  C   UNL     1      14.986  11.321  16.845  0.00  0.00    +0.040 A 
ATOM     25  C   UNL     1      14.013  11.059  15.881  0.00  0.00    +0.058 A 
ATOM     26  C   UNL     1      16.053  12.170  16.548  0.00  0.00    +0.013 A 
ATOM     27  C   UNL     1      14.108  11.645  14.618  0.00  0.00    +0.121 A 
ATOM     28  C   UNL     1      16.148  12.756  15.286  0.00  0.00    +0.004 A 
ATOM     29  C   UNL     1      15.175  12.494  14.321  0.00  0.00    +0.045 A 
BRANCH  27   5
ATOM      5  O   UNL     1      13.160  11.390  13.676  0.00  0.00    -0.495 OA
ATOM     30  C   UNL     1      12.478  12.515  13.122  0.00  0.00    +0.277 C 
ENDBRANCH  27   5
ENDBRANCH  17  20
ENDBRANCH  10   6
BRANCH  11   1
ATOM      1  O   UNL     1      11.934  10.039  20.480  0.00  0.00    -0.387 OA
ATOM     32  H   UNL     1      11.300  10.445  19.864  0.00  0.00    +0.210 HD
ENDBRANCH  11   1
BRANCH  13   2
ATOM      2  O   UNL     1      12.851   8.069  22.158  0.00  0.00    -0.389 OA
ATOM     33  H   UNL     1      13.609   8.652  21.983  0.00  0.00    +0.210 HD
ENDBRANCH  13   2
TORSDOF 7
ENDMDL
MODEL 8
REMARK VINA RESULT:      -6.5     13.940     17.808
REMARK  Name = 71694004
REMARK  8 active torsions:
REMARK  status: ('A' for Active; 'I' for Inactive)
REMARK    1  A    between atoms: O_1  and  C_11
REMARK    2  A    between atoms: O_2  and  C_13
REMARK    3  A    between atoms: O_5  and  C_27
REMARK    4  A    between atoms: O_5  and  C_30
REMARK    5  A    between atoms: N_6  and  C_10
REMARK    6  A    between atoms: N_8  and  C_19
REMARK    7  A    between atoms: C_9  and  C_14
REMARK    8  A    between atoms: C_17  and  C_20
REMARK                            x       y       z     vdW  Elec       q    Type
REMARK                         _______ _______ _______ _____ _____    ______ ____
ROOT
ATOM      9  C   UNL     1       9.604   5.146   4.772  0.00  0.00    +0.046 C 
ATOM     10  C   UNL     1       9.437   6.605   5.254  0.00  0.00    +0.112 C 
ATOM     11  C   UNL     1       8.978   6.451   6.703  0.00  0.00    +0.164 C 
ATOM     12  C   UNL     1       9.816   4.299   6.054  0.00  0.00    +0.044 C 
ATOM     13  C   UNL     1       9.827   5.294   7.214  0.00  0.00    +0.145 C 
ENDROOT
BRANCH   9  14
ATOM      7  N   UNL     1      12.541   5.953   2.513  0.00  0.00    -0.240 NA
ATOM     14  C   UNL     1      10.691   4.985   3.732  0.00  0.00    -0.024 A 
ATOM     15  C   UNL     1      10.856   3.787   3.045  0.00  0.00    +0.009 A 
ATOM     16  C   UNL     1      11.551   6.028   3.431  0.00  0.00    +0.116 A 
ATOM     18  C   UNL     1      11.863   3.670   2.093  0.00  0.00    +0.044 A 
ATOM     19  C   UNL     1      12.671   4.773   1.866  0.00  0.00    +0.121 A 
BRANCH  19   8
ATOM      4  O   UNL     1      15.739   4.114  -0.932  0.00  0.00    -0.377 OA
ATOM      8  N   UNL     1      13.679   4.640   0.905  0.00  0.00    -0.311 N 
ATOM     21  C   UNL     1      13.469   3.686  -0.192  0.00  0.00    +0.134 C 
ATOM     22  C   UNL     1      15.079   4.867   1.278  0.00  0.00    +0.134 C 
ATOM     23  C   UNL     1      14.380   4.040  -1.363  0.00  0.00    +0.178 C 
ATOM     24  C   UNL     1      15.904   5.156   0.028  0.00  0.00    +0.178 C 
ENDBRANCH  19   8
ENDBRANCH   9  14
BRANCH  10   6
ATOM      3  O   UNL     1       9.276   9.455   4.939  0.00  0.00    -0.270 OA
ATOM      6  N   UNL     1       8.478   7.330   4.459  0.00  0.00    -0.305 N 
ATOM     17  C   UNL     1       8.479   8.716   4.367  0.00  0.00    +0.244 C 
ATOM     31  H   UNL     1       7.773   6.784   3.978  0.00  0.00    +0.149 HD
BRANCH  17  20
ATOM     20  C   UNL     1       7.407   9.314   3.529  0.00  0.00    +0.040 A 
ATOM     25  C   UNL     1       6.384  10.049   4.126  0.00  0.00    +0.058 A 
ATOM     26  C   UNL     1       7.426   9.140   2.145  0.00  0.00    +0.013 A 
ATOM     27  C   UNL     1       5.378  10.611   3.338  0.00  0.00    +0.121 A 
ATOM     28  C   UNL     1       6.421   9.700   1.357  0.00  0.00    +0.004 A 
ATOM     29  C   UNL     1       5.397  10.437   1.954  0.00  0.00    +0.045 A 
BRANCH  27   5
ATOM      5  O   UNL     1       4.379  11.329   3.919  0.00  0.00    -0.495 OA
ATOM     30  C   UNL     1       4.742  12.191   4.997  0.00  0.00    +0.277 C 
ENDBRANCH  27   5
ENDBRANCH  17  20
ENDBRANCH  10   6
BRANCH  11   1
ATOM      1  O   UNL     1       9.201   7.623   7.464  0.00  0.00    -0.387 OA
ATOM     32  H   UNL     1       9.234   7.362   8.400  0.00  0.00    +0.210 HD
ENDBRANCH  11   1
BRANCH  13   2
ATOM      2  O   UNL     1      11.169   5.709   7.447  0.00  0.00    -0.389 OA
ATOM     33  H   UNL     1      11.428   5.381   8.325  0.00  0.00    +0.210 HD
ENDBRANCH  13   2
TORSDOF 7
ENDMDL
MODEL 9
REMARK VINA RESULT:      -6.4     27.133     29.848
REMARK  Name = 71694004
REMARK  8 active torsions:
REMARK  status: ('A' for Active; 'I' for Inactive)
REMARK    1  A    between atoms: O_1  and  C_11
REMARK    2  A    between atoms: O_2  and  C_13
REMARK    3  A    between atoms: O_5  and  C_27
REMARK    4  A    between atoms: O_5  and  C_30
REMARK    5  A    between atoms: N_6  and  C_10
REMARK    6  A    between atoms: N_8  and  C_19
REMARK    7  A    between atoms: C_9  and  C_14
REMARK    8  A    between atoms: C_17  and  C_20
REMARK                            x       y       z     vdW  Elec       q    Type
REMARK                         _______ _______ _______ _____ _____    ______ ____
ROOT
ATOM      9  C   UNL     1      -5.716 -10.379  17.068  0.00  0.00    +0.046 C 
ATOM     10  C   UNL     1      -5.263 -11.458  16.058  0.00  0.00    +0.112 C 
ATOM     11  C   UNL     1      -4.405 -12.398  16.903  0.00  0.00    +0.164 C 
ATOM     12  C   UNL     1      -5.615 -11.040  18.467  0.00  0.00    +0.044 C 
ATOM     13  C   UNL     1      -5.172 -12.481  18.217  0.00  0.00    +0.145 C 
ENDROOT
BRANCH   9  14
ATOM      7  N   UNL     1      -8.795  -9.350  15.107  0.00  0.00    -0.240 NA
ATOM     14  C   UNL     1      -7.078  -9.802  16.748  0.00  0.00    -0.024 A 
ATOM     15  C   UNL     1      -7.855  -9.206  17.735  0.00  0.00    +0.009 A 
ATOM     16  C   UNL     1      -7.589  -9.848  15.462  0.00  0.00    +0.116 A 
ATOM     18  C   UNL     1      -9.102  -8.682  17.411  0.00  0.00    +0.044 A 
ATOM     19  C   UNL     1      -9.521  -8.779  16.094  0.00  0.00    +0.121 A 
BRANCH  19   8
ATOM      4  O   UNL     1     -13.363  -7.205  15.425  0.00  0.00    -0.377 OA
ATOM      8  N   UNL     1     -10.778  -8.247  15.781  0.00  0.00    -0.311 N 
ATOM     21  C   UNL     1     -11.132  -6.935  16.339  0.00  0.00    +0.134 C 
ATOM     22  C   UNL     1     -11.909  -9.144  15.527  0.00  0.00    +0.134 C 
ATOM     23  C   UNL     1     -12.253  -6.311  15.514  0.00  0.00    +0.178 C 
ATOM     24  C   UNL     1     -12.989  -8.403  14.747  0.00  0.00    +0.178 C 
ENDBRANCH  19   8
ENDBRANCH   9  14
BRANCH  10   6
ATOM      3  O   UNL     1      -5.595 -12.066  13.271  0.00  0.00    -0.270 OA
ATOM      6  N   UNL     1      -4.521 -10.893  14.960  0.00  0.00    -0.305 N 
ATOM     17  C   UNL     1      -4.754 -11.251  13.639  0.00  0.00    +0.244 C 
ATOM     31  H   UNL     1      -3.792 -10.229  15.192  0.00  0.00    +0.149 HD
BRANCH  17  20
ATOM     20  C   UNL     1      -3.886 -10.598  12.625  0.00  0.00    +0.040 A 
ATOM     25  C   UNL     1      -4.457  -9.968  11.519  0.00  0.00    +0.058 A 
ATOM     26  C   UNL     1      -2.499 -10.614  12.779  0.00  0.00    +0.013 A 
ATOM     27  C   UNL     1      -3.641  -9.355  10.568  0.00  0.00    +0.121 A 
ATOM     28  C   UNL     1      -1.683 -10.002  11.828  0.00  0.00    +0.004 A 
ATOM     29  C   UNL     1      -2.255  -9.371  10.723  0.00  0.00    +0.045 A 
BRANCH  27   5
ATOM      5  O   UNL     1      -4.197  -8.740   9.488  0.00  0.00    -0.495 OA
ATOM     30  C   UNL     1      -5.557  -9.056   9.191  0.00  0.00    +0.277 C 
ENDBRANCH  27   5
ENDBRANCH  17  20
ENDBRANCH  10   6
BRANCH  11   1
ATOM      1  O   UNL     1      -4.266 -13.676  16.312  0.00  0.00    -0.387 OA
ATOM     32  H   UNL     1      -4.778 -14.304  16.849  0.00  0.00    +0.210 HD
ENDBRANCH  11   1
BRANCH  13   2
ATOM      2  O   UNL     1      -6.331 -13.297  18.081  0.00  0.00    -0.389 OA
ATOM     33  H   UNL     1      -7.041 -12.887  18.604  0.00  0.00    +0.210 HD
ENDBRANCH  13   2
TORSDOF 7
ENDMDL
MODEL 10
REMARK VINA RESULT:      -6.4     13.650     17.848
REMARK  Name = 71694004
REMARK  8 active torsions:
REMARK  status: ('A' for Active; 'I' for Inactive)
REMARK    1  A    between atoms: O_1  and  C_11
REMARK    2  A    between atoms: O_2  and  C_13
REMARK    3  A    between atoms: O_5  and  C_27
REMARK    4  A    between atoms: O_5  and  C_30
REMARK    5  A    between atoms: N_6  and  C_10
REMARK    6  A    between atoms: N_8  and  C_19
REMARK    7  A    between atoms: C_9  and  C_14
REMARK    8  A    between atoms: C_17  and  C_20
REMARK                            x       y       z     vdW  Elec       q    Type
REMARK                         _______ _______ _______ _____ _____    ______ ____
ROOT
ATOM      9  C   UNL     1       9.608   5.216   5.062  0.00  0.00    +0.046 C 
ATOM     10  C   UNL     1       9.458   6.678   5.540  0.00  0.00    +0.112 C 
ATOM     11  C   UNL     1       9.077   6.532   7.013  0.00  0.00    +0.164 C 
ATOM     12  C   UNL     1       9.892   4.380   6.336  0.00  0.00    +0.044 C 
ATOM     13  C   UNL     1       9.958   5.383   7.487  0.00  0.00    +0.145 C 
ENDROOT
BRANCH   9  14
ATOM      7  N   UNL     1      12.458   6.000   2.686  0.00  0.00    -0.240 NA
ATOM     14  C   UNL     1      10.639   5.053   3.966  0.00  0.00    -0.024 A 
ATOM     15  C   UNL     1      10.735   3.871   3.240  0.00  0.00    +0.009 A 
ATOM     16  C   UNL     1      11.516   6.078   3.653  0.00  0.00    +0.116 A 
ATOM     18  C   UNL     1      11.692   3.751   2.239  0.00  0.00    +0.044 A 
ATOM     19  C   UNL     1      12.522   4.836   2.003  0.00  0.00    +0.121 A 
BRANCH  19   8
ATOM      4  O   UNL     1      15.453   4.177  -0.939  0.00  0.00    -0.377 OA
ATOM      8  N   UNL     1      13.479   4.702   0.991  0.00  0.00    -0.311 N 
ATOM     21  C   UNL     1      13.248   3.694  -0.053  0.00  0.00    +0.134 C 
ATOM     22  C   UNL     1      14.888   4.997   1.273  0.00  0.00    +0.134 C 
ATOM     23  C   UNL     1      14.076   4.033  -1.287  0.00  0.00    +0.178 C 
ATOM     24  C   UNL     1      15.629   5.265  -0.032  0.00  0.00    +0.178 C 
ENDBRANCH  19   8
ENDBRANCH   9  14
BRANCH  10   6
ATOM      3  O   UNL     1       9.672   9.344   4.496  0.00  0.00    -0.270 OA
ATOM      6  N   UNL     1       8.455   7.392   4.793  0.00  0.00    -0.305 N 
ATOM     17  C   UNL     1       8.650   8.685   4.326  0.00  0.00    +0.244 C 
ATOM     31  H   UNL     1       7.574   6.916   4.636  0.00  0.00    +0.149 HD
BRANCH  17  20
ATOM     20  C   UNL     1       7.508   9.293   3.595  0.00  0.00    +0.040 A 
ATOM     25  C   UNL     1       7.401   9.135   2.214  0.00  0.00    +0.058 A 
ATOM     26  C   UNL     1       6.542  10.020   4.292  0.00  0.00    +0.013 A 
ATOM     27  C   UNL     1       6.328   9.706   1.528  0.00  0.00    +0.121 A 
ATOM     28  C   UNL     1       5.470  10.591   3.607  0.00  0.00    +0.004 A 
ATOM     29  C   UNL     1       5.362  10.433   2.225  0.00  0.00    +0.045 A 
BRANCH  27   5
ATOM      5  O   UNL     1       6.222   9.554   0.180  0.00  0.00    -0.495 OA
ATOM     30  C   UNL     1       4.927   9.250  -0.338  0.00  0.00    +0.277 C 
ENDBRANCH  27   5
ENDBRANCH  17  20
ENDBRANCH  10   6
BRANCH  11   1
ATOM      1  O   UNL     1       9.334   7.710   7.753  0.00  0.00    -0.387 OA
ATOM     32  H   UNL     1       9.934   8.263   7.224  0.00  0.00    +0.210 HD
ENDBRANCH  11   1
BRANCH  13   2
ATOM      2  O   UNL     1      11.308   5.806   7.645  0.00  0.00    -0.389 OA
ATOM     33  H   UNL     1      11.832   5.383   6.943  0.00  0.00    +0.210 HD
ENDBRANCH  13   2
TORSDOF 7
ENDMDL
