MODEL 1
REMARK VINA RESULT:      -7.7      0.000      0.000
REMARK  Name = 11885280
REMARK  5 active torsions:
REMARK  status: ('A' for Active; 'I' for Inactive)
REMARK    1  A    between atoms: S_1  and  N_6
REMARK    2  A    between atoms: S_1  and  C_20
REMARK    3  A    between atoms: N_8  and  C_31
REMARK    4  A    between atoms: C_18  and  C_21
REMARK    5  A    between atoms: C_32  and  C_33
REMARK                            x       y       z     vdW  Elec       q    Type
REMARK                         _______ _______ _______ _____ _____    ______ ____
ROOT
ATOM      4  O   UNL     1     -14.901   9.230  20.030  0.00  0.00    -0.267 OA
ATOM      6  N   UNL     1     -11.455   9.592  16.446  0.00  0.00    -0.176 NA
ATOM      7  N   UNL     1     -12.680   9.455  19.356  0.00  0.00    -0.311 N 
ATOM      9  C   UNL     1     -11.837  11.481  18.034  0.00  0.00    +0.025 C 
ATOM     10  C   UNL     1     -10.277   9.681  18.634  0.00  0.00    +0.052 C 
ATOM     11  C   UNL     1     -10.504  11.189  18.709  0.00  0.00    +0.017 C 
ATOM     12  C   UNL     1     -11.807  11.037  16.563  0.00  0.00    +0.114 C 
ATOM     13  C   UNL     1     -10.190   9.247  17.159  0.00  0.00    +0.119 C 
ATOM     14  C   UNL     1     -12.957  10.798  18.829  0.00  0.00    +0.130 C 
ATOM     15  C   UNL     1     -11.387   8.926  19.341  0.00  0.00    +0.026 A 
ATOM     16  C   UNL     1     -11.135   7.747  19.931  0.00  0.00    +0.022 A 
ATOM     17  C   UNL     1     -13.755   8.780  19.966  0.00  0.00    +0.259 A 
ATOM     18  C   UNL     1     -13.449   7.445  20.588  0.00  0.00    +0.047 A 
ATOM     19  C   UNL     1     -12.185   6.996  20.558  0.00  0.00    +0.015 A 
ENDROOT
BRANCH  18  21
ATOM     21  C   UNL     1     -14.508   6.632  21.212  0.00  0.00    -0.013 A 
ATOM     24  C   UNL     1     -14.490   6.398  22.588  0.00  0.00    +0.010 A 
ATOM     25  C   UNL     1     -15.530   6.095  20.429  0.00  0.00    +0.010 A 
ATOM     29  C   UNL     1     -15.493   5.629  23.179  0.00  0.00    +0.024 A 
ATOM     30  C   UNL     1     -16.533   5.326  21.020  0.00  0.00    +0.024 A 
ATOM     31  C   UNL     1     -16.514   5.092  22.394  0.00  0.00    +0.033 A 
BRANCH  31   8
ATOM      5  O   UNL     1     -16.801   2.104  22.638  0.00  0.00    -0.276 OA
ATOM      8  N   UNL     1     -17.517   4.324  22.985  0.00  0.00    -0.286 N 
ATOM     32  C   UNL     1     -17.601   2.928  23.069  0.00  0.00    +0.214 C 
ATOM     33  C   UNL     1     -18.850   2.486  23.792  0.00  0.00    +0.109 C 
ATOM     34  H   UNL     1     -18.278   4.854  23.406  0.00  0.00    +0.155 HD
ENDBRANCH  31   8
ENDBRANCH  18  21
BRANCH   6   1
ATOM      1  S   UNL     1     -11.635   8.910  14.888  0.00  0.00    +0.061 S 
ATOM      2  O   UNL     1     -10.691   7.819  14.751  0.00  0.00    -0.153 OA
ATOM      3  O   UNL     1     -11.724   9.972  13.909  0.00  0.00    -0.153 OA
BRANCH   1  20
ATOM     20  C   UNL     1     -13.245   8.130  14.825  0.00  0.00    +0.105 A 
ATOM     22  C   UNL     1     -14.052   8.207  15.933  0.00  0.00    +0.028 A 
ATOM     23  C   UNL     1     -13.614   7.484  13.671  0.00  0.00    +0.028 A 
ATOM     26  C   UNL     1     -15.306   7.597  15.886  0.00  0.00    +0.002 A 
ATOM     27  C   UNL     1     -14.868   6.875  13.623  0.00  0.00    +0.002 A 
ATOM     28  C   UNL     1     -15.714   6.931  14.730  0.00  0.00    +0.000 A 
ENDBRANCH   1  20
ENDBRANCH   6   1
TORSDOF 4
ENDMDL
MODEL 2
REMARK VINA RESULT:      -7.6     26.965     30.389
REMARK  Name = 11885280
REMARK  5 active torsions:
REMARK  status: ('A' for Active; 'I' for Inactive)
REMARK    1  A    between atoms: S_1  and  N_6
REMARK    2  A    between atoms: S_1  and  C_20
REMARK    3  A    between atoms: N_8  and  C_31
REMARK    4  A    between atoms: C_18  and  C_21
REMARK    5  A    between atoms: C_32  and  C_33
REMARK                            x       y       z     vdW  Elec       q    Type
REMARK                         _______ _______ _______ _____ _____    ______ ____
ROOT
ATOM      4  O   UNL     1      15.466   5.962  20.080  0.00  0.00    -0.267 OA
ATOM      6  N   UNL     1      12.975   9.305  17.348  0.00  0.00    -0.176 NA
ATOM      7  N   UNL     1      14.324   7.986  19.882  0.00  0.00    -0.311 N 
ATOM      9  C   UNL     1      11.850   8.116  19.234  0.00  0.00    +0.025 C 
ATOM     10  C   UNL     1      13.106  10.181  19.672  0.00  0.00    +0.052 C 
ATOM     11  C   UNL     1      11.849   9.402  20.049  0.00  0.00    +0.017 C 
ATOM     12  C   UNL     1      11.828   8.431  17.729  0.00  0.00    +0.114 C 
ATOM     13  C   UNL     1      13.055  10.545  18.177  0.00  0.00    +0.119 C 
ATOM     14  C   UNL     1      13.064   7.272  19.638  0.00  0.00    +0.130 C 
ATOM     15  C   UNL     1      14.357   9.379  19.977  0.00  0.00    +0.026 A 
ATOM     16  C   UNL     1      15.496  10.004  20.316  0.00  0.00    +0.022 A 
ATOM     17  C   UNL     1      15.465   7.194  20.119  0.00  0.00    +0.259 A 
ATOM     18  C   UNL     1      16.735   7.925  20.462  0.00  0.00    +0.047 A 
ATOM     19  C   UNL     1      16.702   9.263  20.556  0.00  0.00    +0.015 A 
ENDROOT
BRANCH  18  21
ATOM     21  C   UNL     1      17.998   7.199  20.684  0.00  0.00    -0.013 A 
ATOM     24  C   UNL     1      18.898   7.643  21.654  0.00  0.00    +0.010 A 
ATOM     25  C   UNL     1      18.295   6.066  19.926  0.00  0.00    +0.010 A 
ATOM     29  C   UNL     1      20.094   6.956  21.863  0.00  0.00    +0.024 A 
ATOM     30  C   UNL     1      19.491   5.378  20.136  0.00  0.00    +0.024 A 
ATOM     31  C   UNL     1      20.390   5.824  21.103  0.00  0.00    +0.033 A 
BRANCH  31   8
ATOM      5  O   UNL     1      21.649   4.826  23.651  0.00  0.00    -0.276 OA
ATOM      8  N   UNL     1      21.585   5.136  21.315  0.00  0.00    -0.286 N 
ATOM     32  C   UNL     1      22.127   4.694  22.529  0.00  0.00    +0.214 C 
ATOM     33  C   UNL     1      23.444   3.987  22.330  0.00  0.00    +0.109 C 
ATOM     34  H   UNL     1      22.124   4.934  20.474  0.00  0.00    +0.155 HD
ENDBRANCH  31   8
ENDBRANCH  18  21
BRANCH   6   1
ATOM      1  S   UNL     1      13.214   9.522  15.668  0.00  0.00    +0.061 S 
ATOM      2  O   UNL     1      11.940   9.843  15.058  0.00  0.00    -0.153 OA
ATOM      3  O   UNL     1      14.057   8.459  15.166  0.00  0.00    -0.153 OA
BRANCH   1  20
ATOM     20  C   UNL     1      14.206  10.996  15.453  0.00  0.00    +0.105 A 
ATOM     22  C   UNL     1      15.415  11.071  16.101  0.00  0.00    +0.028 A 
ATOM     23  C   UNL     1      13.723  11.998  14.648  0.00  0.00    +0.028 A 
ATOM     26  C   UNL     1      16.188  12.220  15.935  0.00  0.00    +0.002 A 
ATOM     27  C   UNL     1      14.497  13.147  14.481  0.00  0.00    +0.002 A 
ATOM     28  C   UNL     1      15.729  13.259  15.125  0.00  0.00    +0.000 A 
ENDBRANCH   1  20
ENDBRANCH   6   1
TORSDOF 4
ENDMDL
MODEL 3
REMARK VINA RESULT:      -7.3      1.932      2.196
REMARK  Name = 11885280
REMARK  5 active torsions:
REMARK  status: ('A' for Active; 'I' for Inactive)
REMARK    1  A    between atoms: S_1  and  N_6
REMARK    2  A    between atoms: S_1  and  C_20
REMARK    3  A    between atoms: N_8  and  C_31
REMARK    4  A    between atoms: C_18  and  C_21
REMARK    5  A    between atoms: C_32  and  C_33
REMARK                            x       y       z     vdW  Elec       q    Type
REMARK                         _______ _______ _______ _____ _____    ______ ____
ROOT
ATOM      4  O   UNL     1     -12.776   9.722  21.087  0.00  0.00    -0.267 OA
ATOM      6  N   UNL     1     -12.382  10.793  16.234  0.00  0.00    -0.176 NA
ATOM      7  N   UNL     1     -11.561   9.733  19.096  0.00  0.00    -0.311 N 
ATOM      9  C   UNL     1     -10.887  11.897  17.902  0.00  0.00    +0.025 C 
ATOM     10  C   UNL     1     -10.250   9.727  16.944  0.00  0.00    +0.052 C 
ATOM     11  C   UNL     1      -9.707  11.081  17.391  0.00  0.00    +0.017 C 
ATOM     12  C   UNL     1     -11.926  12.101  16.787  0.00  0.00    +0.114 C 
ATOM     13  C   UNL     1     -11.248   9.929  15.789  0.00  0.00    +0.119 C 
ATOM     14  C   UNL     1     -11.478  11.200  19.133  0.00  0.00    +0.130 C 
ATOM     15  C   UNL     1     -10.918   8.999  18.096  0.00  0.00    +0.026 A 
ATOM     16  C   UNL     1     -10.910   7.658  18.146  0.00  0.00    +0.022 A 
ATOM     17  C   UNL     1     -12.228   9.109  20.168  0.00  0.00    +0.259 A 
ATOM     18  C   UNL     1     -12.231   7.605  20.178  0.00  0.00    +0.047 A 
ATOM     19  C   UNL     1     -11.582   6.953  19.201  0.00  0.00    +0.015 A 
ENDROOT
BRANCH  18  21
ATOM     21  C   UNL     1     -12.938   6.849  21.227  0.00  0.00    -0.013 A 
ATOM     24  C   UNL     1     -12.380   5.677  21.740  0.00  0.00    +0.010 A 
ATOM     25  C   UNL     1     -14.165   7.304  21.710  0.00  0.00    +0.010 A 
ATOM     29  C   UNL     1     -13.049   4.962  22.734  0.00  0.00    +0.024 A 
ATOM     30  C   UNL     1     -14.834   6.589  22.704  0.00  0.00    +0.024 A 
ATOM     31  C   UNL     1     -14.277   5.418  23.215  0.00  0.00    +0.033 A 
BRANCH  31   8
ATOM      5  O   UNL     1     -16.082   3.015  23.019  0.00  0.00    -0.276 OA
ATOM      8  N   UNL     1     -14.945   4.703  24.209  0.00  0.00    -0.286 N 
ATOM     32  C   UNL     1     -15.778   3.587  24.061  0.00  0.00    +0.214 C 
ATOM     33  C   UNL     1     -16.310   3.105  25.388  0.00  0.00    +0.109 C 
ATOM     34  H   UNL     1     -14.802   5.044  25.158  0.00  0.00    +0.155 HD
ENDBRANCH  31   8
ENDBRANCH  18  21
BRANCH   6   1
ATOM      1  S   UNL     1     -13.719  10.865  15.169  0.00  0.00    +0.061 S 
ATOM      2  O   UNL     1     -13.272  10.490  13.843  0.00  0.00    -0.153 OA
ATOM      3  O   UNL     1     -14.456  12.086  15.411  0.00  0.00    -0.153 OA
BRANCH   1  20
ATOM     20  C   UNL     1     -14.858   9.571  15.649  0.00  0.00    +0.105 A 
ATOM     22  C   UNL     1     -14.627   8.899  16.824  0.00  0.00    +0.028 A 
ATOM     23  C   UNL     1     -15.922   9.297  14.825  0.00  0.00    +0.028 A 
ATOM     26  C   UNL     1     -15.514   7.889  17.198  0.00  0.00    +0.002 A 
ATOM     27  C   UNL     1     -16.809   8.288  15.199  0.00  0.00    +0.002 A 
ATOM     28  C   UNL     1     -16.605   7.584  16.385  0.00  0.00    +0.000 A 
ENDBRANCH   1  20
ENDBRANCH   6   1
TORSDOF 4
ENDMDL
MODEL 4
REMARK VINA RESULT:      -7.2     26.799     30.539
REMARK  Name = 11885280
REMARK  5 active torsions:
REMARK  status: ('A' for Active; 'I' for Inactive)
REMARK    1  A    between atoms: S_1  and  N_6
REMARK    2  A    between atoms: S_1  and  C_20
REMARK    3  A    between atoms: N_8  and  C_31
REMARK    4  A    between atoms: C_18  and  C_21
REMARK    5  A    between atoms: C_32  and  C_33
REMARK                            x       y       z     vdW  Elec       q    Type
REMARK                         _______ _______ _______ _____ _____    ______ ____
ROOT
ATOM      4  O   UNL     1      12.075   7.850   2.127  0.00  0.00    -0.267 OA
ATOM      6  N   UNL     1      13.256   4.063  -0.892  0.00  0.00    -0.176 NA
ATOM      7  N   UNL     1      12.679   5.622   1.796  0.00  0.00    -0.311 N 
ATOM      9  C   UNL     1      14.917   4.938   0.754  0.00  0.00    +0.025 C 
ATOM     10  C   UNL     1      13.315   3.209   1.443  0.00  0.00    +0.052 C 
ATOM     11  C   UNL     1      14.760   3.676   1.590  0.00  0.00    +0.017 C 
ATOM     12  C   UNL     1      14.618   4.647  -0.726  0.00  0.00    +0.114 C 
ATOM     13  C   UNL     1      13.033   2.863  -0.030  0.00  0.00    +0.119 C 
ATOM     14  C   UNL     1      14.010   6.032   1.330  0.00  0.00    +0.130 C 
ATOM     15  C   UNL     1      12.346   4.271   1.929  0.00  0.00    +0.026 A 
ATOM     16  C   UNL     1      11.167   3.919   2.465  0.00  0.00    +0.022 A 
ATOM     17  C   UNL     1      11.803   6.650   2.196  0.00  0.00    +0.259 A 
ATOM     18  C   UNL     1      10.475   6.224   2.761  0.00  0.00    +0.047 A 
ATOM     19  C   UNL     1      10.218   4.913   2.881  0.00  0.00    +0.015 A 
ENDROOT
BRANCH  18  21
ATOM     21  C   UNL     1       9.465   7.216   3.168  0.00  0.00    -0.013 A 
ATOM     24  C   UNL     1       8.932   8.098   2.226  0.00  0.00    +0.010 A 
ATOM     25  C   UNL     1       9.039   7.276   4.495  0.00  0.00    +0.010 A 
ATOM     29  C   UNL     1       7.975   9.037   2.612  0.00  0.00    +0.024 A 
ATOM     30  C   UNL     1       8.082   8.215   4.881  0.00  0.00    +0.024 A 
ATOM     31  C   UNL     1       7.551   9.096   3.940  0.00  0.00    +0.033 A 
BRANCH  31   8
ATOM      5  O   UNL     1       4.902   9.808   2.698  0.00  0.00    -0.276 OA
ATOM      8  N   UNL     1       6.594  10.034   4.324  0.00  0.00    -0.286 N 
ATOM     32  C   UNL     1       5.371  10.327   3.705  0.00  0.00    +0.214 C 
ATOM     33  C   UNL     1       4.621  11.413   4.436  0.00  0.00    +0.109 C 
ATOM     34  H   UNL     1       6.821  10.568   5.161  0.00  0.00    +0.155 HD
ENDBRANCH  31   8
ENDBRANCH  18  21
BRANCH   6   1
ATOM      1  S   UNL     1      12.699   3.928  -2.504  0.00  0.00    +0.061 S 
ATOM      2  O   UNL     1      12.491   2.526  -2.804  0.00  0.00    -0.153 OA
ATOM      3  O   UNL     1      13.495   4.784  -3.356  0.00  0.00    -0.153 OA
BRANCH   1  20
ATOM     20  C   UNL     1      11.065   4.655  -2.570  0.00  0.00    +0.105 A 
ATOM     22  C   UNL     1      10.550   5.212  -1.425  0.00  0.00    +0.028 A 
ATOM     23  C   UNL     1      10.386   4.630  -3.763  0.00  0.00    +0.028 A 
ATOM     26  C   UNL     1       9.275   5.777  -1.476  0.00  0.00    +0.002 A 
ATOM     27  C   UNL     1       9.112   5.196  -3.815  0.00  0.00    +0.002 A 
ATOM     28  C   UNL     1       8.556   5.769  -2.671  0.00  0.00    +0.000 A 
ENDBRANCH   1  20
ENDBRANCH   6   1
TORSDOF 4
ENDMDL
MODEL 5
REMARK VINA RESULT:      -7.1     20.799     22.043
REMARK  Name = 11885280
REMARK  5 active torsions:
REMARK  status: ('A' for Active; 'I' for Inactive)
REMARK    1  A    between atoms: S_1  and  N_6
REMARK    2  A    between atoms: S_1  and  C_20
REMARK    3  A    between atoms: N_8  and  C_31
REMARK    4  A    between atoms: C_18  and  C_21
REMARK    5  A    between atoms: C_32  and  C_33
REMARK                            x       y       z     vdW  Elec       q    Type
REMARK                         _______ _______ _______ _____ _____    ______ ____
ROOT
ATOM      4  O   UNL     1      -6.729 -10.442  13.802  0.00  0.00    -0.267 OA
ATOM      6  N   UNL     1      -2.535 -13.059  13.159  0.00  0.00    -0.176 NA
ATOM      7  N   UNL     1      -4.412 -10.646  13.963  0.00  0.00    -0.311 N 
ATOM      9  C   UNL     1      -2.905 -10.928  11.911  0.00  0.00    +0.025 C 
ATOM     10  C   UNL     1      -1.909 -10.867  14.155  0.00  0.00    +0.052 C 
ATOM     11  C   UNL     1      -1.851 -10.238  12.766  0.00  0.00    +0.017 C 
ATOM     12  C   UNL     1      -2.617 -12.434  11.807  0.00  0.00    +0.114 C 
ATOM     13  C   UNL     1      -1.564 -12.364  14.057  0.00  0.00    +0.119 C 
ATOM     14  C   UNL     1      -4.291 -10.636  12.499  0.00  0.00    +0.130 C 
ATOM     15  C   UNL     1      -3.279 -10.682  14.780  0.00  0.00    +0.026 A 
ATOM     16  C   UNL     1      -3.407 -10.574  16.112  0.00  0.00    +0.022 A 
ATOM     17  C   UNL     1      -5.710 -10.513  14.492  0.00  0.00    +0.259 A 
ATOM     18  C   UNL     1      -5.824 -10.430  15.990  0.00  0.00    +0.047 A 
ATOM     19  C   UNL     1      -4.701 -10.452  16.723  0.00  0.00    +0.015 A 
ENDROOT
BRANCH  18  21
ATOM     21  C   UNL     1      -7.138 -10.335  16.652  0.00  0.00    -0.013 A 
ATOM     24  C   UNL     1      -7.768 -11.489  17.121  0.00  0.00    +0.010 A 
ATOM     25  C   UNL     1      -7.753  -9.094  16.811  0.00  0.00    +0.010 A 
ATOM     29  C   UNL     1      -9.011 -11.400  17.748  0.00  0.00    +0.024 A 
ATOM     30  C   UNL     1      -8.996  -9.004  17.438  0.00  0.00    +0.024 A 
ATOM     31  C   UNL     1      -9.625 -10.157  17.905  0.00  0.00    +0.033 A 
BRANCH  31   8
ATOM      5  O   UNL     1     -10.344 -10.184  20.830  0.00  0.00    -0.276 OA
ATOM      8  N   UNL     1     -10.867 -10.068  18.533  0.00  0.00    -0.286 N 
ATOM     32  C   UNL     1     -11.146 -10.088  19.907  0.00  0.00    +0.214 C 
ATOM     33  C   UNL     1     -12.625  -9.967  20.179  0.00  0.00    +0.109 C 
ATOM     34  H   UNL     1     -11.665  -9.978  17.907  0.00  0.00    +0.155 HD
ENDBRANCH  31   8
ENDBRANCH  18  21
BRANCH   6   1
ATOM      1  S   UNL     1      -2.472 -14.768  13.183  0.00  0.00    +0.061 S 
ATOM      2  O   UNL     1      -1.086 -15.177  13.271  0.00  0.00    -0.153 OA
ATOM      3  O   UNL     1      -3.362 -15.292  12.170  0.00  0.00    -0.153 OA
BRANCH   1  20
ATOM     20  C   UNL     1      -3.206 -15.310  14.722  0.00  0.00    +0.105 A 
ATOM     22  C   UNL     1      -4.206 -14.548  15.275  0.00  0.00    +0.028 A 
ATOM     23  C   UNL     1      -2.743 -16.469  15.295  0.00  0.00    +0.028 A 
ATOM     26  C   UNL     1      -4.777 -14.969  16.476  0.00  0.00    +0.002 A 
ATOM     27  C   UNL     1      -3.315 -16.891  16.496  0.00  0.00    +0.002 A 
ATOM     28  C   UNL     1      -4.331 -16.141  17.086  0.00  0.00    +0.000 A 
ENDBRANCH   1  20
ENDBRANCH   6   1
TORSDOF 4
ENDMDL
MODEL 6
REMARK VINA RESULT:      -7.0     29.705     31.553
REMARK  Name = 11885280
REMARK  5 active torsions:
REMARK  status: ('A' for Active; 'I' for Inactive)
REMARK    1  A    between atoms: S_1  and  N_6
REMARK    2  A    between atoms: S_1  and  C_20
REMARK    3  A    between atoms: N_8  and  C_31
REMARK    4  A    between atoms: C_18  and  C_21
REMARK    5  A    between atoms: C_32  and  C_33
REMARK                            x       y       z     vdW  Elec       q    Type
REMARK                         _______ _______ _______ _____ _____    ______ ____
ROOT
ATOM      4  O   UNL     1       9.250 -11.967  31.752  0.00  0.00    -0.267 OA
ATOM      6  N   UNL     1       7.003  -8.938  35.013  0.00  0.00    -0.176 NA
ATOM      7  N   UNL     1       8.481  -9.855  32.374  0.00  0.00    -0.311 N 
ATOM      9  C   UNL     1       9.401  -8.595  34.406  0.00  0.00    +0.025 C 
ATOM     10  C   UNL     1       7.639  -7.573  33.033  0.00  0.00    +0.052 C 
ATOM     11  C   UNL     1       9.028  -7.344  33.622  0.00  0.00    +0.017 C 
ATOM     12  C   UNL     1       8.394  -8.841  35.541  0.00  0.00    +0.114 C 
ATOM     13  C   UNL     1       6.622  -7.763  34.173  0.00  0.00    +0.119 C 
ATOM     14  C   UNL     1       9.493  -9.780  33.437  0.00  0.00    +0.130 C 
ATOM     15  C   UNL     1       7.629  -8.779  32.112  0.00  0.00    +0.026 A 
ATOM     16  C   UNL     1       6.793  -8.824  31.063  0.00  0.00    +0.022 A 
ATOM     17  C   UNL     1       8.489 -11.014  31.574  0.00  0.00    +0.259 A 
ATOM     18  C   UNL     1       7.516 -11.049  30.427  0.00  0.00    +0.047 A 
ATOM     19  C   UNL     1       6.734  -9.980  30.213  0.00  0.00    +0.015 A 
ENDROOT
BRANCH  18  21
ATOM     21  C   UNL     1       7.406 -12.231  29.554  0.00  0.00    -0.013 A 
ATOM     24  C   UNL     1       8.234 -12.353  28.437  0.00  0.00    +0.010 A 
ATOM     25  C   UNL     1       6.476 -13.229  29.843  0.00  0.00    +0.010 A 
ATOM     29  C   UNL     1       8.130 -13.473  27.610  0.00  0.00    +0.024 A 
ATOM     30  C   UNL     1       6.372 -14.349  29.017  0.00  0.00    +0.024 A 
ATOM     31  C   UNL     1       7.198 -14.470  27.900  0.00  0.00    +0.033 A 
BRANCH  31   8
ATOM      5  O   UNL     1       5.668 -14.877  25.338  0.00  0.00    -0.276 OA
ATOM      8  N   UNL     1       7.096 -15.590  27.075  0.00  0.00    -0.286 N 
ATOM     32  C   UNL     1       6.364 -15.725  25.887  0.00  0.00    +0.214 C 
ATOM     33  C   UNL     1       6.515 -17.103  25.291  0.00  0.00    +0.109 C 
ATOM     34  H   UNL     1       7.622 -16.405  27.382  0.00  0.00    +0.155 HD
ENDBRANCH  31   8
ENDBRANCH  18  21
BRANCH   6   1
ATOM      1  S   UNL     1       5.820  -9.462  36.131  0.00  0.00    +0.061 S 
ATOM      2  O   UNL     1       4.924  -8.358  36.406  0.00  0.00    -0.153 OA
ATOM      3  O   UNL     1       6.463 -10.208  37.191  0.00  0.00    -0.153 OA
BRANCH   1  20
ATOM     20  C   UNL     1       4.801 -10.680  35.305  0.00  0.00    +0.105 A 
ATOM     22  C   UNL     1       3.520 -10.877  35.760  0.00  0.00    +0.028 A 
ATOM     23  C   UNL     1       5.337 -11.373  34.248  0.00  0.00    +0.028 A 
ATOM     26  C   UNL     1       2.726 -11.828  35.118  0.00  0.00    +0.002 A 
ATOM     27  C   UNL     1       4.543 -12.323  33.605  0.00  0.00    +0.002 A 
ATOM     28  C   UNL     1       3.238 -12.551  34.040  0.00  0.00    +0.000 A 
ENDBRANCH   1  20
ENDBRANCH   6   1
TORSDOF 4
ENDMDL
MODEL 7
REMARK VINA RESULT:      -6.9     17.036     19.921
REMARK  Name = 11885280
REMARK  5 active torsions:
REMARK  status: ('A' for Active; 'I' for Inactive)
REMARK    1  A    between atoms: S_1  and  N_6
REMARK    2  A    between atoms: S_1  and  C_20
REMARK    3  A    between atoms: N_8  and  C_31
REMARK    4  A    between atoms: C_18  and  C_21
REMARK    5  A    between atoms: C_32  and  C_33
REMARK                            x       y       z     vdW  Elec       q    Type
REMARK                         _______ _______ _______ _____ _____    ______ ____
ROOT
ATOM      4  O   UNL     1      -9.199 -12.405  16.299  0.00  0.00    -0.267 OA
ATOM      6  N   UNL     1     -13.662 -10.546  17.515  0.00  0.00    -0.176 NA
ATOM      7  N   UNL     1     -10.908 -12.062  17.848  0.00  0.00    -0.311 N 
ATOM      9  C   UNL     1     -13.266 -13.012  17.533  0.00  0.00    +0.025 C 
ATOM     10  C   UNL     1     -12.745 -11.680  19.530  0.00  0.00    +0.052 C 
ATOM     11  C   UNL     1     -13.316 -13.013  19.055  0.00  0.00    +0.017 C 
ATOM     12  C   UNL     1     -14.110 -11.858  16.966  0.00  0.00    +0.114 C 
ATOM     13  C   UNL     1     -13.623 -10.529  19.008  0.00  0.00    +0.119 C 
ATOM     14  C   UNL     1     -11.802 -12.943  17.083  0.00  0.00    +0.130 C 
ATOM     15  C   UNL     1     -11.312 -11.503  19.063  0.00  0.00    +0.026 A 
ATOM     16  C   UNL     1     -10.441 -10.797  19.801  0.00  0.00    +0.022 A 
ATOM     17  C   UNL     1      -9.602 -11.899  17.348  0.00  0.00    +0.259 A 
ATOM     18  C   UNL     1      -8.659 -11.072  18.181  0.00  0.00    +0.047 A 
ATOM     19  C   UNL     1      -9.097 -10.575  19.347  0.00  0.00    +0.015 A 
ENDROOT
BRANCH  18  21
ATOM     21  C   UNL     1      -7.283 -10.798  17.731  0.00  0.00    -0.013 A 
ATOM     24  C   UNL     1      -7.052  -9.874  16.710  0.00  0.00    +0.010 A 
ATOM     25  C   UNL     1      -6.208 -11.462  18.324  0.00  0.00    +0.010 A 
ATOM     29  C   UNL     1      -5.749  -9.615  16.285  0.00  0.00    +0.024 A 
ATOM     30  C   UNL     1      -4.905 -11.202  17.898  0.00  0.00    +0.024 A 
ATOM     31  C   UNL     1      -4.676 -10.280  16.878  0.00  0.00    +0.033 A 
BRANCH  31   8
ATOM      5  O   UNL     1      -2.816 -11.911  15.160  0.00  0.00    -0.276 OA
ATOM      8  N   UNL     1      -3.373 -10.019  16.453  0.00  0.00    -0.286 N 
ATOM     32  C   UNL     1      -2.548 -10.819  15.650  0.00  0.00    +0.214 C 
ATOM     33  C   UNL     1      -1.203 -10.177  15.418  0.00  0.00    +0.109 C 
ATOM     34  H   UNL     1      -2.982  -9.135  16.772  0.00  0.00    +0.155 HD
ENDBRANCH  31   8
ENDBRANCH  18  21
BRANCH   6   1
ATOM      1  S   UNL     1     -14.343  -9.162  16.778  0.00  0.00    +0.061 S 
ATOM      2  O   UNL     1     -15.177  -8.484  17.750  0.00  0.00    -0.153 OA
ATOM      3  O   UNL     1     -14.834  -9.515  15.463  0.00  0.00    -0.153 OA
BRANCH   1  20
ATOM     20  C   UNL     1     -13.008  -8.017  16.446  0.00  0.00    +0.105 A 
ATOM     22  C   UNL     1     -13.290  -6.870  15.746  0.00  0.00    +0.028 A 
ATOM     23  C   UNL     1     -11.751  -8.328  16.902  0.00  0.00    +0.028 A 
ATOM     26  C   UNL     1     -12.249  -5.977  15.485  0.00  0.00    +0.002 A 
ATOM     27  C   UNL     1     -10.710  -7.436  16.643  0.00  0.00    +0.002 A 
ATOM     28  C   UNL     1     -10.959  -6.261  15.933  0.00  0.00    +0.000 A 
ENDBRANCH   1  20
ENDBRANCH   6   1
TORSDOF 4
ENDMDL
MODEL 8
REMARK VINA RESULT:      -6.9     18.379     19.882
REMARK  Name = 11885280
REMARK  5 active torsions:
REMARK  status: ('A' for Active; 'I' for Inactive)
REMARK    1  A    between atoms: S_1  and  N_6
REMARK    2  A    between atoms: S_1  and  C_20
REMARK    3  A    between atoms: N_8  and  C_31
REMARK    4  A    between atoms: C_18  and  C_21
REMARK    5  A    between atoms: C_32  and  C_33
REMARK                            x       y       z     vdW  Elec       q    Type
REMARK                         _______ _______ _______ _____ _____    ______ ____
ROOT
ATOM      4  O   UNL     1      -7.859  -8.844  17.195  0.00  0.00    -0.267 OA
ATOM      6  N   UNL     1      -4.048 -11.721  15.762  0.00  0.00    -0.176 NA
ATOM      7  N   UNL     1      -6.759 -10.900  17.164  0.00  0.00    -0.311 N 
ATOM      9  C   UNL     1      -4.433 -11.237  18.181  0.00  0.00    +0.025 C 
ATOM     10  C   UNL     1      -5.584 -13.129  17.120  0.00  0.00    +0.052 C 
ATOM     11  C   UNL     1      -4.890 -12.672  18.400  0.00  0.00    +0.017 C 
ATOM     12  C   UNL     1      -3.446 -11.158  17.005  0.00  0.00    +0.114 C 
ATOM     13  C   UNL     1      -4.579 -13.103  15.953  0.00  0.00    +0.119 C 
ATOM     14  C   UNL     1      -5.664 -10.348  17.973  0.00  0.00    +0.130 C 
ATOM     15  C   UNL     1      -6.780 -12.250  16.804  0.00  0.00    +0.026 A 
ATOM     16  C   UNL     1      -7.845 -12.759  16.164  0.00  0.00    +0.022 A 
ATOM     17  C   UNL     1      -7.825 -10.031  16.864  0.00  0.00    +0.259 A 
ATOM     18  C   UNL     1      -8.989 -10.623  16.115  0.00  0.00    +0.047 A 
ATOM     19  C   UNL     1      -8.961 -11.929  15.811  0.00  0.00    +0.015 A 
ENDROOT
BRANCH  18  21
ATOM     21  C   UNL     1     -10.137  -9.793  15.709  0.00  0.00    -0.013 A 
ATOM     24  C   UNL     1     -11.194  -9.581  16.597  0.00  0.00    +0.010 A 
ATOM     25  C   UNL     1     -10.171  -9.219  14.438  0.00  0.00    +0.010 A 
ATOM     29  C   UNL     1     -12.281  -8.795  16.212  0.00  0.00    +0.024 A 
ATOM     30  C   UNL     1     -11.258  -8.433  14.054  0.00  0.00    +0.024 A 
ATOM     31  C   UNL     1     -12.313  -8.223  14.940  0.00  0.00    +0.033 A 
BRANCH  31   8
ATOM      5  O   UNL     1     -12.508  -5.255  14.464  0.00  0.00    -0.276 OA
ATOM      8  N   UNL     1     -13.399  -7.436  14.557  0.00  0.00    -0.286 N 
ATOM     32  C   UNL     1     -13.435  -6.051  14.350  0.00  0.00    +0.214 C 
ATOM     33  C   UNL     1     -14.809  -5.582  13.941  0.00  0.00    +0.109 C 
ATOM     34  H   UNL     1     -14.271  -7.942  14.412  0.00  0.00    +0.155 HD
ENDBRANCH  31   8
ENDBRANCH  18  21
BRANCH   6   1
ATOM      1  S   UNL     1      -3.157 -11.464  14.325  0.00  0.00    +0.061 S 
ATOM      2  O   UNL     1      -2.950 -12.742  13.676  0.00  0.00    -0.153 OA
ATOM      3  O   UNL     1      -2.061 -10.559  14.598  0.00  0.00    -0.153 OA
BRANCH   1  20
ATOM     20  C   UNL     1      -4.203 -10.546  13.200  0.00  0.00    +0.105 A 
ATOM     22  C   UNL     1      -5.466 -10.203  13.615  0.00  0.00    +0.028 A 
ATOM     23  C   UNL     1      -3.704 -10.218  11.964  0.00  0.00    +0.028 A 
ATOM     26  C   UNL     1      -6.284  -9.489  12.738  0.00  0.00    +0.002 A 
ATOM     27  C   UNL     1      -4.521  -9.502  11.087  0.00  0.00    +0.002 A 
ATOM     28  C   UNL     1      -5.810  -9.139  11.474  0.00  0.00    +0.000 A 
ENDBRANCH   1  20
ENDBRANCH   6   1
TORSDOF 4
ENDMDL
MODEL 9
REMARK VINA RESULT:      -6.9      2.335      3.002
REMARK  Name = 11885280
REMARK  5 active torsions:
REMARK  status: ('A' for Active; 'I' for Inactive)
REMARK    1  A    between atoms: S_1  and  N_6
REMARK    2  A    between atoms: S_1  and  C_20
REMARK    3  A    between atoms: N_8  and  C_31
REMARK    4  A    between atoms: C_18  and  C_21
REMARK    5  A    between atoms: C_32  and  C_33
REMARK                            x       y       z     vdW  Elec       q    Type
REMARK                         _______ _______ _______ _____ _____    ______ ____
ROOT
ATOM      4  O   UNL     1     -12.784   9.761  21.110  0.00  0.00    -0.267 OA
ATOM      6  N   UNL     1     -12.359  10.876  16.270  0.00  0.00    -0.176 NA
ATOM      7  N   UNL     1     -11.557   9.789  19.127  0.00  0.00    -0.311 N 
ATOM      9  C   UNL     1     -10.874  11.963  17.958  0.00  0.00    +0.025 C 
ATOM     10  C   UNL     1     -10.233   9.801  16.984  0.00  0.00    +0.052 C 
ATOM     11  C   UNL     1      -9.692  11.151  17.447  0.00  0.00    +0.017 C 
ATOM     12  C   UNL     1     -11.906  12.178  16.838  0.00  0.00    +0.114 C 
ATOM     13  C   UNL     1     -11.223  10.014  15.825  0.00  0.00    +0.119 C 
ATOM     14  C   UNL     1     -11.473  11.255  19.179  0.00  0.00    +0.130 C 
ATOM     15  C   UNL     1     -10.908   9.063  18.125  0.00  0.00    +0.026 A 
ATOM     16  C   UNL     1     -10.901   7.722  18.163  0.00  0.00    +0.022 A 
ATOM     17  C   UNL     1     -12.231   9.156  20.190  0.00  0.00    +0.259 A 
ATOM     18  C   UNL     1     -12.236   7.651  20.186  0.00  0.00    +0.047 A 
ATOM     19  C   UNL     1     -11.581   7.008  19.207  0.00  0.00    +0.015 A 
ENDROOT
BRANCH  18  21
ATOM     21  C   UNL     1     -12.949   6.887  21.224  0.00  0.00    -0.013 A 
ATOM     24  C   UNL     1     -12.396   5.709  21.729  0.00  0.00    +0.010 A 
ATOM     25  C   UNL     1     -14.178   7.338  21.704  0.00  0.00    +0.010 A 
ATOM     29  C   UNL     1     -13.071   4.985  22.712  0.00  0.00    +0.024 A 
ATOM     30  C   UNL     1     -14.854   6.615  22.687  0.00  0.00    +0.024 A 
ATOM     31  C   UNL     1     -14.301   5.438  23.190  0.00  0.00    +0.033 A 
BRANCH  31   8
ATOM      5  O   UNL     1     -16.063   3.006  22.967  0.00  0.00    -0.276 OA
ATOM      8  N   UNL     1     -14.976   4.715  24.173  0.00  0.00    -0.286 N 
ATOM     32  C   UNL     1     -15.788   3.584  24.013  0.00  0.00    +0.214 C 
ATOM     33  C   UNL     1     -16.336   3.097  25.331  0.00  0.00    +0.109 C 
ATOM     34  H   UNL     1     -14.857   5.060  25.124  0.00  0.00    +0.155 HD
ENDBRANCH  31   8
ENDBRANCH  18  21
BRANCH   6   1
ATOM      1  S   UNL     1     -13.689  10.958  15.198  0.00  0.00    +0.061 S 
ATOM      2  O   UNL     1     -14.346  12.237  15.374  0.00  0.00    -0.153 OA
ATOM      3  O   UNL     1     -14.420   9.710  15.248  0.00  0.00    -0.153 OA
BRANCH   1  20
ATOM     20  C   UNL     1     -13.035  11.007  13.533  0.00  0.00    +0.105 A 
ATOM     22  C   UNL     1     -12.401  12.151  13.113  0.00  0.00    +0.028 A 
ATOM     23  C   UNL     1     -13.191   9.900  12.736  0.00  0.00    +0.028 A 
ATOM     26  C   UNL     1     -11.893  12.191  11.814  0.00  0.00    +0.002 A 
ATOM     27  C   UNL     1     -12.682   9.939  11.437  0.00  0.00    +0.002 A 
ATOM     28  C   UNL     1     -12.033  11.085  10.976  0.00  0.00    +0.000 A 
ENDBRANCH   1  20
ENDBRANCH   6   1
TORSDOF 4
ENDMDL
MODEL 10
REMARK VINA RESULT:      -6.6     29.291     31.061
REMARK  Name = 11885280
REMARK  5 active torsions:
REMARK  status: ('A' for Active; 'I' for Inactive)
REMARK    1  A    between atoms: S_1  and  N_6
REMARK    2  A    between atoms: S_1  and  C_20
REMARK    3  A    between atoms: N_8  and  C_31
REMARK    4  A    between atoms: C_18  and  C_21
REMARK    5  A    between atoms: C_32  and  C_33
REMARK                            x       y       z     vdW  Elec       q    Type
REMARK                         _______ _______ _______ _____ _____    ______ ____
ROOT
ATOM      4  O   UNL     1       9.252  -9.646  33.324  0.00  0.00    -0.267 OA
ATOM      6  N   UNL     1       7.919  -5.989  36.438  0.00  0.00    -0.176 NA
ATOM      7  N   UNL     1       8.614  -7.438  33.717  0.00  0.00    -0.311 N 
ATOM      9  C   UNL     1      10.028  -5.821  35.112  0.00  0.00    +0.025 C 
ATOM     10  C   UNL     1       7.909  -5.055  34.133  0.00  0.00    +0.052 C 
ATOM     11  C   UNL     1       9.398  -4.741  34.241  0.00  0.00    +0.017 C 
ATOM     12  C   UNL     1       9.398  -5.817  36.515  0.00  0.00    +0.114 C 
ATOM     13  C   UNL     1       7.269  -4.996  35.532  0.00  0.00    +0.119 C 
ATOM     14  C   UNL     1       9.884  -7.175  34.408  0.00  0.00    +0.130 C 
ATOM     15  C   UNL     1       7.682  -6.419  33.508  0.00  0.00    +0.026 A 
ATOM     16  C   UNL     1       6.583  -6.653  32.774  0.00  0.00    +0.022 A 
ATOM     17  C   UNL     1       8.437  -8.732  33.190  0.00  0.00    +0.259 A 
ATOM     18  C   UNL     1       7.178  -8.974  32.402  0.00  0.00    +0.047 A 
ATOM     19  C   UNL     1       6.327  -7.952  32.219  0.00  0.00    +0.015 A 
ENDROOT
BRANCH  18  21
ATOM     21  C   UNL     1       6.868 -10.302  31.845  0.00  0.00    -0.013 A 
ATOM     24  C   UNL     1       6.316 -11.291  32.663  0.00  0.00    +0.010 A 
ATOM     25  C   UNL     1       7.126 -10.575  30.502  0.00  0.00    +0.010 A 
ATOM     29  C   UNL     1       6.023 -12.549  32.135  0.00  0.00    +0.024 A 
ATOM     30  C   UNL     1       6.832 -11.833  29.975  0.00  0.00    +0.024 A 
ATOM     31  C   UNL     1       6.282 -12.820  30.791  0.00  0.00    +0.033 A 
BRANCH  31   8
ATOM      5  O   UNL     1       3.880 -13.781  29.251  0.00  0.00    -0.276 OA
ATOM      8  N   UNL     1       5.988 -14.077  30.264  0.00  0.00    -0.286 N 
ATOM     32  C   UNL     1       4.847 -14.472  29.553  0.00  0.00    +0.214 C 
ATOM     33  C   UNL     1       4.911 -15.926  29.155  0.00  0.00    +0.109 C 
ATOM     34  H   UNL     1       6.697 -14.791  30.422  0.00  0.00    +0.155 HD
ENDBRANCH  31   8
ENDBRANCH  18  21
BRANCH   6   1
ATOM      1  S   UNL     1       7.126  -6.259  37.930  0.00  0.00    +0.061 S 
ATOM      2  O   UNL     1       6.499  -5.022  38.349  0.00  0.00    -0.153 OA
ATOM      3  O   UNL     1       8.001  -7.008  38.806  0.00  0.00    -0.153 OA
BRANCH   1  20
ATOM     20  C   UNL     1       5.765  -7.378  37.621  0.00  0.00    +0.105 A 
ATOM     22  C   UNL     1       4.681  -7.337  38.464  0.00  0.00    +0.028 A 
ATOM     23  C   UNL     1       5.853  -8.236  36.553  0.00  0.00    +0.028 A 
ATOM     26  C   UNL     1       3.620  -8.211  38.225  0.00  0.00    +0.002 A 
ATOM     27  C   UNL     1       4.792  -9.109  36.313  0.00  0.00    +0.002 A 
ATOM     28  C   UNL     1       3.675  -9.097  37.149  0.00  0.00    +0.000 A 
ENDBRANCH   1  20
ENDBRANCH   6   1
TORSDOF 4
ENDMDL
