MODEL 1
REMARK VINA RESULT:      -6.8      0.000      0.000
REMARK  Name = 38028183
REMARK  9 active torsions:
REMARK  status: ('A' for Active; 'I' for Inactive)
REMARK    1  A    between atoms: N_4  and  C_13
REMARK    2  A    between atoms: C_6  and  C_10
REMARK    3  A    between atoms: C_7  and  C_13
REMARK    4  A    between atoms: C_9  and  C_14
REMARK    5  A    between atoms: C_10  and  C_15
REMARK    6  A    between atoms: C_10  and  C_16
REMARK    7  A    between atoms: C_11  and  C_17
REMARK    8  A    between atoms: C_14  and  C_18
REMARK    9  A    between atoms: C_21  and  C_24
REMARK                            x       y       z     vdW  Elec       q    Type
REMARK                         _______ _______ _______ _____ _____    ______ ____
ROOT
ATOM      6  C   UNL     1     -15.605   5.924  31.394  0.00  0.00    +0.000 C 
ATOM      7  C   UNL     1     -15.409   7.118  32.361  0.00  0.00    +0.032 C 
ATOM      8  C   UNL     1     -16.136   4.699  32.155  0.00  0.00    +0.012 C 
ATOM      9  C   UNL     1     -15.188   4.260  33.288  0.00  0.00    +0.023 C 
ATOM     11  C   UNL     1     -14.734   5.436  34.130  0.00  0.00    -0.073 C 
ATOM     12  C   UNL     1     -14.854   6.706  33.705  0.00  0.00    -0.022 C 
ATOM     17  C   UNL     1     -14.182   5.119  35.492  0.00  0.00    +0.039 C 
ENDROOT
BRANCH   6  10
ATOM     10  C   UNL     1     -16.554   6.273  30.245  0.00  0.00    -0.013 C 
ATOM     15  C   UNL     1     -16.622   5.125  29.243  0.00  0.00    +0.007 C 
ATOM     16  C   UNL     1     -17.943   6.602  30.784  0.00  0.00    +0.007 C 
ENDBRANCH   6  10
BRANCH   7  13
ATOM     13  C   UNL     1     -14.505   8.190  31.742  0.00  0.00    +0.112 C 
BRANCH  13   4
ATOM      3  O   UNL     1     -11.912   9.209  31.047  0.00  0.00    -0.270 OA
ATOM      4  N   UNL     1     -13.462   8.558  32.647  0.00  0.00    -0.311 N 
ATOM     21  C   UNL     1     -12.226   9.048  32.224  0.00  0.00    +0.244 C 
ATOM     30  H   UNL     1     -13.681   8.539  33.639  0.00  0.00    +0.149 HD
BRANCH  21  24
ATOM     24  C   UNL     1     -11.240   9.360  33.289  0.00  0.00    +0.037 A 
ATOM     25  C   UNL     1     -11.595   9.216  34.631  0.00  0.00    +0.013 A 
ATOM     26  C   UNL     1      -9.959   9.795  32.951  0.00  0.00    +0.013 A 
ATOM     27  C   UNL     1     -10.669   9.507  35.632  0.00  0.00    +0.001 A 
ATOM     28  C   UNL     1      -9.033  10.085  33.952  0.00  0.00    +0.001 A 
ATOM     29  C   UNL     1      -9.388   9.942  35.294  0.00  0.00    +0.000 A 
ENDBRANCH  21  24
ENDBRANCH  13   4
ENDBRANCH   7  13
BRANCH   9  14
ATOM     14  C   UNL     1     -13.987   3.487  32.733  0.00  0.00    +0.103 C 
BRANCH  14  18
ATOM      1  O   UNL     1     -14.386   1.432  33.846  0.00  0.00    -0.276 OA
ATOM      2  O   UNL     1     -15.395   0.207  29.162  0.00  0.00    -0.377 OA
ATOM      5  N   UNL     1     -14.399   1.375  31.526  0.00  0.00    -0.297 N 
ATOM     18  C   UNL     1     -14.273   2.006  32.761  0.00  0.00    +0.216 C 
ATOM     19  C   UNL     1     -14.683  -0.059  31.461  0.00  0.00    +0.136 C 
ATOM     20  C   UNL     1     -14.147   1.998  30.221  0.00  0.00    +0.136 C 
ATOM     22  C   UNL     1     -15.766  -0.340  30.430  0.00  0.00    +0.179 C 
ATOM     23  C   UNL     1     -15.250   1.628  29.238  0.00  0.00    +0.179 C 
ENDBRANCH  14  18
ENDBRANCH   9  14
TORSDOF 6
ENDMDL
MODEL 2
REMARK VINA RESULT:      -6.6     11.494     13.485
REMARK  Name = 38028183
REMARK  9 active torsions:
REMARK  status: ('A' for Active; 'I' for Inactive)
REMARK    1  A    between atoms: N_4  and  C_13
REMARK    2  A    between atoms: C_6  and  C_10
REMARK    3  A    between atoms: C_7  and  C_13
REMARK    4  A    between atoms: C_9  and  C_14
REMARK    5  A    between atoms: C_10  and  C_15
REMARK    6  A    between atoms: C_10  and  C_16
REMARK    7  A    between atoms: C_11  and  C_17
REMARK    8  A    between atoms: C_14  and  C_18
REMARK    9  A    between atoms: C_21  and  C_24
REMARK                            x       y       z     vdW  Elec       q    Type
REMARK                         _______ _______ _______ _____ _____    ______ ____
ROOT
ATOM      6  C   UNL     1     -12.992   8.057  20.566  0.00  0.00    +0.000 C 
ATOM      7  C   UNL     1     -12.345   9.230  21.344  0.00  0.00    +0.032 C 
ATOM      8  C   UNL     1     -12.016   7.509  19.512  0.00  0.00    +0.012 C 
ATOM      9  C   UNL     1     -11.584   8.588  18.501  0.00  0.00    +0.023 C 
ATOM     11  C   UNL     1     -11.184   9.878  19.189  0.00  0.00    -0.073 C 
ATOM     12  C   UNL     1     -11.521  10.140  20.464  0.00  0.00    -0.022 C 
ATOM     17  C   UNL     1     -10.347  10.838  18.391  0.00  0.00    +0.039 C 
ENDROOT
BRANCH   6  10
ATOM     10  C   UNL     1     -13.433   6.928  21.501  0.00  0.00    -0.013 C 
ATOM     15  C   UNL     1     -14.790   6.380  21.072  0.00  0.00    +0.007 C 
ATOM     16  C   UNL     1     -12.386   5.819  21.526  0.00  0.00    +0.007 C 
ENDBRANCH   6  10
BRANCH   7  13
ATOM     13  C   UNL     1     -13.404  10.055  22.083  0.00  0.00    +0.112 C 
BRANCH  13   4
ATOM      3  O   UNL     1     -11.752  11.825  23.627  0.00  0.00    -0.270 OA
ATOM      4  N   UNL     1     -13.188  10.006  23.496  0.00  0.00    -0.311 N 
ATOM     21  C   UNL     1     -12.366  10.910  24.170  0.00  0.00    +0.244 C 
ATOM     30  H   UNL     1     -13.735   9.334  24.025  0.00  0.00    +0.149 HD
BRANCH  21  24
ATOM     24  C   UNL     1     -12.226  10.708  25.634  0.00  0.00    +0.037 A 
ATOM     25  C   UNL     1     -13.360  10.705  26.448  0.00  0.00    +0.013 A 
ATOM     26  C   UNL     1     -10.964  10.520  26.197  0.00  0.00    +0.013 A 
ATOM     27  C   UNL     1     -13.229  10.514  27.824  0.00  0.00    +0.001 A 
ATOM     28  C   UNL     1     -10.834  10.328  27.572  0.00  0.00    +0.001 A 
ATOM     29  C   UNL     1     -11.967  10.326  28.386  0.00  0.00    +0.000 A 
ENDBRANCH  21  24
ENDBRANCH  13   4
ENDBRANCH   7  13
BRANCH   9  14
ATOM     14  C   UNL     1     -12.682   8.840  17.461  0.00  0.00    +0.103 C 
BRANCH  14  18
ATOM      1  O   UNL     1     -10.944   8.474  15.890  0.00  0.00    -0.276 OA
ATOM      2  O   UNL     1     -14.916   7.135  13.266  0.00  0.00    -0.377 OA
ATOM      5  N   UNL     1     -13.117   8.307  15.091  0.00  0.00    -0.297 N 
ATOM     18  C   UNL     1     -12.161   8.527  16.080  0.00  0.00    +0.216 C 
ATOM     19  C   UNL     1     -12.698   7.992  13.725  0.00  0.00    +0.136 C 
ATOM     20  C   UNL     1     -14.564   8.485  15.251  0.00  0.00    +0.136 C 
ATOM     22  C   UNL     1     -13.520   6.838  13.171  0.00  0.00    +0.179 C 
ATOM     23  C   UNL     1     -15.312   7.313  14.629  0.00  0.00    +0.179 C 
ENDBRANCH  14  18
ENDBRANCH   9  14
TORSDOF 6
ENDMDL
MODEL 3
REMARK VINA RESULT:      -6.6     28.126     31.949
REMARK  Name = 38028183
REMARK  9 active torsions:
REMARK  status: ('A' for Active; 'I' for Inactive)
REMARK    1  A    between atoms: N_4  and  C_13
REMARK    2  A    between atoms: C_6  and  C_10
REMARK    3  A    between atoms: C_7  and  C_13
REMARK    4  A    between atoms: C_9  and  C_14
REMARK    5  A    between atoms: C_10  and  C_15
REMARK    6  A    between atoms: C_10  and  C_16
REMARK    7  A    between atoms: C_11  and  C_17
REMARK    8  A    between atoms: C_14  and  C_18
REMARK    9  A    between atoms: C_21  and  C_24
REMARK                            x       y       z     vdW  Elec       q    Type
REMARK                         _______ _______ _______ _____ _____    ______ ____
ROOT
ATOM      6  C   UNL     1      12.803   9.035  20.558  0.00  0.00    +0.000 C 
ATOM      7  C   UNL     1      12.669   8.020  19.396  0.00  0.00    +0.032 C 
ATOM      8  C   UNL     1      12.468  10.454  20.072  0.00  0.00    +0.012 C 
ATOM      9  C   UNL     1      13.384  10.907  18.919  0.00  0.00    +0.023 C 
ATOM     11  C   UNL     1      13.516   9.839  17.852  0.00  0.00    -0.073 C 
ATOM     12  C   UNL     1      13.178   8.557  18.080  0.00  0.00    -0.022 C 
ATOM     17  C   UNL     1      14.002  10.288  16.502  0.00  0.00    +0.039 C 
ENDROOT
BRANCH   6  10
ATOM     10  C   UNL     1      11.904   8.667  21.742  0.00  0.00    -0.013 C 
ATOM     15  C   UNL     1      11.513   9.918  22.523  0.00  0.00    +0.007 C 
ATOM     16  C   UNL     1      10.665   7.923  21.257  0.00  0.00    +0.007 C 
ENDBRANCH   6  10
BRANCH   7  13
ATOM     13  C   UNL     1      13.387   6.706  19.724  0.00  0.00    +0.112 C 
BRANCH  13   4
ATOM      3  O   UNL     1      15.869   6.141  18.395  0.00  0.00    -0.270 OA
ATOM      4  N   UNL     1      14.701   6.958  20.226  0.00  0.00    -0.311 N 
ATOM     21  C   UNL     1      15.859   6.652  19.511  0.00  0.00    +0.244 C 
ATOM     30  H   UNL     1      14.773   7.463  21.104  0.00  0.00    +0.149 HD
BRANCH  21  24
ATOM     24  C   UNL     1      17.149   6.952  20.184  0.00  0.00    +0.037 A 
ATOM     25  C   UNL     1      18.220   6.066  20.063  0.00  0.00    +0.013 A 
ATOM     26  C   UNL     1      17.291   8.119  20.935  0.00  0.00    +0.013 A 
ATOM     27  C   UNL     1      19.432   6.348  20.693  0.00  0.00    +0.001 A 
ATOM     28  C   UNL     1      18.503   8.400  21.564  0.00  0.00    +0.001 A 
ATOM     29  C   UNL     1      19.574   7.515  21.444  0.00  0.00    +0.000 A 
ENDBRANCH  21  24
ENDBRANCH  13   4
ENDBRANCH   7  13
BRANCH   9  14
ATOM     14  C   UNL     1      14.760  11.332  19.443  0.00  0.00    +0.103 C 
BRANCH  14  18
ATOM      1  O   UNL     1      14.244  13.633  19.690  0.00  0.00    -0.276 OA
ATOM      2  O   UNL     1      14.887  12.274  24.402  0.00  0.00    -0.377 OA
ATOM      5  N   UNL     1      14.966  12.521  21.596  0.00  0.00    -0.297 N 
ATOM     18  C   UNL     1      14.633  12.603  20.246  0.00  0.00    +0.216 C 
ATOM     19  C   UNL     1      14.866  13.705  22.448  0.00  0.00    +0.136 C 
ATOM     20  C   UNL     1      15.549  11.349  22.259  0.00  0.00    +0.136 C 
ATOM     22  C   UNL     1      14.195  13.353  23.768  0.00  0.00    +0.179 C 
ATOM     23  C   UNL     1      14.855  11.097  23.591  0.00  0.00    +0.179 C 
ENDBRANCH  14  18
ENDBRANCH   9  14
TORSDOF 6
ENDMDL
MODEL 4
REMARK VINA RESULT:      -6.6     23.613     27.766
REMARK  Name = 38028183
REMARK  9 active torsions:
REMARK  status: ('A' for Active; 'I' for Inactive)
REMARK    1  A    between atoms: N_4  and  C_13
REMARK    2  A    between atoms: C_6  and  C_10
REMARK    3  A    between atoms: C_7  and  C_13
REMARK    4  A    between atoms: C_9  and  C_14
REMARK    5  A    between atoms: C_10  and  C_15
REMARK    6  A    between atoms: C_10  and  C_16
REMARK    7  A    between atoms: C_11  and  C_17
REMARK    8  A    between atoms: C_14  and  C_18
REMARK    9  A    between atoms: C_21  and  C_24
REMARK                            x       y       z     vdW  Elec       q    Type
REMARK                         _______ _______ _______ _____ _____    ______ ____
ROOT
ATOM      6  C   UNL     1      -3.150 -12.153  12.568  0.00  0.00    +0.000 C 
ATOM      7  C   UNL     1      -2.061 -11.063  12.414  0.00  0.00    +0.032 C 
ATOM      8  C   UNL     1      -3.738 -12.521  11.196  0.00  0.00    +0.012 C 
ATOM      9  C   UNL     1      -4.359 -11.306  10.483  0.00  0.00    +0.023 C 
ATOM     11  C   UNL     1      -3.444 -10.099  10.525  0.00  0.00    -0.073 C 
ATOM     12  C   UNL     1      -2.413 -10.015  11.385  0.00  0.00    -0.022 C 
ATOM     17  C   UNL     1      -3.712  -9.011   9.522  0.00  0.00    +0.039 C 
ENDROOT
BRANCH   6  10
ATOM     10  C   UNL     1      -2.606 -13.409  13.254  0.00  0.00    -0.013 C 
ATOM     15  C   UNL     1      -3.551 -13.861  14.363  0.00  0.00    +0.007 C 
ATOM     16  C   UNL     1      -2.398 -14.523  12.234  0.00  0.00    +0.007 C 
ENDBRANCH   6  10
BRANCH   7  13
ATOM     13  C   UNL     1      -1.764 -10.383  13.755  0.00  0.00    +0.112 C 
BRANCH  13   4
ATOM      3  O   UNL     1      -1.995 -10.934  16.564  0.00  0.00    -0.270 OA
ATOM      4  N   UNL     1      -2.949 -10.290  14.549  0.00  0.00    -0.311 N 
ATOM     21  C   UNL     1      -2.973 -10.576  15.914  0.00  0.00    +0.244 C 
ATOM     30  H   UNL     1      -3.778  -9.912  14.101  0.00  0.00    +0.149 HD
BRANCH  21  24
ATOM     24  C   UNL     1      -4.290 -10.456  16.590  0.00  0.00    +0.037 A 
ATOM     25  C   UNL     1      -5.356  -9.839  15.933  0.00  0.00    +0.013 A 
ATOM     26  C   UNL     1      -4.464 -10.961  17.878  0.00  0.00    +0.013 A 
ATOM     27  C   UNL     1      -6.594  -9.728  16.566  0.00  0.00    +0.001 A 
ATOM     28  C   UNL     1      -5.702 -10.850  18.510  0.00  0.00    +0.001 A 
ATOM     29  C   UNL     1      -6.767 -10.233  17.855  0.00  0.00    +0.000 A 
ENDBRANCH  21  24
ENDBRANCH  13   4
ENDBRANCH   7  13
BRANCH   9  14
ATOM     14  C   UNL     1      -5.737 -10.970  11.065  0.00  0.00    +0.103 C 
BRANCH  14  18
ATOM      1  O   UNL     1      -6.999 -12.754  10.146  0.00  0.00    -0.276 OA
ATOM      2  O   UNL     1      -9.556  -8.835   8.545  0.00  0.00    -0.377 OA
ATOM      5  N   UNL     1      -7.565 -10.614   9.446  0.00  0.00    -0.297 N 
ATOM     18  C   UNL     1      -6.820 -11.535  10.179  0.00  0.00    +0.216 C 
ATOM     19  C   UNL     1      -8.639 -11.076   8.566  0.00  0.00    +0.136 C 
ATOM     20  C   UNL     1      -7.298  -9.174   9.365  0.00  0.00    +0.136 C 
ATOM     22  C   UNL     1      -9.880 -10.214   8.745  0.00  0.00    +0.179 C 
ATOM     23  C   UNL     1      -8.596  -8.388   9.505  0.00  0.00    +0.179 C 
ENDBRANCH  14  18
ENDBRANCH   9  14
TORSDOF 6
ENDMDL
MODEL 5
REMARK VINA RESULT:      -6.4     21.549     25.993
REMARK  Name = 38028183
REMARK  9 active torsions:
REMARK  status: ('A' for Active; 'I' for Inactive)
REMARK    1  A    between atoms: N_4  and  C_13
REMARK    2  A    between atoms: C_6  and  C_10
REMARK    3  A    between atoms: C_7  and  C_13
REMARK    4  A    between atoms: C_9  and  C_14
REMARK    5  A    between atoms: C_10  and  C_15
REMARK    6  A    between atoms: C_10  and  C_16
REMARK    7  A    between atoms: C_11  and  C_17
REMARK    8  A    between atoms: C_14  and  C_18
REMARK    9  A    between atoms: C_21  and  C_24
REMARK                            x       y       z     vdW  Elec       q    Type
REMARK                         _______ _______ _______ _____ _____    ______ ____
ROOT
ATOM      6  C   UNL     1      -5.068 -12.283  16.149  0.00  0.00    +0.000 C 
ATOM      7  C   UNL     1      -4.227 -11.669  17.296  0.00  0.00    +0.032 C 
ATOM      8  C   UNL     1      -4.154 -12.752  15.006  0.00  0.00    +0.012 C 
ATOM      9  C   UNL     1      -3.305 -11.604  14.429  0.00  0.00    +0.023 C 
ATOM     11  C   UNL     1      -2.654 -10.780  15.522  0.00  0.00    -0.073 C 
ATOM     12  C   UNL     1      -3.071 -10.833  16.800  0.00  0.00    -0.022 C 
ATOM     17  C   UNL     1      -1.482  -9.929  15.121  0.00  0.00    +0.039 C 
ENDROOT
BRANCH   6  10
ATOM     10  C   UNL     1      -5.930 -13.451  16.638  0.00  0.00    -0.013 C 
ATOM     15  C   UNL     1      -7.322 -13.380  16.019  0.00  0.00    +0.007 C 
ATOM     16  C   UNL     1      -5.259 -14.780  16.308  0.00  0.00    +0.007 C 
ENDBRANCH   6  10
BRANCH   7  13
ATOM     13  C   UNL     1      -5.101 -10.827  18.233  0.00  0.00    +0.112 C 
BRANCH  13   4
ATOM      3  O   UNL     1      -7.890 -10.703  18.902  0.00  0.00    -0.270 OA
ATOM      4  N   UNL     1      -6.125 -10.151  17.500  0.00  0.00    -0.311 N 
ATOM     21  C   UNL     1      -7.462 -10.140  17.898  0.00  0.00    +0.244 C 
ATOM     30  H   UNL     1      -5.832  -9.586  16.709  0.00  0.00    +0.149 HD
BRANCH  21  24
ATOM     24  C   UNL     1      -8.407  -9.413  17.012  0.00  0.00    +0.037 A 
ATOM     25  C   UNL     1      -8.470  -9.727  15.654  0.00  0.00    +0.013 A 
ATOM     26  C   UNL     1      -9.233  -8.420  17.536  0.00  0.00    +0.013 A 
ATOM     27  C   UNL     1      -9.359  -9.047  14.822  0.00  0.00    +0.001 A 
ATOM     28  C   UNL     1     -10.122  -7.740  16.704  0.00  0.00    +0.001 A 
ATOM     29  C   UNL     1     -10.185  -8.053  15.346  0.00  0.00    +0.000 A 
ENDBRANCH  21  24
ENDBRANCH  13   4
ENDBRANCH   7  13
BRANCH   9  14
ATOM     14  C   UNL     1      -4.138 -10.716  13.497  0.00  0.00    +0.103 C 
BRANCH  14  18
ATOM      1  O   UNL     1      -2.385 -11.178  11.970  0.00  0.00    -0.276 OA
ATOM      2  O   UNL     1      -5.635  -8.873   9.041  0.00  0.00    -0.377 OA
ATOM      5  N   UNL     1      -4.088  -9.798  11.208  0.00  0.00    -0.297 N 
ATOM     18  C   UNL     1      -3.451 -10.588  12.161  0.00  0.00    +0.216 C 
ATOM     19  C   UNL     1      -3.492  -9.625   9.883  0.00  0.00    +0.136 C 
ATOM     20  C   UNL     1      -5.287  -8.984  11.440  0.00  0.00    +0.136 C 
ATOM     22  C   UNL     1      -4.552  -9.775   8.801  0.00  0.00    +0.179 C 
ATOM     23  C   UNL     1      -6.272  -9.156  10.290  0.00  0.00    +0.179 C 
ENDBRANCH  14  18
ENDBRANCH   9  14
TORSDOF 6
ENDMDL
MODEL 6
REMARK VINA RESULT:      -6.3     27.566     31.590
REMARK  Name = 38028183
REMARK  9 active torsions:
REMARK  status: ('A' for Active; 'I' for Inactive)
REMARK    1  A    between atoms: N_4  and  C_13
REMARK    2  A    between atoms: C_6  and  C_10
REMARK    3  A    between atoms: C_7  and  C_13
REMARK    4  A    between atoms: C_9  and  C_14
REMARK    5  A    between atoms: C_10  and  C_15
REMARK    6  A    between atoms: C_10  and  C_16
REMARK    7  A    between atoms: C_11  and  C_17
REMARK    8  A    between atoms: C_14  and  C_18
REMARK    9  A    between atoms: C_21  and  C_24
REMARK                            x       y       z     vdW  Elec       q    Type
REMARK                         _______ _______ _______ _____ _____    ______ ____
ROOT
ATOM      6  C   UNL     1      13.298   8.927  19.808  0.00  0.00    +0.000 C 
ATOM      7  C   UNL     1      14.726   8.811  20.396  0.00  0.00    +0.032 C 
ATOM      8  C   UNL     1      13.034  10.360  19.319  0.00  0.00    +0.012 C 
ATOM      9  C   UNL     1      13.184  11.398  20.446  0.00  0.00    +0.023 C 
ATOM     11  C   UNL     1      14.451  11.179  21.249  0.00  0.00    -0.073 C 
ATOM     12  C   UNL     1      15.134  10.022  21.202  0.00  0.00    -0.022 C 
ATOM     17  C   UNL     1      14.941  12.340  22.070  0.00  0.00    +0.039 C 
ENDROOT
BRANCH   6  10
ATOM     10  C   UNL     1      13.073   7.937  18.662  0.00  0.00    -0.013 C 
ATOM     15  C   UNL     1      11.736   8.210  17.978  0.00  0.00    +0.007 C 
ATOM     16  C   UNL     1      14.218   8.015  17.659  0.00  0.00    +0.007 C 
ENDBRANCH   6  10
BRANCH   7  13
ATOM     13  C   UNL     1      14.871   7.551  21.257  0.00  0.00    +0.112 C 
BRANCH  13   4
ATOM      3  O   UNL     1      16.551   6.141  19.405  0.00  0.00    -0.270 OA
ATOM      4  N   UNL     1      16.248   7.217  21.438  0.00  0.00    -0.311 N 
ATOM     21  C   UNL     1      16.994   6.527  20.483  0.00  0.00    +0.244 C 
ATOM     30  H   UNL     1      16.709   7.583  22.266  0.00  0.00    +0.149 HD
BRANCH  21  24
ATOM     24  C   UNL     1      18.407   6.233  20.835  0.00  0.00    +0.037 A 
ATOM     25  C   UNL     1      18.990   6.847  21.944  0.00  0.00    +0.013 A 
ATOM     26  C   UNL     1      19.151   5.343  20.060  0.00  0.00    +0.013 A 
ATOM     27  C   UNL     1      20.316   6.570  22.276  0.00  0.00    +0.001 A 
ATOM     28  C   UNL     1      20.476   5.066  20.394  0.00  0.00    +0.001 A 
ATOM     29  C   UNL     1      21.060   5.681  21.502  0.00  0.00    +0.000 A 
ENDBRANCH  21  24
ENDBRANCH  13   4
ENDBRANCH   7  13
BRANCH   9  14
ATOM     14  C   UNL     1      11.952  11.404  21.358  0.00  0.00    +0.103 C 
BRANCH  14  18
ATOM      1  O   UNL     1      11.315  13.606  20.754  0.00  0.00    -0.276 OA
ATOM      2  O   UNL     1      10.596  13.699  25.646  0.00  0.00    -0.377 OA
ATOM      5  N   UNL     1      11.483  13.161  23.026  0.00  0.00    -0.297 N 
ATOM     18  C   UNL     1      11.557  12.824  21.677  0.00  0.00    +0.216 C 
ATOM     19  C   UNL     1      11.101  14.516  23.423  0.00  0.00    +0.136 C 
ATOM     20  C   UNL     1      11.884  12.297  24.142  0.00  0.00    +0.136 C 
ATOM     22  C   UNL     1      10.086  14.471  24.556  0.00  0.00    +0.179 C 
ATOM     23  C   UNL     1      10.839  12.347  25.250  0.00  0.00    +0.179 C 
ENDBRANCH  14  18
ENDBRANCH   9  14
TORSDOF 6
ENDMDL
MODEL 7
REMARK VINA RESULT:      -6.2     23.888     28.084
REMARK  Name = 38028183
REMARK  9 active torsions:
REMARK  status: ('A' for Active; 'I' for Inactive)
REMARK    1  A    between atoms: N_4  and  C_13
REMARK    2  A    between atoms: C_6  and  C_10
REMARK    3  A    between atoms: C_7  and  C_13
REMARK    4  A    between atoms: C_9  and  C_14
REMARK    5  A    between atoms: C_10  and  C_15
REMARK    6  A    between atoms: C_10  and  C_16
REMARK    7  A    between atoms: C_11  and  C_17
REMARK    8  A    between atoms: C_14  and  C_18
REMARK    9  A    between atoms: C_21  and  C_24
REMARK                            x       y       z     vdW  Elec       q    Type
REMARK                         _______ _______ _______ _____ _____    ______ ____
ROOT
ATOM      6  C   UNL     1      -3.109 -12.173  12.520  0.00  0.00    +0.000 C 
ATOM      7  C   UNL     1      -2.044 -11.058  12.367  0.00  0.00    +0.032 C 
ATOM      8  C   UNL     1      -3.698 -12.544  11.150  0.00  0.00    +0.012 C 
ATOM      9  C   UNL     1      -4.350 -11.338  10.449  0.00  0.00    +0.023 C 
ATOM     11  C   UNL     1      -3.460 -10.112  10.494  0.00  0.00    -0.073 C 
ATOM     12  C   UNL     1      -2.426 -10.011  11.348  0.00  0.00    -0.022 C 
ATOM     17  C   UNL     1      -3.759  -9.023   9.501  0.00  0.00    +0.039 C 
ENDROOT
BRANCH   6  10
ATOM     10  C   UNL     1      -2.533 -13.422  13.194  0.00  0.00    -0.013 C 
ATOM     15  C   UNL     1      -3.421 -13.857  14.356  0.00  0.00    +0.007 C 
ATOM     16  C   UNL     1      -2.380 -14.550  12.180  0.00  0.00    +0.007 C 
ENDBRANCH   6  10
BRANCH   7  13
ATOM     13  C   UNL     1      -1.754 -10.381  13.711  0.00  0.00    +0.112 C 
BRANCH  13   4
ATOM      3  O   UNL     1      -1.979 -10.903  16.526  0.00  0.00    -0.270 OA
ATOM      4  N   UNL     1      -2.941 -10.297  14.503  0.00  0.00    -0.311 N 
ATOM     21  C   UNL     1      -2.962 -10.568  15.871  0.00  0.00    +0.244 C 
ATOM     30  H   UNL     1      -3.776  -9.937  14.050  0.00  0.00    +0.149 HD
BRANCH  21  24
ATOM     24  C   UNL     1      -4.282 -10.460  16.545  0.00  0.00    +0.037 A 
ATOM     25  C   UNL     1      -5.358  -9.871  15.879  0.00  0.00    +0.013 A 
ATOM     26  C   UNL     1      -4.448 -10.949  17.840  0.00  0.00    +0.013 A 
ATOM     27  C   UNL     1      -6.597  -9.772  16.509  0.00  0.00    +0.001 A 
ATOM     28  C   UNL     1      -5.688 -10.849  18.470  0.00  0.00    +0.001 A 
ATOM     29  C   UNL     1      -6.763 -10.260  17.805  0.00  0.00    +0.000 A 
ENDBRANCH  21  24
ENDBRANCH  13   4
ENDBRANCH   7  13
BRANCH   9  14
ATOM     14  C   UNL     1      -5.731 -11.036  11.042  0.00  0.00    +0.103 C 
BRANCH  14  18
ATOM      1  O   UNL     1      -7.015 -10.415   9.148  0.00  0.00    -0.276 OA
ATOM      2  O   UNL     1      -8.346 -15.144   9.711  0.00  0.00    -0.377 OA
ATOM      5  N   UNL     1      -7.478 -12.489  10.081  0.00  0.00    -0.297 N 
ATOM     18  C   UNL     1      -6.798 -11.276  10.004  0.00  0.00    +0.216 C 
ATOM     19  C   UNL     1      -8.525 -12.805   9.110  0.00  0.00    +0.136 C 
ATOM     20  C   UNL     1      -7.335 -13.478  11.155  0.00  0.00    +0.136 C 
ATOM     22  C   UNL     1      -8.370 -14.234   8.608  0.00  0.00    +0.179 C 
ATOM     23  C   UNL     1      -7.235 -14.881  10.571  0.00  0.00    +0.179 C 
ENDBRANCH  14  18
ENDBRANCH   9  14
TORSDOF 6
ENDMDL
MODEL 8
REMARK VINA RESULT:      -6.1     35.054     36.872
REMARK  Name = 38028183
REMARK  9 active torsions:
REMARK  status: ('A' for Active; 'I' for Inactive)
REMARK    1  A    between atoms: N_4  and  C_13
REMARK    2  A    between atoms: C_6  and  C_10
REMARK    3  A    between atoms: C_7  and  C_13
REMARK    4  A    between atoms: C_9  and  C_14
REMARK    5  A    between atoms: C_10  and  C_15
REMARK    6  A    between atoms: C_10  and  C_16
REMARK    7  A    between atoms: C_11  and  C_17
REMARK    8  A    between atoms: C_14  and  C_18
REMARK    9  A    between atoms: C_21  and  C_24
REMARK                            x       y       z     vdW  Elec       q    Type
REMARK                         _______ _______ _______ _____ _____    ______ ____
ROOT
ATOM      6  C   UNL     1       8.932   8.525   4.889  0.00  0.00    +0.000 C 
ATOM      7  C   UNL     1       8.610   9.187   6.252  0.00  0.00    +0.032 C 
ATOM      8  C   UNL     1       8.442   7.068   4.872  0.00  0.00    +0.012 C 
ATOM      9  C   UNL     1       9.082   6.224   5.989  0.00  0.00    +0.023 C 
ATOM     11  C   UNL     1       9.041   6.935   7.327  0.00  0.00    -0.073 C 
ATOM     12  C   UNL     1       8.815   8.258   7.425  0.00  0.00    -0.022 C 
ATOM     17  C   UNL     1       9.220   6.084   8.553  0.00  0.00    +0.039 C 
ENDROOT
BRANCH   6  10
ATOM     10  C   UNL     1       8.312   9.296   3.721  0.00  0.00    -0.013 C 
ATOM     15  C   UNL     1       8.435   8.494   2.429  0.00  0.00    +0.007 C 
ATOM     16  C   UNL     1       6.852   9.623   4.015  0.00  0.00    +0.007 C 
ENDBRANCH   6  10
BRANCH   7  13
ATOM     13  C   UNL     1       9.437  10.461   6.458  0.00  0.00    +0.112 C 
BRANCH  13   4
ATOM      3  O   UNL     1      11.492  10.476   8.463  0.00  0.00    -0.270 OA
ATOM      4  N   UNL     1      10.828  10.199   6.257  0.00  0.00    -0.311 N 
ATOM     21  C   UNL     1      11.763  10.227   7.291  0.00  0.00    +0.244 C 
ATOM     30  H   UNL     1      11.113   9.895   5.331  0.00  0.00    +0.149 HD
BRANCH  21  24
ATOM     24  C   UNL     1      13.174   9.958   6.913  0.00  0.00    +0.037 A 
ATOM     25  C   UNL     1      14.098  11.004   6.881  0.00  0.00    +0.013 A 
ATOM     26  C   UNL     1      13.578   8.663   6.590  0.00  0.00    +0.013 A 
ATOM     27  C   UNL     1      15.423  10.753   6.528  0.00  0.00    +0.001 A 
ATOM     28  C   UNL     1      14.903   8.412   6.237  0.00  0.00    +0.001 A 
ATOM     29  C   UNL     1      15.826   9.458   6.205  0.00  0.00    +0.000 A 
ENDBRANCH  21  24
ENDBRANCH  13   4
ENDBRANCH   7  13
BRANCH   9  14
ATOM     14  C   UNL     1      10.516   5.823   5.625  0.00  0.00    +0.103 C 
BRANCH  14  18
ATOM      1  O   UNL     1       9.964   3.591   5.046  0.00  0.00    -0.276 OA
ATOM      2  O   UNL     1      11.566   5.348   0.710  0.00  0.00    -0.377 OA
ATOM      5  N   UNL     1      11.087   4.833   3.438  0.00  0.00    -0.297 N 
ATOM     18  C   UNL     1      10.495   4.643   4.685  0.00  0.00    +0.216 C 
ATOM     19  C   UNL     1      11.106   3.742   2.463  0.00  0.00    +0.136 C 
ATOM     20  C   UNL     1      11.836   6.024   3.024  0.00  0.00    +0.136 C 
ATOM     22  C   UNL     1      10.720   4.257   1.084  0.00  0.00    +0.179 C 
ATOM     23  C   UNL     1      11.425   6.443   1.618  0.00  0.00    +0.179 C 
ENDBRANCH  14  18
ENDBRANCH   9  14
TORSDOF 6
ENDMDL
MODEL 9
REMARK VINA RESULT:      -6.1     27.283     31.297
REMARK  Name = 38028183
REMARK  9 active torsions:
REMARK  status: ('A' for Active; 'I' for Inactive)
REMARK    1  A    between atoms: N_4  and  C_13
REMARK    2  A    between atoms: C_6  and  C_10
REMARK    3  A    between atoms: C_7  and  C_13
REMARK    4  A    between atoms: C_9  and  C_14
REMARK    5  A    between atoms: C_10  and  C_15
REMARK    6  A    between atoms: C_10  and  C_16
REMARK    7  A    between atoms: C_11  and  C_17
REMARK    8  A    between atoms: C_14  and  C_18
REMARK    9  A    between atoms: C_21  and  C_24
REMARK                            x       y       z     vdW  Elec       q    Type
REMARK                         _______ _______ _______ _____ _____    ______ ____
ROOT
ATOM      6  C   UNL     1      13.514   9.320  18.942  0.00  0.00    +0.000 C 
ATOM      7  C   UNL     1      12.813   7.975  19.255  0.00  0.00    +0.032 C 
ATOM      8  C   UNL     1      15.025   9.107  18.756  0.00  0.00    +0.012 C 
ATOM      9  C   UNL     1      15.685   8.491  20.004  0.00  0.00    +0.023 C 
ATOM     11  C   UNL     1      14.895   7.311  20.535  0.00  0.00    -0.073 C 
ATOM     12  C   UNL     1      13.617   7.090  20.177  0.00  0.00    -0.022 C 
ATOM     17  C   UNL     1      15.623   6.366  21.449  0.00  0.00    +0.039 C 
ENDROOT
BRANCH   6  10
ATOM     10  C   UNL     1      12.927   9.992  17.697  0.00  0.00    -0.013 C 
ATOM     15  C   UNL     1      13.753  11.216  17.313  0.00  0.00    +0.007 C 
ATOM     16  C   UNL     1      12.861   9.000  16.540  0.00  0.00    +0.007 C 
ENDBRANCH   6  10
BRANCH   7  13
ATOM     13  C   UNL     1      11.419   8.203  19.852  0.00  0.00    +0.112 C 
BRANCH  13   4
ATOM      3  O   UNL     1      11.022   8.401  22.689  0.00  0.00    -0.270 OA
ATOM      4  N   UNL     1      11.391   9.403  20.628  0.00  0.00    -0.311 N 
ATOM     21  C   UNL     1      11.192   9.409  22.009  0.00  0.00    +0.244 C 
ATOM     30  H   UNL     1      11.615  10.270  20.150  0.00  0.00    +0.149 HD
BRANCH  21  24
ATOM     24  C   UNL     1      11.163  10.742  22.665  0.00  0.00    +0.037 A 
ATOM     25  C   UNL     1      11.314  11.898  21.899  0.00  0.00    +0.013 A 
ATOM     26  C   UNL     1      10.983  10.838  24.045  0.00  0.00    +0.013 A 
ATOM     27  C   UNL     1      11.285  13.150  22.514  0.00  0.00    +0.001 A 
ATOM     28  C   UNL     1      10.953  12.089  24.659  0.00  0.00    +0.001 A 
ATOM     29  C   UNL     1      11.105  13.246  23.894  0.00  0.00    +0.000 A 
ENDBRANCH  21  24
ENDBRANCH  13   4
ENDBRANCH   7  13
BRANCH   9  14
ATOM     14  C   UNL     1      15.893   9.546  21.096  0.00  0.00    +0.103 C 
BRANCH  14  18
ATOM      1  O   UNL     1      18.139   8.788  21.028  0.00  0.00    -0.276 OA
ATOM      2  O   UNL     1      18.697  13.289  22.999  0.00  0.00    -0.377 OA
ATOM      5  N   UNL     1      17.746  10.768  22.175  0.00  0.00    -0.297 N 
ATOM     18  C   UNL     1      17.361   9.657  21.427  0.00  0.00    +0.216 C 
ATOM     19  C   UNL     1      19.151  10.956  22.535  0.00  0.00    +0.136 C 
ATOM     20  C   UNL     1      16.835  11.751  22.770  0.00  0.00    +0.136 C 
ATOM     22  C   UNL     1      19.571  12.399  22.299  0.00  0.00    +0.179 C 
ATOM     23  C   UNL     1      17.352  13.164  22.530  0.00  0.00    +0.179 C 
ENDBRANCH  14  18
ENDBRANCH   9  14
TORSDOF 6
ENDMDL
MODEL 10
REMARK VINA RESULT:      -6.0      9.760     11.999
REMARK  Name = 38028183
REMARK  9 active torsions:
REMARK  status: ('A' for Active; 'I' for Inactive)
REMARK    1  A    between atoms: N_4  and  C_13
REMARK    2  A    between atoms: C_6  and  C_10
REMARK    3  A    between atoms: C_7  and  C_13
REMARK    4  A    between atoms: C_9  and  C_14
REMARK    5  A    between atoms: C_10  and  C_15
REMARK    6  A    between atoms: C_10  and  C_16
REMARK    7  A    between atoms: C_11  and  C_17
REMARK    8  A    between atoms: C_14  and  C_18
REMARK    9  A    between atoms: C_21  and  C_24
REMARK                            x       y       z     vdW  Elec       q    Type
REMARK                         _______ _______ _______ _____ _____    ______ ____
ROOT
ATOM      6  C   UNL     1     -15.048   9.138  21.126  0.00  0.00    +0.000 C 
ATOM      7  C   UNL     1     -15.753   8.358  22.264  0.00  0.00    +0.032 C 
ATOM      8  C   UNL     1     -14.527   8.167  20.054  0.00  0.00    +0.012 C 
ATOM      9  C   UNL     1     -13.534   7.140  20.630  0.00  0.00    +0.023 C 
ATOM     11  C   UNL     1     -14.048   6.519  21.914  0.00  0.00    -0.073 C 
ATOM     12  C   UNL     1     -15.050   7.070  22.622  0.00  0.00    -0.022 C 
ATOM     17  C   UNL     1     -13.415   5.223  22.339  0.00  0.00    +0.039 C 
ENDROOT
BRANCH   6  10
ATOM     10  C   UNL     1     -15.978  10.171  20.483  0.00  0.00    -0.013 C 
ATOM     15  C   UNL     1     -15.220  11.000  19.451  0.00  0.00    +0.007 C 
ATOM     16  C   UNL     1     -17.178   9.480  19.844  0.00  0.00    +0.007 C 
ENDBRANCH   6  10
BRANCH   7  13
ATOM     13  C   UNL     1     -15.902   9.225  23.519  0.00  0.00    +0.112 C 
BRANCH  13   4
ATOM      3  O   UNL     1     -15.245  11.175  25.522  0.00  0.00    -0.270 OA
ATOM      4  N   UNL     1     -14.645   9.378  24.182  0.00  0.00    -0.311 N 
ATOM     21  C   UNL     1     -14.409  10.356  25.148  0.00  0.00    +0.244 C 
ATOM     30  H   UNL     1     -13.933   8.678  23.992  0.00  0.00    +0.149 HD
BRANCH  21  24
ATOM     24  C   UNL     1     -13.041  10.399  25.724  0.00  0.00    +0.037 A 
ATOM     25  C   UNL     1     -12.825   9.984  27.039  0.00  0.00    +0.013 A 
ATOM     26  C   UNL     1     -11.971  10.851  24.951  0.00  0.00    +0.013 A 
ATOM     27  C   UNL     1     -11.540  10.023  27.579  0.00  0.00    +0.001 A 
ATOM     28  C   UNL     1     -10.687  10.888  25.492  0.00  0.00    +0.001 A 
ATOM     29  C   UNL     1     -10.471  10.475  26.807  0.00  0.00    +0.000 A 
ENDBRANCH  21  24
ENDBRANCH  13   4
ENDBRANCH   7  13
BRANCH   9  14
ATOM     14  C   UNL     1     -12.151   7.767  20.840  0.00  0.00    +0.103 C 
BRANCH  14  18
ATOM      1  O   UNL     1     -11.260   6.735  18.901  0.00  0.00    -0.276 OA
ATOM      2  O   UNL     1     -10.502  11.516  17.887  0.00  0.00    -0.377 OA
ATOM      5  N   UNL     1     -10.887   9.015  19.127  0.00  0.00    -0.297 N 
ATOM     18  C   UNL     1     -11.393   7.783  19.537  0.00  0.00    +0.216 C 
ATOM     19  C   UNL     1     -10.143   9.121  17.872  0.00  0.00    +0.136 C 
ATOM     20  C   UNL     1     -10.917  10.252  19.916  0.00  0.00    +0.136 C 
ATOM     22  C   UNL     1     -10.605  10.337  17.083  0.00  0.00    +0.179 C 
ATOM     23  C   UNL     1     -11.341  11.425  19.042  0.00  0.00    +0.179 C 
ENDBRANCH  14  18
ENDBRANCH   9  14
TORSDOF 6
ENDMDL
