MODEL 1
REMARK VINA RESULT:      -7.3      0.000      0.000
REMARK  Name = 38030795
REMARK  12 active torsions:
REMARK  status: ('A' for Active; 'I' for Inactive)
REMARK    1  A    between atoms: O_1  and  C_22
REMARK    2  A    between atoms: O_3  and  C_31
REMARK    3  A    between atoms: O_3  and  C_32
REMARK    4  A    between atoms: N_4  and  C_12
REMARK    5  A    between atoms: C_7  and  C_11
REMARK    6  A    between atoms: C_8  and  C_12
REMARK    7  A    between atoms: C_10  and  C_15
REMARK    8  A    between atoms: C_11  and  C_18
REMARK    9  A    between atoms: C_11  and  C_19
REMARK   10  A    between atoms: C_14  and  C_23
REMARK   11  A    between atoms: C_15  and  C_24
REMARK   12  A    between atoms: C_25  and  C_26
REMARK                            x       y       z     vdW  Elec       q    Type
REMARK                         _______ _______ _______ _____ _____    ______ ____
ROOT
ATOM      7  C   UNL     1      13.147   9.767  19.867  0.00  0.00    +0.000 C 
ATOM      8  C   UNL     1      11.692   9.784  20.400  0.00  0.00    +0.029 C 
ATOM      9  C   UNL     1      13.443   8.437  19.158  0.00  0.00    +0.012 C 
ATOM     10  C   UNL     1      13.251   7.226  20.090  0.00  0.00    +0.024 C 
ATOM     13  C   UNL     1      11.258   8.457  20.975  0.00  0.00    -0.023 C 
ATOM     14  C   UNL     1      11.948   7.308  20.859  0.00  0.00    -0.073 C 
ATOM     23  C   UNL     1      11.431   6.027  21.453  0.00  0.00    +0.039 C 
ENDROOT
BRANCH   7  11
ATOM     11  C   UNL     1      13.416  10.935  18.911  0.00  0.00    -0.013 C 
ATOM     18  C   UNL     1      14.601  11.760  19.401  0.00  0.00    +0.007 C 
ATOM     19  C   UNL     1      13.661  10.420  17.497  0.00  0.00    +0.007 C 
ENDBRANCH   7  11
BRANCH   8  12
ATOM     12  C   UNL     1      11.502  10.883  21.452  0.00  0.00    +0.092 C 
BRANCH  12   4
ATOM      4  N   UNL     1      12.013  10.448  22.750  0.00  0.00    -0.302 NA
ATOM     16  C   UNL     1      13.280  11.105  23.097  0.00  0.00    +0.087 C 
ATOM     17  C   UNL     1      11.017  10.607  23.820  0.00  0.00    +0.087 C 
ATOM     20  C   UNL     1      13.131  12.573  23.502  0.00  0.00    +0.046 C 
ATOM     21  C   UNL     1      10.791  12.056  24.251  0.00  0.00    +0.046 C 
ATOM     22  C   UNL     1      12.107  12.736  24.621  0.00  0.00    +0.117 C 
BRANCH  22   1
ATOM      1  O   UNL     1      11.889  14.123  24.851  0.00  0.00    -0.392 OA
ATOM     33  H   UNL     1      11.006  14.341  24.509  0.00  0.00    +0.210 HD
ENDBRANCH  22   1
ENDBRANCH  12   4
ENDBRANCH   8  12
BRANCH  10  15
ATOM     15  C   UNL     1      14.442   7.068  21.042  0.00  0.00    +0.105 C 
BRANCH  15  24
ATOM      2  O   UNL     1      16.849   6.671  20.988  0.00  0.00    -0.420 OA
ATOM      5  N   UNL     1      15.788   6.122  19.096  0.00  0.00    -0.112 NA
ATOM      6  N   UNL     1      17.133   5.848  18.928  0.00  0.00    -0.107 NA
ATOM     24  C   UNL     1      15.669   6.600  20.313  0.00  0.00    +0.218 A 
ATOM     25  C   UNL     1      17.714   6.184  20.056  0.00  0.00    +0.248 A 
BRANCH  25  26
ATOM     26  C   UNL     1      19.090   6.117  20.451  0.00  0.00    +0.039 A 
ATOM     27  C   UNL     1      19.678   7.194  21.115  0.00  0.00    +0.017 A 
ATOM     28  C   UNL     1      19.840   4.976  20.173  0.00  0.00    +0.017 A 
ATOM     29  C   UNL     1      21.017   7.129  21.499  0.00  0.00    +0.046 A 
ATOM     30  C   UNL     1      21.180   4.910  20.558  0.00  0.00    +0.046 A 
ATOM     31  C   UNL     1      21.768   5.986  21.221  0.00  0.00    +0.120 A 
BRANCH  31   3
ATOM      3  O   UNL     1      23.074   5.921  21.600  0.00  0.00    -0.495 OA
ATOM     32  C   UNL     1      23.756   4.688  21.370  0.00  0.00    +0.277 C 
ENDBRANCH  31   3
ENDBRANCH  25  26
ENDBRANCH  15  24
ENDBRANCH  10  15
TORSDOF 8
ENDMDL
MODEL 2
REMARK VINA RESULT:      -7.1      3.023      5.341
REMARK  Name = 38030795
REMARK  12 active torsions:
REMARK  status: ('A' for Active; 'I' for Inactive)
REMARK    1  A    between atoms: O_1  and  C_22
REMARK    2  A    between atoms: O_3  and  C_31
REMARK    3  A    between atoms: O_3  and  C_32
REMARK    4  A    between atoms: N_4  and  C_12
REMARK    5  A    between atoms: C_7  and  C_11
REMARK    6  A    between atoms: C_8  and  C_12
REMARK    7  A    between atoms: C_10  and  C_15
REMARK    8  A    between atoms: C_11  and  C_18
REMARK    9  A    between atoms: C_11  and  C_19
REMARK   10  A    between atoms: C_14  and  C_23
REMARK   11  A    between atoms: C_15  and  C_24
REMARK   12  A    between atoms: C_25  and  C_26
REMARK                            x       y       z     vdW  Elec       q    Type
REMARK                         _______ _______ _______ _____ _____    ______ ____
ROOT
ATOM      7  C   UNL     1      16.699   8.682  21.361  0.00  0.00    +0.000 C 
ATOM      8  C   UNL     1      15.906   7.878  20.300  0.00  0.00    +0.029 C 
ATOM      9  C   UNL     1      18.191   8.725  20.997  0.00  0.00    +0.012 C 
ATOM     10  C   UNL     1      18.806   7.317  20.894  0.00  0.00    +0.024 C 
ATOM     13  C   UNL     1      16.647   6.656  19.810  0.00  0.00    -0.023 C 
ATOM     14  C   UNL     1      17.937   6.382  20.077  0.00  0.00    -0.073 C 
ATOM     23  C   UNL     1      18.598   5.145  19.534  0.00  0.00    +0.039 C 
ENDROOT
BRANCH   7  11
ATOM     11  C   UNL     1      16.160  10.109  21.511  0.00  0.00    -0.013 C 
ATOM     18  C   UNL     1      17.073  10.929  22.416  0.00  0.00    +0.007 C 
ATOM     19  C   UNL     1      16.017  10.770  20.144  0.00  0.00    +0.007 C 
ENDBRANCH   7  11
BRANCH   8  12
ATOM     12  C   UNL     1      14.532   7.462  20.835  0.00  0.00    +0.092 C 
BRANCH  12   4
ATOM      4  N   UNL     1      13.533   7.489  19.769  0.00  0.00    -0.302 NA
ATOM     16  C   UNL     1      12.438   6.540  20.008  0.00  0.00    +0.087 C 
ATOM     17  C   UNL     1      13.022   8.845  19.522  0.00  0.00    +0.087 C 
ATOM     20  C   UNL     1      11.465   6.974  21.106  0.00  0.00    +0.046 C 
ATOM     21  C   UNL     1      12.069   9.358  20.603  0.00  0.00    +0.046 C 
ATOM     22  C   UNL     1      10.925   8.377  20.844  0.00  0.00    +0.117 C 
BRANCH  22   1
ATOM      1  O   UNL     1      10.156   8.794  21.966  0.00  0.00    -0.392 OA
ATOM     33  H   UNL     1       9.776   7.997  22.372  0.00  0.00    +0.210 HD
ENDBRANCH  22   1
ENDBRANCH  12   4
ENDBRANCH   8  12
BRANCH  10  15
ATOM     15  C   UNL     1      19.086   6.734  22.283  0.00  0.00    +0.105 C 
BRANCH  15  24
ATOM      2  O   UNL     1      20.861   5.062  22.168  0.00  0.00    -0.420 OA
ATOM      5  N   UNL     1      21.554   7.091  22.804  0.00  0.00    -0.112 NA
ATOM      6  N   UNL     1      22.652   6.251  22.782  0.00  0.00    -0.107 NA
ATOM     24  C   UNL     1      20.531   6.355  22.438  0.00  0.00    +0.218 A 
ATOM     25  C   UNL     1      22.200   5.077  22.406  0.00  0.00    +0.248 A 
BRANCH  25  26
ATOM     26  C   UNL     1      22.888   3.835  22.210  0.00  0.00    +0.039 A 
ATOM     27  C   UNL     1      23.449   3.537  20.968  0.00  0.00    +0.017 A 
ATOM     28  C   UNL     1      22.997   2.925  23.261  0.00  0.00    +0.017 A 
ATOM     29  C   UNL     1      24.118   2.328  20.778  0.00  0.00    +0.046 A 
ATOM     30  C   UNL     1      23.666   1.715  23.070  0.00  0.00    +0.046 A 
ATOM     31  C   UNL     1      24.227   1.417  21.829  0.00  0.00    +0.120 A 
BRANCH  31   3
ATOM      3  O   UNL     1      24.883   0.240  21.643  0.00  0.00    -0.495 OA
ATOM     32  C   UNL     1      25.999  -0.022  22.494  0.00  0.00    +0.277 C 
ENDBRANCH  31   3
ENDBRANCH  25  26
ENDBRANCH  15  24
ENDBRANCH  10  15
TORSDOF 8
ENDMDL
MODEL 3
REMARK VINA RESULT:      -7.1      1.407      1.944
REMARK  Name = 38030795
REMARK  12 active torsions:
REMARK  status: ('A' for Active; 'I' for Inactive)
REMARK    1  A    between atoms: O_1  and  C_22
REMARK    2  A    between atoms: O_3  and  C_31
REMARK    3  A    between atoms: O_3  and  C_32
REMARK    4  A    between atoms: N_4  and  C_12
REMARK    5  A    between atoms: C_7  and  C_11
REMARK    6  A    between atoms: C_8  and  C_12
REMARK    7  A    between atoms: C_10  and  C_15
REMARK    8  A    between atoms: C_11  and  C_18
REMARK    9  A    between atoms: C_11  and  C_19
REMARK   10  A    between atoms: C_14  and  C_23
REMARK   11  A    between atoms: C_15  and  C_24
REMARK   12  A    between atoms: C_25  and  C_26
REMARK                            x       y       z     vdW  Elec       q    Type
REMARK                         _______ _______ _______ _____ _____    ______ ____
ROOT
ATOM      7  C   UNL     1      14.710  10.374  20.799  0.00  0.00    +0.000 C 
ATOM      8  C   UNL     1      13.313  11.045  20.828  0.00  0.00    +0.029 C 
ATOM      9  C   UNL     1      14.943   9.680  19.448  0.00  0.00    +0.012 C 
ATOM     10  C   UNL     1      13.879   8.605  19.155  0.00  0.00    +0.024 C 
ATOM     13  C   UNL     1      12.244  10.213  20.160  0.00  0.00    -0.023 C 
ATOM     14  C   UNL     1      12.477   9.113  19.422  0.00  0.00    -0.073 C 
ATOM     23  C   UNL     1      11.349   8.354  18.780  0.00  0.00    +0.039 C 
ENDROOT
BRANCH   7  11
ATOM     11  C   UNL     1      15.832  11.385  21.063  0.00  0.00    -0.013 C 
ATOM     18  C   UNL     1      16.898  10.771  21.964  0.00  0.00    +0.007 C 
ATOM     19  C   UNL     1      16.440  11.860  19.748  0.00  0.00    +0.007 C 
ENDBRANCH   7  11
BRANCH   8  12
ATOM     12  C   UNL     1      12.886  11.369  22.264  0.00  0.00    +0.092 C 
BRANCH  12   4
ATOM      4  N   UNL     1      11.429  11.419  22.369  0.00  0.00    -0.302 NA
ATOM     16  C   UNL     1      10.929  10.651  23.517  0.00  0.00    +0.087 C 
ATOM     17  C   UNL     1      10.920  12.797  22.386  0.00  0.00    +0.087 C 
ATOM     20  C   UNL     1      11.178  11.318  24.871  0.00  0.00    +0.046 C 
ATOM     21  C   UNL     1      11.169  13.538  23.700  0.00  0.00    +0.046 C 
ATOM     22  C   UNL     1      10.640  12.745  24.892  0.00  0.00    +0.117 C 
BRANCH  22   1
ATOM      1  O   UNL     1      11.035  13.372  26.106  0.00  0.00    -0.392 OA
ATOM     33  H   UNL     1      11.898  13.790  25.952  0.00  0.00    +0.210 HD
ENDBRANCH  22   1
ENDBRANCH  12   4
ENDBRANCH   8  12
BRANCH  10  15
ATOM     15  C   UNL     1      14.158   7.322  19.946  0.00  0.00    +0.105 C 
BRANCH  15  24
ATOM      2  O   UNL     1      16.468   6.840  20.570  0.00  0.00    -0.420 OA
ATOM      5  N   UNL     1      15.917   6.169  18.508  0.00  0.00    -0.112 NA
ATOM      6  N   UNL     1      17.241   5.835  18.728  0.00  0.00    -0.107 NA
ATOM     24  C   UNL     1      15.507   6.752  19.610  0.00  0.00    +0.218 A 
ATOM     25  C   UNL     1      17.520   6.246  19.943  0.00  0.00    +0.248 A 
BRANCH  25  26
ATOM     26  C   UNL     1      18.736   6.166  20.697  0.00  0.00    +0.039 A 
ATOM     27  C   UNL     1      18.917   6.977  21.817  0.00  0.00    +0.017 A 
ATOM     28  C   UNL     1      19.737   5.275  20.312  0.00  0.00    +0.017 A 
ATOM     29  C   UNL     1      20.101   6.898  22.551  0.00  0.00    +0.046 A 
ATOM     30  C   UNL     1      20.921   5.196  21.046  0.00  0.00    +0.046 A 
ATOM     31  C   UNL     1      21.103   6.007  22.165  0.00  0.00    +0.120 A 
BRANCH  31   3
ATOM      3  O   UNL     1      22.256   5.928  22.884  0.00  0.00    -0.495 OA
ATOM     32  C   UNL     1      23.045   4.750  22.717  0.00  0.00    +0.277 C 
ENDBRANCH  31   3
ENDBRANCH  25  26
ENDBRANCH  15  24
ENDBRANCH  10  15
TORSDOF 8
ENDMDL
MODEL 4
REMARK VINA RESULT:      -6.7     26.917     31.161
REMARK  Name = 38030795
REMARK  12 active torsions:
REMARK  status: ('A' for Active; 'I' for Inactive)
REMARK    1  A    between atoms: O_1  and  C_22
REMARK    2  A    between atoms: O_3  and  C_31
REMARK    3  A    between atoms: O_3  and  C_32
REMARK    4  A    between atoms: N_4  and  C_12
REMARK    5  A    between atoms: C_7  and  C_11
REMARK    6  A    between atoms: C_8  and  C_12
REMARK    7  A    between atoms: C_10  and  C_15
REMARK    8  A    between atoms: C_11  and  C_18
REMARK    9  A    between atoms: C_11  and  C_19
REMARK   10  A    between atoms: C_14  and  C_23
REMARK   11  A    between atoms: C_15  and  C_24
REMARK   12  A    between atoms: C_25  and  C_26
REMARK                            x       y       z     vdW  Elec       q    Type
REMARK                         _______ _______ _______ _____ _____    ______ ____
ROOT
ATOM      7  C   UNL     1      -3.631 -10.755  14.524  0.00  0.00    +0.000 C 
ATOM      8  C   UNL     1      -4.363 -11.278  13.262  0.00  0.00    +0.029 C 
ATOM      9  C   UNL     1      -4.000 -11.606  15.749  0.00  0.00    +0.012 C 
ATOM     10  C   UNL     1      -5.515 -11.602  16.026  0.00  0.00    +0.024 C 
ATOM     13  C   UNL     1      -5.783 -11.710  13.539  0.00  0.00    -0.023 C 
ATOM     14  C   UNL     1      -6.319 -11.847  14.765  0.00  0.00    -0.073 C 
ATOM     23  C   UNL     1      -7.741 -12.298  14.947  0.00  0.00    +0.039 C 
ENDROOT
BRANCH   7  11
ATOM     11  C   UNL     1      -2.110 -10.746  14.337  0.00  0.00    -0.013 C 
ATOM     18  C   UNL     1      -1.420 -10.287  15.617  0.00  0.00    +0.007 C 
ATOM     19  C   UNL     1      -1.617 -12.129  13.921  0.00  0.00    +0.007 C 
ENDBRANCH   7  11
BRANCH   8  12
ATOM     12  C   UNL     1      -4.357 -10.229  12.145  0.00  0.00    +0.092 C 
BRANCH  12   4
ATOM      4  N   UNL     1      -3.441 -10.619  11.075  0.00  0.00    -0.302 NA
ATOM     16  C   UNL     1      -4.037 -11.608  10.168  0.00  0.00    +0.087 C 
ATOM     17  C   UNL     1      -2.924  -9.458  10.336  0.00  0.00    +0.087 C 
ATOM     20  C   UNL     1      -5.097 -11.034   9.226  0.00  0.00    +0.046 C 
ATOM     21  C   UNL     1      -3.945  -8.810   9.401  0.00  0.00    +0.046 C 
ATOM     22  C   UNL     1      -4.556  -9.836   8.450  0.00  0.00    +0.117 C 
BRANCH  22   1
ATOM      1  O   UNL     1      -5.619  -9.244   7.714  0.00  0.00    -0.392 OA
ATOM     33  H   UNL     1      -5.846  -9.850   6.988  0.00  0.00    +0.210 HD
ENDBRANCH  22   1
ENDBRANCH  12   4
ENDBRANCH   8  12
BRANCH  10  15
ATOM     15  C   UNL     1      -5.947 -10.300  16.710  0.00  0.00    +0.105 C 
BRANCH  15  24
ATOM      2  O   UNL     1      -7.904 -10.855  18.059  0.00  0.00    -0.420 OA
ATOM      5  N   UNL     1      -6.029 -10.558  19.243  0.00  0.00    -0.112 NA
ATOM      6  N   UNL     1      -7.048 -10.864  20.125  0.00  0.00    -0.107 NA
ATOM     24  C   UNL     1      -6.574 -10.564  18.049  0.00  0.00    +0.218 A 
ATOM     25  C   UNL     1      -8.124 -11.028  19.391  0.00  0.00    +0.248 A 
BRANCH  25  26
ATOM     26  C   UNL     1      -9.467 -11.358  19.768  0.00  0.00    +0.039 A 
ATOM     27  C   UNL     1     -10.452 -10.370  19.772  0.00  0.00    +0.017 A 
ATOM     28  C   UNL     1      -9.789 -12.666  20.127  0.00  0.00    +0.017 A 
ATOM     29  C   UNL     1     -11.759 -10.691  20.138  0.00  0.00    +0.046 A 
ATOM     30  C   UNL     1     -11.097 -12.987  20.494  0.00  0.00    +0.046 A 
ATOM     31  C   UNL     1     -12.081 -12.000  20.499  0.00  0.00    +0.120 A 
BRANCH  31   3
ATOM      3  O   UNL     1     -13.358 -12.313  20.852  0.00  0.00    -0.495 OA
ATOM     32  C   UNL     1     -13.815 -11.840  22.120  0.00  0.00    +0.277 C 
ENDBRANCH  31   3
ENDBRANCH  25  26
ENDBRANCH  15  24
ENDBRANCH  10  15
TORSDOF 8
ENDMDL
MODEL 5
REMARK VINA RESULT:      -6.7     26.733     29.827
REMARK  Name = 38030795
REMARK  12 active torsions:
REMARK  status: ('A' for Active; 'I' for Inactive)
REMARK    1  A    between atoms: O_1  and  C_22
REMARK    2  A    between atoms: O_3  and  C_31
REMARK    3  A    between atoms: O_3  and  C_32
REMARK    4  A    between atoms: N_4  and  C_12
REMARK    5  A    between atoms: C_7  and  C_11
REMARK    6  A    between atoms: C_8  and  C_12
REMARK    7  A    between atoms: C_10  and  C_15
REMARK    8  A    between atoms: C_11  and  C_18
REMARK    9  A    between atoms: C_11  and  C_19
REMARK   10  A    between atoms: C_14  and  C_23
REMARK   11  A    between atoms: C_15  and  C_24
REMARK   12  A    between atoms: C_25  and  C_26
REMARK                            x       y       z     vdW  Elec       q    Type
REMARK                         _______ _______ _______ _____ _____    ______ ____
ROOT
ATOM      7  C   UNL     1      -8.694 -10.826  15.904  0.00  0.00    +0.000 C 
ATOM      8  C   UNL     1     -10.202 -10.596  16.177  0.00  0.00    +0.029 C 
ATOM      9  C   UNL     1      -8.115 -11.835  16.907  0.00  0.00    +0.012 C 
ATOM     10  C   UNL     1      -8.281 -11.366  18.365  0.00  0.00    +0.024 C 
ATOM     13  C   UNL     1     -10.534 -10.541  17.649  0.00  0.00    -0.023 C 
ATOM     14  C   UNL     1      -9.685 -10.867  18.640  0.00  0.00    -0.073 C 
ATOM     23  C   UNL     1     -10.108 -10.796  20.081  0.00  0.00    +0.039 C 
ENDROOT
BRANCH   7  11
ATOM     11  C   UNL     1      -8.444 -11.316  14.473  0.00  0.00    -0.013 C 
ATOM     18  C   UNL     1      -7.715 -10.248  13.666  0.00  0.00    +0.007 C 
ATOM     19  C   UNL     1      -7.652 -12.620  14.488  0.00  0.00    +0.007 C 
ENDBRANCH   7  11
BRANCH   8  12
ATOM     12  C   UNL     1     -10.699  -9.317  15.493  0.00  0.00    +0.092 C 
BRANCH  12   4
ATOM      4  N   UNL     1     -11.302  -8.412  16.469  0.00  0.00    -0.302 NA
ATOM     16  C   UNL     1     -10.470  -7.226  16.714  0.00  0.00    +0.087 C 
ATOM     17  C   UNL     1     -12.675  -8.036  16.104  0.00  0.00    +0.087 C 
ATOM     20  C   UNL     1     -10.481  -6.209  15.571  0.00  0.00    +0.046 C 
ATOM     21  C   UNL     1     -12.762  -7.047  14.941  0.00  0.00    +0.046 C 
ATOM     22  C   UNL     1     -11.906  -5.810  15.200  0.00  0.00    +0.117 C 
BRANCH  22   1
ATOM      1  O   UNL     1     -11.870  -4.992  14.037  0.00  0.00    -0.392 OA
ATOM     33  H   UNL     1     -10.940  -4.905  13.770  0.00  0.00    +0.210 HD
ENDBRANCH  22   1
ENDBRANCH  12   4
ENDBRANCH   8  12
BRANCH  10  15
ATOM     15  C   UNL     1      -7.240 -10.300  18.723  0.00  0.00    +0.105 C 
BRANCH  15  24
ATOM      2  O   UNL     1      -5.492 -10.404  17.023  0.00  0.00    -0.420 OA
ATOM      5  N   UNL     1      -4.929 -11.345  18.973  0.00  0.00    -0.112 NA
ATOM      6  N   UNL     1      -3.857 -11.474  18.111  0.00  0.00    -0.107 NA
ATOM     24  C   UNL     1      -5.860 -10.714  18.296  0.00  0.00    +0.218 A 
ATOM     25  C   UNL     1      -4.230 -10.912  16.985  0.00  0.00    +0.248 A 
BRANCH  25  26
ATOM     26  C   UNL     1      -3.526 -10.752  15.746  0.00  0.00    +0.039 A 
ATOM     27  C   UNL     1      -4.203 -10.898  14.535  0.00  0.00    +0.017 A 
ATOM     28  C   UNL     1      -2.165 -10.447  15.752  0.00  0.00    +0.017 A 
ATOM     29  C   UNL     1      -3.518 -10.742  13.331  0.00  0.00    +0.046 A 
ATOM     30  C   UNL     1      -1.480 -10.290  14.547  0.00  0.00    +0.046 A 
ATOM     31  C   UNL     1      -2.156 -10.438  13.336  0.00  0.00    +0.120 A 
BRANCH  31   3
ATOM      3  O   UNL     1      -1.490 -10.281  12.160  0.00  0.00    -0.495 OA
ATOM     32  C   UNL     1      -2.205  -9.670  11.085  0.00  0.00    +0.277 C 
ENDBRANCH  31   3
ENDBRANCH  25  26
ENDBRANCH  15  24
ENDBRANCH  10  15
TORSDOF 8
ENDMDL
MODEL 6
REMARK VINA RESULT:      -6.6      3.065      5.071
REMARK  Name = 38030795
REMARK  12 active torsions:
REMARK  status: ('A' for Active; 'I' for Inactive)
REMARK    1  A    between atoms: O_1  and  C_22
REMARK    2  A    between atoms: O_3  and  C_31
REMARK    3  A    between atoms: O_3  and  C_32
REMARK    4  A    between atoms: N_4  and  C_12
REMARK    5  A    between atoms: C_7  and  C_11
REMARK    6  A    between atoms: C_8  and  C_12
REMARK    7  A    between atoms: C_10  and  C_15
REMARK    8  A    between atoms: C_11  and  C_18
REMARK    9  A    between atoms: C_11  and  C_19
REMARK   10  A    between atoms: C_14  and  C_23
REMARK   11  A    between atoms: C_15  and  C_24
REMARK   12  A    between atoms: C_25  and  C_26
REMARK                            x       y       z     vdW  Elec       q    Type
REMARK                         _______ _______ _______ _____ _____    ______ ____
ROOT
ATOM      7  C   UNL     1      13.648   8.492  21.264  0.00  0.00    +0.000 C 
ATOM      8  C   UNL     1      13.296   9.889  20.693  0.00  0.00    +0.029 C 
ATOM      9  C   UNL     1      14.768   8.606  22.309  0.00  0.00    +0.012 C 
ATOM     10  C   UNL     1      16.048   9.231  21.724  0.00  0.00    +0.024 C 
ATOM     13  C   UNL     1      14.510  10.761  20.474  0.00  0.00    -0.023 C 
ATOM     14  C   UNL     1      15.748  10.476  20.914  0.00  0.00    -0.073 C 
ATOM     23  C   UNL     1      16.898  11.412  20.662  0.00  0.00    +0.039 C 
ENDROOT
BRANCH   7  11
ATOM     11  C   UNL     1      12.425   7.808  21.886  0.00  0.00    -0.013 C 
ATOM     18  C   UNL     1      11.296   8.813  22.080  0.00  0.00    +0.007 C 
ATOM     19  C   UNL     1      11.969   6.641  21.016  0.00  0.00    +0.007 C 
ENDBRANCH   7  11
BRANCH   8  12
ATOM     12  C   UNL     1      12.510   9.769  19.383  0.00  0.00    +0.092 C 
BRANCH  12   4
ATOM      4  N   UNL     1      13.122   8.776  18.504  0.00  0.00    -0.302 NA
ATOM     16  C   UNL     1      12.128   8.075  17.679  0.00  0.00    +0.087 C 
ATOM     17  C   UNL     1      14.193   9.350  17.677  0.00  0.00    +0.087 C 
ATOM     20  C   UNL     1      11.556   8.920  16.540  0.00  0.00    +0.046 C 
ATOM     21  C   UNL     1      13.693  10.238  16.537  0.00  0.00    +0.046 C 
ATOM     22  C   UNL     1      12.668   9.507  15.674  0.00  0.00    +0.117 C 
BRANCH  22   1
ATOM      1  O   UNL     1      12.096  10.406  14.733  0.00  0.00    -0.392 OA
ATOM     33  H   UNL     1      12.812  10.968  14.393  0.00  0.00    +0.210 HD
ENDBRANCH  22   1
ENDBRANCH  12   4
ENDBRANCH   8  12
BRANCH  10  15
ATOM     15  C   UNL     1      16.830   8.209  20.890  0.00  0.00    +0.105 C 
BRANCH  15  24
ATOM      2  O   UNL     1      18.734   6.741  21.309  0.00  0.00    -0.420 OA
ATOM      5  N   UNL     1      19.011   8.834  22.049  0.00  0.00    -0.112 NA
ATOM      6  N   UNL     1      20.155   8.119  22.350  0.00  0.00    -0.107 NA
ATOM     24  C   UNL     1      18.209   7.990  21.442  0.00  0.00    +0.218 A 
ATOM     25  C   UNL     1      19.949   6.903  21.901  0.00  0.00    +0.248 A 
BRANCH  25  26
ATOM     26  C   UNL     1      20.791   5.743  21.934  0.00  0.00    +0.039 A 
ATOM     27  C   UNL     1      20.711   4.794  20.915  0.00  0.00    +0.017 A 
ATOM     28  C   UNL     1      21.690   5.564  22.985  0.00  0.00    +0.017 A 
ATOM     29  C   UNL     1      21.530   3.666  20.947  0.00  0.00    +0.046 A 
ATOM     30  C   UNL     1      22.509   4.435  23.017  0.00  0.00    +0.046 A 
ATOM     31  C   UNL     1      22.430   3.486  21.999  0.00  0.00    +0.120 A 
BRANCH  31   3
ATOM      3  O   UNL     1      23.231   2.387  22.027  0.00  0.00    -0.495 OA
ATOM     32  C   UNL     1      23.853   2.006  20.800  0.00  0.00    +0.277 C 
ENDBRANCH  31   3
ENDBRANCH  25  26
ENDBRANCH  15  24
ENDBRANCH  10  15
TORSDOF 8
ENDMDL
MODEL 7
REMARK VINA RESULT:      -6.6     27.856     29.756
REMARK  Name = 38030795
REMARK  12 active torsions:
REMARK  status: ('A' for Active; 'I' for Inactive)
REMARK    1  A    between atoms: O_1  and  C_22
REMARK    2  A    between atoms: O_3  and  C_31
REMARK    3  A    between atoms: O_3  and  C_32
REMARK    4  A    between atoms: N_4  and  C_12
REMARK    5  A    between atoms: C_7  and  C_11
REMARK    6  A    between atoms: C_8  and  C_12
REMARK    7  A    between atoms: C_10  and  C_15
REMARK    8  A    between atoms: C_11  and  C_18
REMARK    9  A    between atoms: C_11  and  C_19
REMARK   10  A    between atoms: C_14  and  C_23
REMARK   11  A    between atoms: C_15  and  C_24
REMARK   12  A    between atoms: C_25  and  C_26
REMARK                            x       y       z     vdW  Elec       q    Type
REMARK                         _______ _______ _______ _____ _____    ______ ____
ROOT
ATOM      7  C   UNL     1      -6.344 -11.235  15.153  0.00  0.00    +0.000 C 
ATOM      8  C   UNL     1      -7.127 -11.071  16.481  0.00  0.00    +0.029 C 
ATOM      9  C   UNL     1      -5.273 -12.327  15.293  0.00  0.00    +0.012 C 
ATOM     10  C   UNL     1      -4.268 -12.016  16.417  0.00  0.00    +0.024 C 
ATOM     13  C   UNL     1      -6.246 -11.177  17.703  0.00  0.00    -0.023 C 
ATOM     14  C   UNL     1      -4.964 -11.583  17.692  0.00  0.00    -0.073 C 
ATOM     23  C   UNL     1      -4.165 -11.672  18.963  0.00  0.00    +0.039 C 
ENDROOT
BRANCH   7  11
ATOM     11  C   UNL     1      -7.275 -11.568  13.982  0.00  0.00    -0.013 C 
ATOM     18  C   UNL     1      -7.175 -10.496  12.903  0.00  0.00    +0.007 C 
ATOM     19  C   UNL     1      -6.942 -12.943  13.412  0.00  0.00    +0.007 C 
ENDBRANCH   7  11
BRANCH   8  12
ATOM     12  C   UNL     1      -7.888  -9.741  16.513  0.00  0.00    +0.092 C 
BRANCH  12   4
ATOM      4  N   UNL     1      -9.330  -9.973  16.552  0.00  0.00    -0.302 NA
ATOM     16  C   UNL     1      -9.966  -9.327  17.709  0.00  0.00    +0.087 C 
ATOM     17  C   UNL     1      -9.989  -9.587  15.296  0.00  0.00    +0.087 C 
ATOM     20  C   UNL     1     -10.083  -7.807  17.588  0.00  0.00    +0.046 C 
ATOM     21  C   UNL     1     -10.107  -8.076  15.093  0.00  0.00    +0.046 C 
ATOM     22  C   UNL     1     -10.777  -7.407  16.290  0.00  0.00    +0.117 C 
BRANCH  22   1
ATOM      1  O   UNL     1     -10.719  -5.992  16.151  0.00  0.00    -0.392 OA
ATOM     33  H   UNL     1      -9.793  -5.753  15.978  0.00  0.00    +0.210 HD
ENDBRANCH  22   1
ENDBRANCH  12   4
ENDBRANCH   8  12
BRANCH  10  15
ATOM     15  C   UNL     1      -3.244 -10.968  15.967  0.00  0.00    +0.105 C 
BRANCH  15  24
ATOM      2  O   UNL     1      -3.579 -10.721  13.562  0.00  0.00    -0.420 OA
ATOM      5  N   UNL     1      -1.726 -11.845  14.118  0.00  0.00    -0.112 NA
ATOM      6  N   UNL     1      -1.790 -11.781  12.739  0.00  0.00    -0.107 NA
ATOM     24  C   UNL     1      -2.790 -11.213  14.557  0.00  0.00    +0.218 A 
ATOM     25  C   UNL     1      -2.887 -11.117  12.459  0.00  0.00    +0.248 A 
BRANCH  25  26
ATOM     26  C   UNL     1      -3.456 -10.749  11.196  0.00  0.00    +0.039 A 
ATOM     27  C   UNL     1      -4.246 -11.661  10.495  0.00  0.00    +0.017 A 
ATOM     28  C   UNL     1      -3.222  -9.480  10.668  0.00  0.00    +0.017 A 
ATOM     29  C   UNL     1      -4.800 -11.304   9.267  0.00  0.00    +0.046 A 
ATOM     30  C   UNL     1      -3.776  -9.122   9.439  0.00  0.00    +0.046 A 
ATOM     31  C   UNL     1      -4.566 -10.034   8.738  0.00  0.00    +0.120 A 
BRANCH  31   3
ATOM      3  O   UNL     1      -5.110  -9.684   7.541  0.00  0.00    -0.495 OA
ATOM     32  C   UNL     1      -6.515  -9.432   7.516  0.00  0.00    +0.277 C 
ENDBRANCH  31   3
ENDBRANCH  25  26
ENDBRANCH  15  24
ENDBRANCH  10  15
TORSDOF 8
ENDMDL
MODEL 8
REMARK VINA RESULT:      -6.6     27.699     30.107
REMARK  Name = 38030795
REMARK  12 active torsions:
REMARK  status: ('A' for Active; 'I' for Inactive)
REMARK    1  A    between atoms: O_1  and  C_22
REMARK    2  A    between atoms: O_3  and  C_31
REMARK    3  A    between atoms: O_3  and  C_32
REMARK    4  A    between atoms: N_4  and  C_12
REMARK    5  A    between atoms: C_7  and  C_11
REMARK    6  A    between atoms: C_8  and  C_12
REMARK    7  A    between atoms: C_10  and  C_15
REMARK    8  A    between atoms: C_11  and  C_18
REMARK    9  A    between atoms: C_11  and  C_19
REMARK   10  A    between atoms: C_14  and  C_23
REMARK   11  A    between atoms: C_15  and  C_24
REMARK   12  A    between atoms: C_25  and  C_26
REMARK                            x       y       z     vdW  Elec       q    Type
REMARK                         _______ _______ _______ _____ _____    ______ ____
ROOT
ATOM      7  C   UNL     1      -6.501 -11.772  15.950  0.00  0.00    +0.000 C 
ATOM      8  C   UNL     1      -7.108 -11.979  17.360  0.00  0.00    +0.029 C 
ATOM      9  C   UNL     1      -5.180 -12.545  15.815  0.00  0.00    +0.012 C 
ATOM     10  C   UNL     1      -4.140 -12.105  16.863  0.00  0.00    +0.024 C 
ATOM     13  C   UNL     1      -6.068 -11.984  18.456  0.00  0.00    -0.023 C 
ATOM     14  C   UNL     1      -4.739 -12.026  18.252  0.00  0.00    -0.073 C 
ATOM     23  C   UNL     1      -3.775 -12.043  19.406  0.00  0.00    +0.039 C 
ENDROOT
BRANCH   7  11
ATOM     11  C   UNL     1      -7.471 -12.206  14.845  0.00  0.00    -0.013 C 
ATOM     18  C   UNL     1      -7.898 -11.003  14.011  0.00  0.00    +0.007 C 
ATOM     19  C   UNL     1      -6.831 -13.276  13.965  0.00  0.00    +0.007 C 
ENDBRANCH   7  11
BRANCH   8  12
ATOM     12  C   UNL     1      -8.168 -10.916  17.668  0.00  0.00    +0.092 C 
BRANCH  12   4
ATOM      4  N   UNL     1      -9.510 -11.487  17.583  0.00  0.00    -0.302 NA
ATOM     16  C   UNL     1      -9.816 -12.362  18.723  0.00  0.00    +0.087 C 
ATOM     17  C   UNL     1     -10.543 -10.455  17.409  0.00  0.00    +0.087 C 
ATOM     20  C   UNL     1     -10.077 -11.614  20.031  0.00  0.00    +0.046 C 
ATOM     21  C   UNL     1     -10.829  -9.642  18.672  0.00  0.00    +0.046 C 
ATOM     22  C   UNL     1     -11.157 -10.550  19.854  0.00  0.00    +0.117 C 
BRANCH  22   1
ATOM      1  O   UNL     1     -11.249  -9.781  21.047  0.00  0.00    -0.392 OA
ATOM     33  H   UNL     1     -11.046  -8.859  20.817  0.00  0.00    +0.210 HD
ENDBRANCH  22   1
ENDBRANCH  12   4
ENDBRANCH   8  12
BRANCH  10  15
ATOM     15  C   UNL     1      -3.487 -10.776  16.469  0.00  0.00    +0.105 C 
BRANCH  15  24
ATOM      2  O   UNL     1      -3.896 -10.415  14.090  0.00  0.00    -0.420 OA
ATOM      5  N   UNL     1      -1.834 -11.143  14.565  0.00  0.00    -0.112 NA
ATOM      6  N   UNL     1      -1.926 -10.983  13.195  0.00  0.00    -0.107 NA
ATOM     24  C   UNL     1      -3.007 -10.800  15.046  0.00  0.00    +0.218 A 
ATOM     25  C   UNL     1      -3.146 -10.558  12.963  0.00  0.00    +0.248 A 
BRANCH  25  26
ATOM     26  C   UNL     1      -3.798 -10.225  11.729  0.00  0.00    +0.039 A 
ATOM     27  C   UNL     1      -3.097  -9.546  10.732  0.00  0.00    +0.017 A 
ATOM     28  C   UNL     1      -5.130 -10.581  11.526  0.00  0.00    +0.017 A 
ATOM     29  C   UNL     1      -3.730  -9.223   9.533  0.00  0.00    +0.046 A 
ATOM     30  C   UNL     1      -5.764 -10.258  10.326  0.00  0.00    +0.046 A 
ATOM     31  C   UNL     1      -5.064  -9.579   9.329  0.00  0.00    +0.120 A 
BRANCH  31   3
ATOM      3  O   UNL     1      -5.680  -9.267   8.157  0.00  0.00    -0.495 OA
ATOM     32  C   UNL     1      -5.523 -10.187   7.076  0.00  0.00    +0.277 C 
ENDBRANCH  31   3
ENDBRANCH  25  26
ENDBRANCH  15  24
ENDBRANCH  10  15
TORSDOF 8
ENDMDL
MODEL 9
REMARK VINA RESULT:      -6.5     27.198     30.655
REMARK  Name = 38030795
REMARK  12 active torsions:
REMARK  status: ('A' for Active; 'I' for Inactive)
REMARK    1  A    between atoms: O_1  and  C_22
REMARK    2  A    between atoms: O_3  and  C_31
REMARK    3  A    between atoms: O_3  and  C_32
REMARK    4  A    between atoms: N_4  and  C_12
REMARK    5  A    between atoms: C_7  and  C_11
REMARK    6  A    between atoms: C_8  and  C_12
REMARK    7  A    between atoms: C_10  and  C_15
REMARK    8  A    between atoms: C_11  and  C_18
REMARK    9  A    between atoms: C_11  and  C_19
REMARK   10  A    between atoms: C_14  and  C_23
REMARK   11  A    between atoms: C_15  and  C_24
REMARK   12  A    between atoms: C_25  and  C_26
REMARK                            x       y       z     vdW  Elec       q    Type
REMARK                         _______ _______ _______ _____ _____    ______ ____
ROOT
ATOM      7  C   UNL     1      -5.140 -11.989  11.117  0.00  0.00    +0.000 C 
ATOM      8  C   UNL     1      -4.819 -11.411   9.715  0.00  0.00    +0.029 C 
ATOM      9  C   UNL     1      -4.958 -10.911  12.196  0.00  0.00    +0.012 C 
ATOM     10  C   UNL     1      -3.526 -10.346  12.218  0.00  0.00    +0.024 C 
ATOM     13  C   UNL     1      -3.634 -10.474   9.720  0.00  0.00    -0.023 C 
ATOM     14  C   UNL     1      -3.035 -10.000  10.827  0.00  0.00    -0.073 C 
ATOM     23  C   UNL     1      -1.867  -9.057  10.736  0.00  0.00    +0.039 C 
ENDROOT
BRANCH   7  11
ATOM     11  C   UNL     1      -6.562 -12.557  11.185  0.00  0.00    -0.013 C 
ATOM     18  C   UNL     1      -6.868 -13.055  12.594  0.00  0.00    +0.007 C 
ATOM     19  C   UNL     1      -7.577 -11.505  10.750  0.00  0.00    +0.007 C 
ENDBRANCH   7  11
BRANCH   8  12
ATOM     12  C   UNL     1      -4.581 -12.531   8.697  0.00  0.00    +0.092 C 
BRANCH  12   4
ATOM      4  N   UNL     1      -5.734 -12.678   7.812  0.00  0.00    -0.302 NA
ATOM     16  C   UNL     1      -6.018 -11.448   7.061  0.00  0.00    +0.087 C 
ATOM     17  C   UNL     1      -5.601 -13.834   6.914  0.00  0.00    +0.087 C 
ATOM     20  C   UNL     1      -5.025 -11.163   5.932  0.00  0.00    +0.046 C 
ATOM     21  C   UNL     1      -4.596 -13.632   5.781  0.00  0.00    +0.046 C 
ATOM     22  C   UNL     1      -4.897 -12.359   4.993  0.00  0.00    +0.117 C 
BRANCH  22   1
ATOM      1  O   UNL     1      -3.853 -12.106   4.061  0.00  0.00    -0.392 OA
ATOM     33  H   UNL     1      -3.173 -12.789   4.190  0.00  0.00    +0.210 HD
ENDBRANCH  22   1
ENDBRANCH  12   4
ENDBRANCH   8  12
BRANCH  10  15
ATOM     15  C   UNL     1      -2.562 -11.311  12.917  0.00  0.00    +0.105 C 
BRANCH  15  24
ATOM      2  O   UNL     1      -3.760 -11.156  15.037  0.00  0.00    -0.420 OA
ATOM      5  N   UNL     1      -1.548 -10.870  15.212  0.00  0.00    -0.112 NA
ATOM      6  N   UNL     1      -2.095 -10.757  16.476  0.00  0.00    -0.107 NA
ATOM     24  C   UNL     1      -2.556 -11.103  14.404  0.00  0.00    +0.218 A 
ATOM     25  C   UNL     1      -3.388 -10.930  16.327  0.00  0.00    +0.248 A 
BRANCH  25  26
ATOM     26  C   UNL     1      -4.447 -10.920  17.293  0.00  0.00    +0.039 A 
ATOM     27  C   UNL     1      -4.294 -11.598  18.502  0.00  0.00    +0.017 A 
ATOM     28  C   UNL     1      -5.629 -10.231  17.025  0.00  0.00    +0.017 A 
ATOM     29  C   UNL     1      -5.323 -11.589  19.442  0.00  0.00    +0.046 A 
ATOM     30  C   UNL     1      -6.659 -10.220  17.966  0.00  0.00    +0.046 A 
ATOM     31  C   UNL     1      -6.507 -10.899  19.174  0.00  0.00    +0.120 A 
BRANCH  31   3
ATOM      3  O   UNL     1      -7.509 -10.887  20.094  0.00  0.00    -0.495 OA
ATOM     32  C   UNL     1      -8.813 -11.250  19.638  0.00  0.00    +0.277 C 
ENDBRANCH  31   3
ENDBRANCH  25  26
ENDBRANCH  15  24
ENDBRANCH  10  15
TORSDOF 8
ENDMDL
MODEL 10
REMARK VINA RESULT:      -6.4     27.282     30.807
REMARK  Name = 38030795
REMARK  12 active torsions:
REMARK  status: ('A' for Active; 'I' for Inactive)
REMARK    1  A    between atoms: O_1  and  C_22
REMARK    2  A    between atoms: O_3  and  C_31
REMARK    3  A    between atoms: O_3  and  C_32
REMARK    4  A    between atoms: N_4  and  C_12
REMARK    5  A    between atoms: C_7  and  C_11
REMARK    6  A    between atoms: C_8  and  C_12
REMARK    7  A    between atoms: C_10  and  C_15
REMARK    8  A    between atoms: C_11  and  C_18
REMARK    9  A    between atoms: C_11  and  C_19
REMARK   10  A    between atoms: C_14  and  C_23
REMARK   11  A    between atoms: C_15  and  C_24
REMARK   12  A    between atoms: C_25  and  C_26
REMARK                            x       y       z     vdW  Elec       q    Type
REMARK                         _______ _______ _______ _____ _____    ______ ____
ROOT
ATOM      7  C   UNL     1      -5.901 -10.548  10.448  0.00  0.00    +0.000 C 
ATOM      8  C   UNL     1      -5.099 -10.098   9.201  0.00  0.00    +0.029 C 
ATOM      9  C   UNL     1      -5.516  -9.699  11.669  0.00  0.00    +0.012 C 
ATOM     10  C   UNL     1      -4.013  -9.797  11.995  0.00  0.00    +0.024 C 
ATOM     13  C   UNL     1      -3.662  -9.754   9.516  0.00  0.00    -0.023 C 
ATOM     14  C   UNL     1      -3.156  -9.630  10.756  0.00  0.00    -0.073 C 
ATOM     23  C   UNL     1      -1.713  -9.269  10.976  0.00  0.00    +0.039 C 
ENDROOT
BRANCH   7  11
ATOM     11  C   UNL     1      -7.413 -10.461  10.212  0.00  0.00    -0.013 C 
ATOM     18  C   UNL     1      -8.169 -11.098  11.373  0.00  0.00    +0.007 C 
ATOM     19  C   UNL     1      -7.839  -9.008  10.020  0.00  0.00    +0.007 C 
ENDBRANCH   7  11
BRANCH   8  12
ATOM     12  C   UNL     1      -5.139 -11.166   8.103  0.00  0.00    +0.092 C 
BRANCH  12   4
ATOM      4  N   UNL     1      -5.108 -10.547   6.780  0.00  0.00    -0.302 NA
ATOM     16  C   UNL     1      -4.993 -11.541   5.704  0.00  0.00    +0.087 C 
ATOM     17  C   UNL     1      -6.251  -9.649   6.559  0.00  0.00    +0.087 C 
ATOM     20  C   UNL     1      -6.277 -12.331   5.445  0.00  0.00    +0.046 C 
ATOM     21  C   UNL     1      -7.577 -10.374   6.330  0.00  0.00    +0.046 C 
ATOM     22  C   UNL     1      -7.461 -11.399   5.204  0.00  0.00    +0.117 C 
BRANCH  22   1
ATOM      1  O   UNL     1      -8.652 -12.174   5.128  0.00  0.00    -0.392 OA
ATOM     33  H   UNL     1      -8.478 -12.919   4.529  0.00  0.00    +0.210 HD
ENDBRANCH  22   1
ENDBRANCH  12   4
ENDBRANCH   8  12
BRANCH  10  15
ATOM     15  C   UNL     1      -3.689 -11.111  12.714  0.00  0.00    +0.105 C 
BRANCH  15  24
ATOM      2  O   UNL     1      -4.793 -11.016  14.888  0.00  0.00    -0.420 OA
ATOM      5  N   UNL     1      -2.584 -10.668  14.967  0.00  0.00    -0.112 NA
ATOM      6  N   UNL     1      -3.076 -10.587  16.256  0.00  0.00    -0.107 NA
ATOM     24  C   UNL     1      -3.621 -10.920  14.202  0.00  0.00    +0.218 A 
ATOM     25  C   UNL     1      -4.368 -10.796  16.163  0.00  0.00    +0.248 A 
BRANCH  25  26
ATOM     26  C   UNL     1      -5.382 -10.829  17.176  0.00  0.00    +0.039 A 
ATOM     27  C   UNL     1      -5.020 -10.886  18.522  0.00  0.00    +0.017 A 
ATOM     28  C   UNL     1      -6.729 -10.802  16.817  0.00  0.00    +0.017 A 
ATOM     29  C   UNL     1      -6.006 -10.917  19.508  0.00  0.00    +0.046 A 
ATOM     30  C   UNL     1      -7.715 -10.833  17.803  0.00  0.00    +0.046 A 
ATOM     31  C   UNL     1      -7.354 -10.891  19.149  0.00  0.00    +0.120 A 
BRANCH  31   3
ATOM      3  O   UNL     1      -8.315 -10.918  20.111  0.00  0.00    -0.495 OA
ATOM     32  C   UNL     1      -9.672 -10.840  19.676  0.00  0.00    +0.277 C 
ENDBRANCH  31   3
ENDBRANCH  25  26
ENDBRANCH  15  24
ENDBRANCH  10  15
TORSDOF 8
ENDMDL
