REMARK  Name = 40779910
REMARK  11 active torsions:
REMARK  status: ('A' for Active; 'I' for Inactive)
REMARK    1  A    between atoms: O_1  and  C_20
REMARK    2  A    between atoms: O_1  and  C_23
REMARK    3  A    between atoms: N_4  and  C_14
REMARK    4  A    between atoms: N_5  and  C_15
REMARK    5  A    between atoms: N_6  and  C_28
REMARK    6  A    between atoms: N_6  and  C_29
REMARK    7  A    between atoms: N_6  and  C_30
REMARK    8  A    between atoms: C_8  and  C_14
REMARK    9  A    between atoms: C_10  and  C_15
REMARK   10  A    between atoms: C_16  and  C_20
REMARK   11  A    between atoms: C_21  and  C_22
REMARK                            x       y       z     vdW  Elec       q    Type
REMARK                         _______ _______ _______ _____ _____    ______ ____
ROOT
ATOM      3  N   UNL     1       1.758  -2.569   1.001  0.00  0.00    -0.298 NA
ATOM      7  C   UNL     1       2.019  -2.142  -1.551  0.00  0.00    -0.003 C 
ATOM      8  C   UNL     1       3.201  -1.530  -0.766  0.00  0.00    +0.020 C 
ATOM      9  C   UNL     1       0.697  -1.555  -1.023  0.00  0.00    +0.024 C 
ATOM     10  C   UNL     1       0.516  -1.956   0.458  0.00  0.00    +0.074 C 
ATOM     11  C   UNL     1       2.922  -1.686   0.746  0.00  0.00    +0.089 C 
ATOM     12  C   UNL     1       2.006  -3.650  -1.237  0.00  0.00    +0.019 C 
ATOM     13  C   UNL     1       1.985  -3.850   0.289  0.00  0.00    +0.085 C 
ENDROOT
BRANCH   8  14
ATOM     14  C   UNL     1       3.484  -0.076  -1.139  0.00  0.00    +0.089 C 
BRANCH  14   4
ATOM      4  N   UNL     1       4.662   0.420  -0.440  0.00  0.00    -0.297 NA
ATOM     16  C   UNL     1       4.760   1.887  -0.433  0.00  0.00    +0.082 C 
ATOM     17  C   UNL     1       5.899  -0.038  -1.078  0.00  0.00    +0.085 C 
ATOM     18  C   UNL     1       6.221   2.124  -0.042  0.00  0.00    +0.022 C 
ATOM     19  C   UNL     1       6.962   0.862  -0.470  0.00  0.00    +0.017 C 
BRANCH  16  20
ATOM     20  C   UNL     1       3.799   2.553   0.542  0.00  0.00    +0.178 C 
BRANCH  20   1
ATOM      1  O   UNL     1       4.056   3.946   0.552  0.00  0.00    -0.381 OA
ATOM     23  C   UNL     1       3.190   4.636   1.446  0.00  0.00    +0.194 C 
ENDBRANCH  20   1
ENDBRANCH  16  20
ENDBRANCH  14   4
ENDBRANCH   8  14
BRANCH  10  15
ATOM     15  C   UNL     1       0.024  -0.783   1.309  0.00  0.00    +0.123 C 
BRANCH  15   5
ATOM      2  O   UNL     1      -2.553  -1.703   2.180  0.00  0.00    -0.270 OA
ATOM      5  N   UNL     1      -1.269  -0.314   0.840  0.00  0.00    -0.310 N 
ATOM     21  C   UNL     1      -2.457  -0.825   1.327  0.00  0.00    +0.244 C 
ATOM     31  H   UNL     1      -1.260   0.364   0.086  0.00  0.00    +0.149 HD
BRANCH  21  22
ATOM     22  C   UNL     1      -3.692  -0.258   0.727  0.00  0.00    +0.037 A 
ATOM     24  C   UNL     1      -4.861  -1.018   0.687  0.00  0.00    +0.015 A 
ATOM     25  C   UNL     1      -3.683   1.035   0.203  0.00  0.00    +0.015 A 
ATOM     26  C   UNL     1      -6.021  -0.486   0.124  0.00  0.00    +0.024 A 
ATOM     27  C   UNL     1      -4.842   1.568  -0.359  0.00  0.00    +0.024 A 
ATOM     28  C   UNL     1      -6.011   0.807  -0.399  0.00  0.00    +0.029 A 
BRANCH  28   6
ATOM      6  N   UNL     1      -7.184   1.346  -0.969  0.00  0.00    -0.336 N 
ATOM     29  C   UNL     1      -8.403   0.565  -1.015  0.00  0.00    +0.129 C 
ATOM     30  C   UNL     1      -7.186   2.692  -1.508  0.00  0.00    +0.129 C 
ENDBRANCH  28   6
ENDBRANCH  21  22
ENDBRANCH  15   5
ENDBRANCH  10  15
TORSDOF 8
