MODEL 1
REMARK VINA RESULT:      -7.5      0.000      0.000
REMARK  Name = 7155689
REMARK  4 active torsions:
REMARK  status: ('A' for Active; 'I' for Inactive)
REMARK    1  A    between atoms: N_4  and  C_15
REMARK    2  A    between atoms: N_6  and  C_18
REMARK    3  A    between atoms: C_15  and  C_20
REMARK    4  A    between atoms: C_25  and  C_27
REMARK                            x       y       z     vdW  Elec       q    Type
REMARK                         _______ _______ _______ _____ _____    ______ ____
ROOT
ATOM      2  O   UNL     1      -6.447 -11.161  11.095  0.00  0.00    -0.266 OA
ATOM      4  N   UNL     1      -3.155 -11.224  14.875  0.00  0.00    -0.297 NA
ATOM      5  N   UNL     1      -4.271 -11.451  11.893  0.00  0.00    -0.310 N 
ATOM      8  C   UNL     1      -3.631 -13.298  13.550  0.00  0.00    +0.024 C 
ATOM      9  C   UNL     1      -1.923 -11.730  12.761  0.00  0.00    +0.050 C 
ATOM     10  C   UNL     1      -2.262 -13.213  12.888  0.00  0.00    +0.017 C 
ATOM     11  C   UNL     1      -3.589 -12.624  14.938  0.00  0.00    +0.090 C 
ATOM     12  C   UNL     1      -1.873 -11.089  14.167  0.00  0.00    +0.094 C 
ATOM     13  C   UNL     1      -4.672 -12.665  12.618  0.00  0.00    +0.130 C 
ATOM     14  C   UNL     1      -2.941 -11.018  11.888  0.00  0.00    +0.026 A 
ATOM     16  C   UNL     1      -2.574  -9.970  11.133  0.00  0.00    +0.024 A 
ATOM     17  C   UNL     1      -5.268 -10.806  11.133  0.00  0.00    +0.273 A 
ATOM     18  C   UNL     1      -4.824  -9.629  10.323  0.00  0.00    +0.099 A 
ATOM     19  C   UNL     1      -3.537  -9.262  10.336  0.00  0.00    +0.030 A 
ENDROOT
BRANCH  18   6
ATOM      3  O   UNL     1      -5.493 -10.158   7.599  0.00  0.00    -0.270 OA
ATOM      6  N   UNL     1      -5.761  -8.971   9.582  0.00  0.00    -0.277 N 
ATOM     25  C   UNL     1      -6.041  -9.277   8.257  0.00  0.00    +0.248 C 
ATOM     32  H   UNL     1      -6.143  -8.137  10.012  0.00  0.00    +0.155 HD
BRANCH  25  27
ATOM      7  N   UNL     1      -9.102  -6.957   6.440  0.00  0.00    -0.263 NA
ATOM     27  C   UNL     1      -7.111  -8.465   7.622  0.00  0.00    +0.040 A 
ATOM     28  C   UNL     1      -7.416  -8.684   6.299  0.00  0.00    +0.033 A 
ATOM     29  C   UNL     1      -7.766  -7.521   8.374  0.00  0.00    +0.033 A 
ATOM     30  C   UNL     1      -8.421  -7.902   5.753  0.00  0.00    +0.111 A 
ATOM     31  C   UNL     1      -8.756  -6.791   7.736  0.00  0.00    +0.111 A 
ENDBRANCH  25  27
ENDBRANCH  18   6
BRANCH   4  15
ATOM     15  C   UNL     1      -3.079 -10.638  16.211  0.00  0.00    +0.119 C 
BRANCH  15  20
ATOM      1  F   UNL     1      -8.170  -9.974  18.498  0.00  0.00    -0.205 F 
ATOM     20  C   UNL     1      -4.442 -10.460  16.823  0.00  0.00    -0.033 A 
ATOM     21  C   UNL     1      -5.431  -9.795  16.110  0.00  0.00    +0.008 A 
ATOM     22  C   UNL     1      -4.692 -10.962  18.092  0.00  0.00    +0.008 A 
ATOM     23  C   UNL     1      -6.694  -9.630  16.678  0.00  0.00    +0.038 A 
ATOM     24  C   UNL     1      -5.955 -10.797  18.660  0.00  0.00    +0.038 A 
ATOM     26  C   UNL     1      -6.956 -10.131  17.953  0.00  0.00    +0.123 A 
ENDBRANCH  15  20
ENDBRANCH   4  15
TORSDOF 4
ENDMDL
MODEL 2
REMARK VINA RESULT:      -7.2     20.702     23.158
REMARK  Name = 7155689
REMARK  4 active torsions:
REMARK  status: ('A' for Active; 'I' for Inactive)
REMARK    1  A    between atoms: N_4  and  C_15
REMARK    2  A    between atoms: N_6  and  C_18
REMARK    3  A    between atoms: C_15  and  C_20
REMARK    4  A    between atoms: C_25  and  C_27
REMARK                            x       y       z     vdW  Elec       q    Type
REMARK                         _______ _______ _______ _____ _____    ______ ____
ROOT
ATOM      2  O   UNL     1     -12.816   4.743  22.878  0.00  0.00    -0.266 OA
ATOM      4  N   UNL     1     -13.218   9.447  21.191  0.00  0.00    -0.297 NA
ATOM      5  N   UNL     1     -13.443   6.263  21.218  0.00  0.00    -0.310 N 
ATOM      8  C   UNL     1     -11.764   7.779  20.012  0.00  0.00    +0.024 C 
ATOM      9  C   UNL     1     -14.144   7.913  19.449  0.00  0.00    +0.050 C 
ATOM     10  C   UNL     1     -12.753   7.705  18.856  0.00  0.00    +0.017 C 
ATOM     11  C   UNL     1     -11.864   9.154  20.705  0.00  0.00    +0.090 C 
ATOM     12  C   UNL     1     -14.216   9.304  20.120  0.00  0.00    +0.094 C 
ATOM     13  C   UNL     1     -12.037   6.613  20.973  0.00  0.00    +0.130 C 
ATOM     14  C   UNL     1     -14.472   6.822  20.452  0.00  0.00    +0.026 A 
ATOM     16  C   UNL     1     -15.739   6.408  20.617  0.00  0.00    +0.024 A 
ATOM     17  C   UNL     1     -13.691   5.274  22.190  0.00  0.00    +0.273 A 
ATOM     18  C   UNL     1     -15.118   4.857  22.360  0.00  0.00    +0.099 A 
ATOM     19  C   UNL     1     -16.065   5.407  21.593  0.00  0.00    +0.030 A 
ENDROOT
BRANCH  18   6
ATOM      3  O   UNL     1     -16.524   5.278  24.808  0.00  0.00    -0.270 OA
ATOM      6  N   UNL     1     -15.400   3.909  23.300  0.00  0.00    -0.277 N 
ATOM     25  C   UNL     1     -16.091   4.178  24.474  0.00  0.00    +0.248 C 
ATOM     32  H   UNL     1     -14.943   3.015  23.162  0.00  0.00    +0.155 HD
BRANCH  25  27
ATOM      7  N   UNL     1     -16.758   0.846  27.024  0.00  0.00    -0.263 NA
ATOM     27  C   UNL     1     -16.324   3.013  25.366  0.00  0.00    +0.040 A 
ATOM     28  C   UNL     1     -16.107   3.154  26.716  0.00  0.00    +0.033 A 
ATOM     29  C   UNL     1     -16.750   1.829  24.815  0.00  0.00    +0.033 A 
ATOM     30  C   UNL     1     -16.339   2.039  27.505  0.00  0.00    +0.111 A 
ATOM     31  C   UNL     1     -16.953   0.772  25.688  0.00  0.00    +0.111 A 
ENDBRANCH  25  27
ENDBRANCH  18   6
BRANCH   4  15
ATOM     15  C   UNL     1     -13.283  10.776  21.793  0.00  0.00    +0.119 C 
BRANCH  15  20
ATOM      1  F   UNL     1     -12.628  10.581  27.372  0.00  0.00    -0.205 F 
ATOM     20  C   UNL     1     -13.107  10.724  23.287  0.00  0.00    -0.033 A 
ATOM     21  C   UNL     1     -11.942  11.219  23.856  0.00  0.00    +0.008 A 
ATOM     22  C   UNL     1     -14.112  10.181  24.074  0.00  0.00    +0.008 A 
ATOM     23  C   UNL     1     -11.779  11.171  25.241  0.00  0.00    +0.038 A 
ATOM     24  C   UNL     1     -13.950  10.132  25.459  0.00  0.00    +0.038 A 
ATOM     26  C   UNL     1     -12.783  10.627  26.042  0.00  0.00    +0.123 A 
ENDBRANCH  15  20
ENDBRANCH   4  15
TORSDOF 4
ENDMDL
MODEL 3
REMARK VINA RESULT:      -7.0      5.661     10.802
REMARK  Name = 7155689
REMARK  4 active torsions:
REMARK  status: ('A' for Active; 'I' for Inactive)
REMARK    1  A    between atoms: N_4  and  C_15
REMARK    2  A    between atoms: N_6  and  C_18
REMARK    3  A    between atoms: C_15  and  C_20
REMARK    4  A    between atoms: C_25  and  C_27
REMARK                            x       y       z     vdW  Elec       q    Type
REMARK                         _______ _______ _______ _____ _____    ______ ____
ROOT
ATOM      2  O   UNL     1     -10.562  -9.452  13.997  0.00  0.00    -0.266 OA
ATOM      4  N   UNL     1     -13.197  -5.685  12.000  0.00  0.00    -0.297 NA
ATOM      5  N   UNL     1     -12.187  -7.783  14.181  0.00  0.00    -0.310 N 
ATOM      8  C   UNL     1     -14.337  -7.774  12.787  0.00  0.00    +0.024 C 
ATOM      9  C   UNL     1     -13.913  -5.961  14.377  0.00  0.00    +0.050 C 
ATOM     10  C   UNL     1     -14.928  -7.027  13.976  0.00  0.00    +0.017 C 
ATOM     11  C   UNL     1     -14.080  -6.795  11.622  0.00  0.00    +0.090 C 
ATOM     12  C   UNL     1     -13.691  -4.988  13.196  0.00  0.00    +0.094 C 
ATOM     13  C   UNL     1     -13.062  -8.498  13.242  0.00  0.00    +0.130 C 
ATOM     14  C   UNL     1     -12.600  -6.597  14.796  0.00  0.00    +0.026 A 
ATOM     16  C   UNL     1     -11.832  -6.018  15.733  0.00  0.00    +0.024 A 
ATOM     17  C   UNL     1     -10.961  -8.401  14.501  0.00  0.00    +0.273 A 
ATOM     18  C   UNL     1     -10.123  -7.713  15.533  0.00  0.00    +0.099 A 
ATOM     19  C   UNL     1     -10.568  -6.589  16.106  0.00  0.00    +0.030 A 
ENDROOT
BRANCH  18   6
ATOM      3  O   UNL     1      -9.592  -9.334  17.821  0.00  0.00    -0.270 OA
ATOM      6  N   UNL     1      -8.924  -8.273  15.862  0.00  0.00    -0.277 N 
ATOM     25  C   UNL     1      -8.729  -9.054  16.992  0.00  0.00    +0.248 C 
ATOM     32  H   UNL     1      -8.135  -7.960  15.308  0.00  0.00    +0.155 HD
BRANCH  25  27
ATOM      7  N   UNL     1      -4.807 -10.605  17.506  0.00  0.00    -0.263 NA
ATOM     27  C   UNL     1      -7.358  -9.597  17.172  0.00  0.00    +0.040 A 
ATOM     28  C   UNL     1      -6.471  -9.526  16.123  0.00  0.00    +0.033 A 
ATOM     29  C   UNL     1      -7.015 -10.153  18.380  0.00  0.00    +0.033 A 
ATOM     30  C   UNL     1      -5.205 -10.045  16.341  0.00  0.00    +0.111 A 
ATOM     31  C   UNL     1      -5.725 -10.644  18.498  0.00  0.00    +0.111 A 
ENDBRANCH  25  27
ENDBRANCH  18   6
BRANCH   4  15
ATOM     15  C   UNL     1     -13.021  -4.754  10.887  0.00  0.00    +0.119 C 
BRANCH  15  20
ATOM      1  F   UNL     1      -8.468  -5.987   7.831  0.00  0.00    -0.205 F 
ATOM     20  C   UNL     1     -11.801  -5.084  10.069  0.00  0.00    -0.033 A 
ATOM     21  C   UNL     1     -11.036  -4.055   9.537  0.00  0.00    +0.008 A 
ATOM     22  C   UNL     1     -11.460  -6.412   9.857  0.00  0.00    +0.008 A 
ATOM     23  C   UNL     1      -9.906  -4.361   8.778  0.00  0.00    +0.038 A 
ATOM     24  C   UNL     1     -10.330  -6.718   9.098  0.00  0.00    +0.038 A 
ATOM     26  C   UNL     1      -9.553  -5.693   8.559  0.00  0.00    +0.123 A 
ENDBRANCH  15  20
ENDBRANCH   4  15
TORSDOF 4
ENDMDL
MODEL 4
REMARK VINA RESULT:      -7.0     19.080     21.618
REMARK  Name = 7155689
REMARK  4 active torsions:
REMARK  status: ('A' for Active; 'I' for Inactive)
REMARK    1  A    between atoms: N_4  and  C_15
REMARK    2  A    between atoms: N_6  and  C_18
REMARK    3  A    between atoms: C_15  and  C_20
REMARK    4  A    between atoms: C_25  and  C_27
REMARK                            x       y       z     vdW  Elec       q    Type
REMARK                         _______ _______ _______ _____ _____    ______ ____
ROOT
ATOM      2  O   UNL     1      -6.925   9.549   4.771  0.00  0.00    -0.266 OA
ATOM      4  N   UNL     1      -2.021  10.202   3.963  0.00  0.00    -0.297 NA
ATOM      5  N   UNL     1      -4.697   9.144   5.344  0.00  0.00    -0.310 N 
ATOM      8  C   UNL     1      -3.091  10.999   6.085  0.00  0.00    +0.024 C 
ATOM      9  C   UNL     1      -2.291   8.690   5.933  0.00  0.00    +0.050 C 
ATOM     10  C   UNL     1      -2.406   9.888   6.870  0.00  0.00    +0.017 C 
ATOM     11  C   UNL     1      -2.256  11.357   4.838  0.00  0.00    +0.090 C 
ATOM     12  C   UNL     1      -1.436   9.076   4.704  0.00  0.00    +0.094 C 
ATOM     13  C   UNL     1      -4.516  10.550   5.732  0.00  0.00    +0.130 C 
ATOM     14  C   UNL     1      -3.664   8.213   5.496  0.00  0.00    +0.026 A 
ATOM     16  C   UNL     1      -3.883   6.913   5.239  0.00  0.00    +0.024 A 
ATOM     17  C   UNL     1      -5.982   8.767   4.906  0.00  0.00    +0.273 A 
ATOM     18  C   UNL     1      -6.180   7.314   4.608  0.00  0.00    +0.099 A 
ATOM     19  C   UNL     1      -5.167   6.458   4.784  0.00  0.00    +0.030 A 
ENDROOT
BRANCH  18   6
ATOM      3  O   UNL     1      -8.217   6.097   6.193  0.00  0.00    -0.270 OA
ATOM      6  N   UNL     1      -7.407   6.911   4.170  0.00  0.00    -0.277 N 
ATOM     25  C   UNL     1      -8.357   6.323   4.993  0.00  0.00    +0.248 C 
ATOM     32  H   UNL     1      -7.533   6.928   3.164  0.00  0.00    +0.155 HD
BRANCH  25  27
ATOM      7  N   UNL     1     -12.040   5.318   3.128  0.00  0.00    -0.263 NA
ATOM     27  C   UNL     1      -9.645   5.972   4.341  0.00  0.00    +0.040 A 
ATOM     28  C   UNL     1     -10.784   5.906   5.109  0.00  0.00    +0.033 A 
ATOM     29  C   UNL     1      -9.661   5.723   2.990  0.00  0.00    +0.033 A 
ATOM     30  C   UNL     1     -11.959   5.575   4.454  0.00  0.00    +0.111 A 
ATOM     31  C   UNL     1     -10.886   5.400   2.430  0.00  0.00    +0.111 A 
ENDBRANCH  25  27
ENDBRANCH  18   6
BRANCH   4  15
ATOM     15  C   UNL     1      -1.185  10.570   2.822  0.00  0.00    +0.119 C 
BRANCH  15  20
ATOM      1  F   UNL     1      -3.677   9.373  -2.071  0.00  0.00    -0.205 F 
ATOM     20  C   UNL     1      -1.852  10.249   1.512  0.00  0.00    -0.033 A 
ATOM     21  C   UNL     1      -1.128   9.609   0.515  0.00  0.00    +0.008 A 
ATOM     22  C   UNL     1      -3.180  10.598   1.318  0.00  0.00    +0.008 A 
ATOM     23  C   UNL     1      -1.747   9.312  -0.700  0.00  0.00    +0.038 A 
ATOM     24  C   UNL     1      -3.799  10.302   0.104  0.00  0.00    +0.038 A 
ATOM     26  C   UNL     1      -3.082   9.659  -0.905  0.00  0.00    +0.123 A 
ENDBRANCH  15  20
ENDBRANCH   4  15
TORSDOF 4
ENDMDL
MODEL 5
REMARK VINA RESULT:      -6.9     22.530     25.986
REMARK  Name = 7155689
REMARK  4 active torsions:
REMARK  status: ('A' for Active; 'I' for Inactive)
REMARK    1  A    between atoms: N_4  and  C_15
REMARK    2  A    between atoms: N_6  and  C_18
REMARK    3  A    between atoms: C_15  and  C_20
REMARK    4  A    between atoms: C_25  and  C_27
REMARK                            x       y       z     vdW  Elec       q    Type
REMARK                         _______ _______ _______ _____ _____    ______ ____
ROOT
ATOM      2  O   UNL     1     -17.128   5.520  29.050  0.00  0.00    -0.266 OA
ATOM      4  N   UNL     1     -14.419   6.542  33.142  0.00  0.00    -0.297 NA
ATOM      5  N   UNL     1     -16.258   4.889  31.124  0.00  0.00    -0.310 N 
ATOM      8  C   UNL     1     -16.876   6.074  33.311  0.00  0.00    +0.024 C 
ATOM      9  C   UNL     1     -15.289   4.209  33.347  0.00  0.00    +0.050 C 
ATOM     10  C   UNL     1     -16.593   4.720  33.951  0.00  0.00    +0.017 C 
ATOM     11  C   UNL     1     -15.716   7.049  33.605  0.00  0.00    +0.090 C 
ATOM     12  C   UNL     1     -14.146   5.198  33.672  0.00  0.00    +0.094 C 
ATOM     13  C   UNL     1     -17.110   5.871  31.808  0.00  0.00    +0.130 C 
ATOM     14  C   UNL     1     -15.424   4.028  31.845  0.00  0.00    +0.026 A 
ATOM     16  C   UNL     1     -14.735   3.066  31.211  0.00  0.00    +0.024 A 
ATOM     17  C   UNL     1     -16.395   4.795  29.725  0.00  0.00    +0.273 A 
ATOM     18  C   UNL     1     -15.594   3.724  29.052  0.00  0.00    +0.099 A 
ATOM     19  C   UNL     1     -14.823   2.914  29.786  0.00  0.00    +0.030 A 
ENDROOT
BRANCH  18   6
ATOM      3  O   UNL     1     -17.421   2.054  27.631  0.00  0.00    -0.270 OA
ATOM      6  N   UNL     1     -15.690   3.608  27.697  0.00  0.00    -0.277 N 
ATOM     25  C   UNL     1     -16.603   2.775  27.064  0.00  0.00    +0.248 C 
ATOM     32  H   UNL     1     -14.949   4.056  27.171  0.00  0.00    +0.155 HD
BRANCH  25  27
ATOM      7  N   UNL     1     -16.522   2.844  22.816  0.00  0.00    -0.263 NA
ATOM     27  C   UNL     1     -16.574   2.799  25.579  0.00  0.00    +0.040 A 
ATOM     28  C   UNL     1     -17.392   1.939  24.883  0.00  0.00    +0.033 A 
ATOM     29  C   UNL     1     -15.733   3.680  24.944  0.00  0.00    +0.033 A 
ATOM     30  C   UNL     1     -17.328   2.001  23.500  0.00  0.00    +0.111 A 
ATOM     31  C   UNL     1     -15.744   3.664  23.558  0.00  0.00    +0.111 A 
ENDBRANCH  25  27
ENDBRANCH  18   6
BRANCH   4  15
ATOM     15  C   UNL     1     -13.342   7.469  33.484  0.00  0.00    +0.119 C 
BRANCH  15  20
ATOM      1  F   UNL     1     -12.113  10.918  29.220  0.00  0.00    -0.205 F 
ATOM     20  C   UNL     1     -13.013   8.392  32.342  0.00  0.00    -0.033 A 
ATOM     21  C   UNL     1     -14.040   9.040  31.669  0.00  0.00    +0.008 A 
ATOM     22  C   UNL     1     -11.688   8.583  31.978  0.00  0.00    +0.008 A 
ATOM     23  C   UNL     1     -13.735   9.895  30.610  0.00  0.00    +0.038 A 
ATOM     24  C   UNL     1     -11.383   9.439  30.920  0.00  0.00    +0.038 A 
ATOM     26  C   UNL     1     -12.406  10.095  30.236  0.00  0.00    +0.123 A 
ENDBRANCH  15  20
ENDBRANCH   4  15
TORSDOF 4
ENDMDL
MODEL 6
REMARK VINA RESULT:      -6.9     28.086     30.571
REMARK  Name = 7155689
REMARK  4 active torsions:
REMARK  status: ('A' for Active; 'I' for Inactive)
REMARK    1  A    between atoms: N_4  and  C_15
REMARK    2  A    between atoms: N_6  and  C_18
REMARK    3  A    between atoms: C_15  and  C_20
REMARK    4  A    between atoms: C_25  and  C_27
REMARK                            x       y       z     vdW  Elec       q    Type
REMARK                         _______ _______ _______ _____ _____    ______ ____
ROOT
ATOM      2  O   UNL     1      16.121   6.217  18.543  0.00  0.00    -0.266 OA
ATOM      4  N   UNL     1      13.600  10.524  18.075  0.00  0.00    -0.297 NA
ATOM      5  N   UNL     1      14.407   7.655  19.216  0.00  0.00    -0.310 N 
ATOM      8  C   UNL     1      12.467   8.323  17.681  0.00  0.00    +0.024 C 
ATOM      9  C   UNL     1      12.584   9.228  19.953  0.00  0.00    +0.050 C 
ATOM     10  C   UNL     1      11.685   8.471  18.980  0.00  0.00    +0.017 C 
ATOM     11  C   UNL     1      12.831   9.714  17.122  0.00  0.00    +0.090 C 
ATOM     12  C   UNL     1      12.916  10.622  19.372  0.00  0.00    +0.094 C 
ATOM     13  C   UNL     1      13.703   7.451  17.943  0.00  0.00    +0.130 C 
ATOM     14  C   UNL     1      13.858   8.449  20.228  0.00  0.00    +0.026 A 
ATOM     16  C   UNL     1      14.463   8.536  21.424  0.00  0.00    +0.024 A 
ATOM     17  C   UNL     1      15.607   6.939  19.400  0.00  0.00    +0.273 A 
ATOM     18  C   UNL     1      16.264   7.080  20.737  0.00  0.00    +0.099 A 
ATOM     19  C   UNL     1      15.692   7.837  21.680  0.00  0.00    +0.030 A 
ENDROOT
BRANCH  18   6
ATOM      3  O   UNL     1      18.834   8.261  21.115  0.00  0.00    -0.270 OA
ATOM      6  N   UNL     1      17.433   6.411  20.950  0.00  0.00    -0.277 N 
ATOM     25  C   UNL     1      18.655   7.046  21.127  0.00  0.00    +0.248 C 
ATOM     32  H   UNL     1      17.386   5.407  20.822  0.00  0.00    +0.155 HD
BRANCH  25  27
ATOM      7  N   UNL     1      21.976   4.487  21.821  0.00  0.00    -0.263 NA
ATOM     27  C   UNL     1      19.816   6.151  21.370  0.00  0.00    +0.040 A 
ATOM     28  C   UNL     1      20.095   5.160  20.458  0.00  0.00    +0.033 A 
ATOM     29  C   UNL     1      20.577   6.340  22.498  0.00  0.00    +0.033 A 
ATOM     30  C   UNL     1      21.188   4.353  20.729  0.00  0.00    +0.111 A 
ATOM     31  C   UNL     1      21.649   5.480  22.678  0.00  0.00    +0.111 A 
ENDBRANCH  25  27
ENDBRANCH  18   6
BRANCH   4  15
ATOM     15  C   UNL     1      13.879  11.851  17.530  0.00  0.00    +0.119 C 
BRANCH  15  20
ATOM      1  F   UNL     1      18.322  11.805  14.087  0.00  0.00    -0.205 F 
ATOM     20  C   UNL     1      15.069  11.838  16.607  0.00  0.00    -0.033 A 
ATOM     21  C   UNL     1      15.009  11.116  15.423  0.00  0.00    +0.008 A 
ATOM     22  C   UNL     1      16.209  12.548  16.954  0.00  0.00    +0.008 A 
ATOM     23  C   UNL     1      16.112  11.105  14.569  0.00  0.00    +0.038 A 
ATOM     24  C   UNL     1      17.312  12.537  16.100  0.00  0.00    +0.038 A 
ATOM     26  C   UNL     1      17.264  11.815  14.908  0.00  0.00    +0.123 A 
ENDBRANCH  15  20
ENDBRANCH   4  15
TORSDOF 4
ENDMDL
MODEL 7
REMARK VINA RESULT:      -6.9     23.281     25.416
REMARK  Name = 7155689
REMARK  4 active torsions:
REMARK  status: ('A' for Active; 'I' for Inactive)
REMARK    1  A    between atoms: N_4  and  C_15
REMARK    2  A    between atoms: N_6  and  C_18
REMARK    3  A    between atoms: C_15  and  C_20
REMARK    4  A    between atoms: C_25  and  C_27
REMARK                            x       y       z     vdW  Elec       q    Type
REMARK                         _______ _______ _______ _____ _____    ______ ____
ROOT
ATOM      2  O   UNL     1      10.290   4.294   2.546  0.00  0.00    -0.266 OA
ATOM      4  N   UNL     1       9.205   7.938   5.812  0.00  0.00    -0.297 NA
ATOM      5  N   UNL     1      10.867   5.620   4.381  0.00  0.00    -0.310 N 
ATOM      8  C   UNL     1       9.566   5.582   6.589  0.00  0.00    +0.024 C 
ATOM      9  C   UNL     1      11.490   7.077   6.338  0.00  0.00    +0.050 C 
ATOM     10  C   UNL     1      10.902   5.972   7.211  0.00  0.00    +0.017 C 
ATOM     11  C   UNL     1       8.627   6.806   6.546  0.00  0.00    +0.090 C 
ATOM     12  C   UNL     1      10.535   8.292   6.330  0.00  0.00    +0.094 C 
ATOM     13  C   UNL     1       9.823   4.986   5.198  0.00  0.00    +0.130 C 
ATOM     14  C   UNL     1      11.729   6.578   4.924  0.00  0.00    +0.026 A 
ATOM     16  C   UNL     1      12.745   7.065   4.194  0.00  0.00    +0.024 A 
ATOM     17  C   UNL     1      11.015   5.146   3.062  0.00  0.00    +0.273 A 
ATOM     18  C   UNL     1      12.145   5.730   2.273  0.00  0.00    +0.099 A 
ATOM     19  C   UNL     1      12.954   6.632   2.841  0.00  0.00    +0.030 A 
ENDROOT
BRANCH  18   6
ATOM      3  O   UNL     1      13.480   3.346   1.449  0.00  0.00    -0.270 OA
ATOM      6  N   UNL     1      12.315   5.306   0.988  0.00  0.00    -0.277 N 
ATOM     25  C   UNL     1      12.976   4.133   0.651  0.00  0.00    +0.248 C 
ATOM     32  H   UNL     1      12.059   5.979   0.274  0.00  0.00    +0.155 HD
BRANCH  25  27
ATOM      7  N   UNL     1      13.164   3.253  -3.501  0.00  0.00    -0.263 NA
ATOM     27  C   UNL     1      13.042   3.825  -0.801  0.00  0.00    +0.040 A 
ATOM     28  C   UNL     1      12.260   2.811  -1.303  0.00  0.00    +0.033 A 
ATOM     29  C   UNL     1      13.881   4.562  -1.600  0.00  0.00    +0.033 A 
ATOM     30  C   UNL     1      12.358   2.563  -2.662  0.00  0.00    +0.111 A 
ATOM     31  C   UNL     1      13.906   4.237  -2.947  0.00  0.00    +0.111 A 
ENDBRANCH  25  27
ENDBRANCH  18   6
BRANCH   4  15
ATOM     15  C   UNL     1       8.309   9.092   5.839  0.00  0.00    +0.119 C 
BRANCH  15  20
ATOM      1  F   UNL     1       5.915   9.996   0.834  0.00  0.00    -0.205 F 
ATOM     20  C   UNL     1       7.667   9.334   4.498  0.00  0.00    -0.033 A 
ATOM     21  C   UNL     1       6.503  10.087   4.423  0.00  0.00    +0.008 A 
ATOM     22  C   UNL     1       8.249   8.801   3.357  0.00  0.00    +0.008 A 
ATOM     23  C   UNL     1       5.909  10.311   3.181  0.00  0.00    +0.038 A 
ATOM     24  C   UNL     1       7.654   9.025   2.115  0.00  0.00    +0.038 A 
ATOM     26  C   UNL     1       6.485   9.780   2.027  0.00  0.00    +0.123 A 
ENDBRANCH  15  20
ENDBRANCH   4  15
TORSDOF 4
ENDMDL
MODEL 8
REMARK VINA RESULT:      -6.7     20.260     22.406
REMARK  Name = 7155689
REMARK  4 active torsions:
REMARK  status: ('A' for Active; 'I' for Inactive)
REMARK    1  A    between atoms: N_4  and  C_15
REMARK    2  A    between atoms: N_6  and  C_18
REMARK    3  A    between atoms: C_15  and  C_20
REMARK    4  A    between atoms: C_25  and  C_27
REMARK                            x       y       z     vdW  Elec       q    Type
REMARK                         _______ _______ _______ _____ _____    ______ ____
ROOT
ATOM      2  O   UNL     1     -14.805   8.679  21.668  0.00  0.00    -0.266 OA
ATOM      4  N   UNL     1     -12.636   9.220  17.181  0.00  0.00    -0.297 NA
ATOM      5  N   UNL     1     -12.890   8.877  20.343  0.00  0.00    -0.310 N 
ATOM      8  C   UNL     1     -12.367  10.968  18.957  0.00  0.00    +0.024 C 
ATOM      9  C   UNL     1     -10.833   9.059  18.903  0.00  0.00    +0.050 C 
ATOM     10  C   UNL     1     -10.914  10.560  19.165  0.00  0.00    +0.017 C 
ATOM     11  C   UNL     1     -12.806  10.638  17.515  0.00  0.00    +0.090 C 
ATOM     12  C   UNL     1     -11.264   8.765  17.447  0.00  0.00    +0.094 C 
ATOM     13  C   UNL     1     -13.233  10.267  20.013  0.00  0.00    +0.130 C 
ATOM     14  C   UNL     1     -11.707   8.293  19.880  0.00  0.00    +0.026 A 
ATOM     16  C   UNL     1     -11.358   7.061  20.282  0.00  0.00    +0.024 A 
ATOM     17  C   UNL     1     -13.760   8.201  21.222  0.00  0.00    +0.273 A 
ATOM     18  C   UNL     1     -13.348   6.821  21.629  0.00  0.00    +0.099 A 
ATOM     19  C   UNL     1     -12.199   6.311  21.173  0.00  0.00    +0.030 A 
ENDROOT
BRANCH  18   6
ATOM      3  O   UNL     1     -15.469   5.075  20.853  0.00  0.00    -0.270 OA
ATOM      6  N   UNL     1     -14.169   6.129  22.470  0.00  0.00    -0.277 N 
ATOM     25  C   UNL     1     -15.186   5.292  22.029  0.00  0.00    +0.248 C 
ATOM     32  H   UNL     1     -14.092   6.377  23.449  0.00  0.00    +0.155 HD
BRANCH  25  27
ATOM      7  N   UNL     1     -17.404   3.327  25.074  0.00  0.00    -0.263 NA
ATOM     27  C   UNL     1     -15.962   4.605  23.094  0.00  0.00    +0.040 A 
ATOM     28  C   UNL     1     -15.294   4.109  24.189  0.00  0.00    +0.033 A 
ATOM     29  C   UNL     1     -17.323   4.486  22.953  0.00  0.00    +0.033 A 
ATOM     30  C   UNL     1     -16.062   3.477  25.153  0.00  0.00    +0.111 A 
ATOM     31  C   UNL     1     -18.001   3.837  23.973  0.00  0.00    +0.111 A 
ENDBRANCH  25  27
ENDBRANCH  18   6
BRANCH   4  15
ATOM     15  C   UNL     1     -13.014   8.959  15.794  0.00  0.00    +0.119 C 
BRANCH  15  20
ATOM      1  F   UNL     1     -17.753   5.956  15.446  0.00  0.00    -0.205 F 
ATOM     20  C   UNL     1     -14.283   8.155  15.700  0.00  0.00    -0.033 A 
ATOM     21  C   UNL     1     -14.588   7.492  14.519  0.00  0.00    +0.008 A 
ATOM     22  C   UNL     1     -15.131   8.087  16.796  0.00  0.00    +0.008 A 
ATOM     23  C   UNL     1     -15.764   6.747  14.433  0.00  0.00    +0.038 A 
ATOM     24  C   UNL     1     -16.307   7.342  16.710  0.00  0.00    +0.038 A 
ATOM     26  C   UNL     1     -16.624   6.672  15.528  0.00  0.00    +0.123 A 
ENDBRANCH  15  20
ENDBRANCH   4  15
TORSDOF 4
ENDMDL
MODEL 9
REMARK VINA RESULT:      -6.7     23.868     25.937
REMARK  Name = 7155689
REMARK  4 active torsions:
REMARK  status: ('A' for Active; 'I' for Inactive)
REMARK    1  A    between atoms: N_4  and  C_15
REMARK    2  A    between atoms: N_6  and  C_18
REMARK    3  A    between atoms: C_15  and  C_20
REMARK    4  A    between atoms: C_25  and  C_27
REMARK                            x       y       z     vdW  Elec       q    Type
REMARK                         _______ _______ _______ _____ _____    ______ ____
ROOT
ATOM      2  O   UNL     1      10.540   7.266   1.306  0.00  0.00    -0.266 OA
ATOM      4  N   UNL     1      10.423   7.721   6.297  0.00  0.00    -0.297 NA
ATOM      5  N   UNL     1       9.833   6.514   3.402  0.00  0.00    -0.310 N 
ATOM      8  C   UNL     1       8.322   7.898   4.941  0.00  0.00    +0.024 C 
ATOM      9  C   UNL     1       9.103   5.694   5.669  0.00  0.00    +0.050 C 
ATOM     10  C   UNL     1       7.853   6.542   5.454  0.00  0.00    +0.017 C 
ATOM     11  C   UNL     1       9.261   8.557   5.973  0.00  0.00    +0.090 C 
ATOM     12  C   UNL     1      10.014   6.373   6.718  0.00  0.00    +0.094 C 
ATOM     13  C   UNL     1       8.990   7.706   3.573  0.00  0.00    +0.130 C 
ATOM     14  C   UNL     1       9.852   5.497   4.363  0.00  0.00    +0.026 A 
ATOM     16  C   UNL     1      10.543   4.368   4.138  0.00  0.00    +0.024 A 
ATOM     17  C   UNL     1      10.539   6.405   2.187  0.00  0.00    +0.273 A 
ATOM     18  C   UNL     1      11.315   5.141   1.984  0.00  0.00    +0.099 A 
ATOM     19  C   UNL     1      11.290   4.190   2.925  0.00  0.00    +0.030 A 
ENDROOT
BRANCH  18   6
ATOM      3  O   UNL     1      10.378   3.930  -0.424  0.00  0.00    -0.270 OA
ATOM      6  N   UNL     1      12.021   5.002   0.826  0.00  0.00    -0.277 N 
ATOM     25  C   UNL     1      11.508   4.402  -0.315  0.00  0.00    +0.248 C 
ATOM     32  H   UNL     1      13.007   5.231   0.891  0.00  0.00    +0.155 HD
BRANCH  25  27
ATOM      7  N   UNL     1      14.115   4.288  -3.668  0.00  0.00    -0.263 NA
ATOM     27  C   UNL     1      12.419   4.362  -1.488  0.00  0.00    +0.040 A 
ATOM     28  C   UNL     1      13.677   4.906  -1.372  0.00  0.00    +0.033 A 
ATOM     29  C   UNL     1      11.979   3.784  -2.654  0.00  0.00    +0.033 A 
ATOM     30  C   UNL     1      14.489   4.843  -2.493  0.00  0.00    +0.111 A 
ATOM     31  C   UNL     1      12.867   3.772  -3.718  0.00  0.00    +0.111 A 
ENDBRANCH  25  27
ENDBRANCH  18   6
BRANCH   4  15
ATOM     15  C   UNL     1      11.258   8.356   7.314  0.00  0.00    +0.119 C 
BRANCH  15  20
ATOM      1  F   UNL     1      16.678   8.422   5.824  0.00  0.00    -0.205 F 
ATOM     20  C   UNL     1      12.710   8.373   6.915  0.00  0.00    -0.033 A 
ATOM     21  C   UNL     1      13.409   7.177   6.824  0.00  0.00    +0.008 A 
ATOM     22  C   UNL     1      13.329   9.585   6.644  0.00  0.00    +0.008 A 
ATOM     23  C   UNL     1      14.754   7.194   6.455  0.00  0.00    +0.038 A 
ATOM     24  C   UNL     1      14.674   9.602   6.274  0.00  0.00    +0.038 A 
ATOM     26  C   UNL     1      15.386   8.406   6.180  0.00  0.00    +0.123 A 
ENDBRANCH  15  20
ENDBRANCH   4  15
TORSDOF 4
ENDMDL
MODEL 10
REMARK VINA RESULT:      -6.6     25.308     27.804
REMARK  Name = 7155689
REMARK  4 active torsions:
REMARK  status: ('A' for Active; 'I' for Inactive)
REMARK    1  A    between atoms: N_4  and  C_15
REMARK    2  A    between atoms: N_6  and  C_18
REMARK    3  A    between atoms: C_15  and  C_20
REMARK    4  A    between atoms: C_25  and  C_27
REMARK                            x       y       z     vdW  Elec       q    Type
REMARK                         _______ _______ _______ _____ _____    ______ ____
ROOT
ATOM      2  O   UNL     1      13.732   7.102   7.344  0.00  0.00    -0.266 OA
ATOM      4  N   UNL     1      10.454   5.547   3.885  0.00  0.00    -0.297 NA
ATOM      5  N   UNL     1      11.720   7.361   6.185  0.00  0.00    -0.310 N 
ATOM      8  C   UNL     1       9.814   5.653   6.307  0.00  0.00    +0.024 C 
ATOM      9  C   UNL     1       9.569   7.648   4.907  0.00  0.00    +0.050 C 
ATOM     10  C   UNL     1       8.918   6.855   6.037  0.00  0.00    +0.017 C 
ATOM     11  C   UNL     1       9.938   4.791   5.033  0.00  0.00    +0.090 C 
ATOM     12  C   UNL     1       9.664   6.762   3.643  0.00  0.00    +0.094 C 
ATOM     13  C   UNL     1      11.173   6.152   6.816  0.00  0.00    +0.130 C 
ATOM     14  C   UNL     1      10.947   8.138   5.317  0.00  0.00    +0.026 A 
ATOM     16  C   UNL     1      11.427   9.297   4.836  0.00  0.00    +0.024 A 
ATOM     17  C   UNL     1      13.020   7.746   6.572  0.00  0.00    +0.273 A 
ATOM     18  C   UNL     1      13.528   9.031   5.997  0.00  0.00    +0.099 A 
ATOM     19  C   UNL     1      12.745   9.749   5.184  0.00  0.00    +0.030 A 
ENDROOT
BRANCH  18   6
ATOM      3  O   UNL     1      15.941   8.347   4.635  0.00  0.00    -0.270 OA
ATOM      6  N   UNL     1      14.786   9.432   6.338  0.00  0.00    -0.277 N 
ATOM     25  C   UNL     1      15.924   9.064   5.632  0.00  0.00    +0.248 C 
ATOM     32  H   UNL     1      14.862   9.899   7.234  0.00  0.00    +0.155 HD
BRANCH  25  27
ATOM      7  N   UNL     1      19.587  10.648   7.089  0.00  0.00    -0.263 NA
ATOM     27  C   UNL     1      17.205   9.618   6.141  0.00  0.00    +0.040 A 
ATOM     28  C   UNL     1      17.249  10.933   6.540  0.00  0.00    +0.033 A 
ATOM     29  C   UNL     1      18.307   8.800   6.199  0.00  0.00    +0.033 A 
ATOM     30  C   UNL     1      18.467  11.402   7.008  0.00  0.00    +0.111 A 
ATOM     31  C   UNL     1      19.477   9.364   6.682  0.00  0.00    +0.111 A 
ENDBRANCH  25  27
ENDBRANCH  18   6
BRANCH   4  15
ATOM     15  C   UNL     1      10.508   4.710   2.688  0.00  0.00    +0.119 C 
BRANCH  15  20
ATOM      1  F   UNL     1      15.771   4.060   0.826  0.00  0.00    -0.205 F 
ATOM     20  C   UNL     1      11.918   4.536   2.190  0.00  0.00    -0.033 A 
ATOM     21  C   UNL     1      12.341   3.286   1.759  0.00  0.00    +0.008 A 
ATOM     22  C   UNL     1      12.775   5.627   2.168  0.00  0.00    +0.008 A 
ATOM     23  C   UNL     1      13.647   3.124   1.297  0.00  0.00    +0.038 A 
ATOM     24  C   UNL     1      14.081   5.465   1.706  0.00  0.00    +0.038 A 
ATOM     26  C   UNL     1      14.517   4.214   1.271  0.00  0.00    +0.123 A 
ENDBRANCH  15  20
ENDBRANCH   4  15
TORSDOF 4
ENDMDL
