MODEL 1
REMARK VINA RESULT:      -6.8      0.000      0.000
REMARK  Name = 56775488
REMARK  8 active torsions:
REMARK  status: ('A' for Active; 'I' for Inactive)
REMARK    1  A    between atoms: O_4  and  C_16
REMARK    2  A    between atoms: O_4  and  C_26
REMARK    3  A    between atoms: N_5  and  C_7
REMARK    4  A    between atoms: N_5  and  C_11
REMARK    5  A    between atoms: C_7  and  C_10
REMARK    6  A    between atoms: C_10  and  C_12
REMARK    7  A    between atoms: C_11  and  C_13
REMARK    8  A    between atoms: C_15  and  C_18
REMARK                            x       y       z     vdW  Elec       q    Type
REMARK                         _______ _______ _______ _____ _____    ______ ____
ROOT
ATOM      2  O   UNL     1     -19.408   3.744  25.313  0.00  0.00    -0.376 OA
ATOM      7  C   UNL     1     -17.688   2.698  26.020  0.00  0.00    +0.072 C 
ATOM      8  C   UNL     1     -18.097   4.145  25.770  0.00  0.00    +0.184 C 
ATOM      9  C   UNL     1     -19.053   2.349  25.437  0.00  0.00    +0.184 C 
ENDROOT
BRANCH   7   5
ATOM      5  N   UNL     1     -17.713   2.445  27.455  0.00  0.00    -0.302 NA
ATOM     28  H   UNL     1     -18.615   2.152  27.828  0.00  0.00    +0.123 HD
BRANCH   5  11
ATOM     11  C   UNL     1     -16.692   1.458  27.800  0.00  0.00    +0.120 C 
BRANCH  11  13
ATOM     13  C   UNL     1     -15.730   1.985  28.832  0.00  0.00    +0.008 A 
ATOM     16  C   UNL     1     -14.804   1.138  29.440  0.00  0.00    +0.124 A 
ATOM     17  C   UNL     1     -15.771   3.336  29.176  0.00  0.00    +0.008 A 
ATOM     19  C   UNL     1     -13.919   1.642  30.393  0.00  0.00    +0.046 A 
ATOM     20  C   UNL     1     -14.887   3.840  30.129  0.00  0.00    +0.001 A 
ATOM     21  C   UNL     1     -13.961   2.994  30.737  0.00  0.00    +0.004 A 
BRANCH  16   4
ATOM      4  O   UNL     1     -14.749  -0.183  29.115  0.00  0.00    -0.495 OA
ATOM     26  C   UNL     1     -13.551  -0.884  29.446  0.00  0.00    +0.277 C 
ENDBRANCH  16   4
ENDBRANCH  11  13
ENDBRANCH   5  11
ENDBRANCH   7   5
BRANCH   7  10
ATOM     10  C   UNL     1     -16.426   2.153  25.339  0.00  0.00    +0.085 C 
BRANCH  10  12
ATOM      3  O   UNL     1     -15.802   3.901  22.288  0.00  0.00    -0.354 OA
ATOM      6  N   UNL     1     -16.429   2.905  23.027  0.00  0.00    -0.083 NA
ATOM     12  C   UNL     1     -15.966   3.055  24.271  0.00  0.00    +0.086 A 
ATOM     14  C   UNL     1     -15.055   4.119  24.378  0.00  0.00    +0.076 A 
ATOM     15  C   UNL     1     -14.987   4.618  23.104  0.00  0.00    +0.167 A 
BRANCH  15  18
ATOM      1  F   UNL     1     -12.192   8.786  20.683  0.00  0.00    -0.205 F 
ATOM     18  C   UNL     1     -14.264   5.697  22.475  0.00  0.00    +0.020 A 
ATOM     22  C   UNL     1     -13.045   5.446  21.846  0.00  0.00    +0.014 A 
ATOM     23  C   UNL     1     -14.783   6.991  22.500  0.00  0.00    +0.014 A 
ATOM     24  C   UNL     1     -12.345   6.490  21.240  0.00  0.00    +0.039 A 
ATOM     25  C   UNL     1     -14.083   8.035  21.895  0.00  0.00    +0.039 A 
ATOM     27  C   UNL     1     -12.864   7.784  21.265  0.00  0.00    +0.123 A 
ENDBRANCH  15  18
ENDBRANCH  10  12
ENDBRANCH   7  10
TORSDOF 7
ENDMDL
MODEL 2
REMARK VINA RESULT:      -6.4     15.519     17.042
REMARK  Name = 56775488
REMARK  8 active torsions:
REMARK  status: ('A' for Active; 'I' for Inactive)
REMARK    1  A    between atoms: O_4  and  C_16
REMARK    2  A    between atoms: O_4  and  C_26
REMARK    3  A    between atoms: N_5  and  C_7
REMARK    4  A    between atoms: N_5  and  C_11
REMARK    5  A    between atoms: C_7  and  C_10
REMARK    6  A    between atoms: C_10  and  C_12
REMARK    7  A    between atoms: C_11  and  C_13
REMARK    8  A    between atoms: C_15  and  C_18
REMARK                            x       y       z     vdW  Elec       q    Type
REMARK                         _______ _______ _______ _____ _____    ______ ____
ROOT
ATOM      2  O   UNL     1      -8.900 -11.167  13.792  0.00  0.00    -0.376 OA
ATOM      7  C   UNL     1      -9.201  -9.809  15.410  0.00  0.00    +0.072 C 
ATOM      8  C   UNL     1      -9.016 -11.311  15.225  0.00  0.00    +0.184 C 
ATOM      9  C   UNL     1      -9.164  -9.749  13.887  0.00  0.00    +0.184 C 
ENDROOT
BRANCH   7   5
ATOM      5  N   UNL     1      -7.963  -9.245  15.931  0.00  0.00    -0.302 NA
ATOM     28  H   UNL     1      -7.758  -8.294  15.626  0.00  0.00    +0.123 HD
BRANCH   5  11
ATOM     11  C   UNL     1      -7.971  -9.303  17.391  0.00  0.00    +0.120 C 
BRANCH  11  13
ATOM     13  C   UNL     1      -6.811 -10.102  17.926  0.00  0.00    +0.008 A 
ATOM     16  C   UNL     1      -6.921 -10.800  19.128  0.00  0.00    +0.124 A 
ATOM     17  C   UNL     1      -5.618 -10.141  17.203  0.00  0.00    +0.008 A 
ATOM     19  C   UNL     1      -5.839 -11.536  19.608  0.00  0.00    +0.046 A 
ATOM     20  C   UNL     1      -4.536 -10.877  17.683  0.00  0.00    +0.001 A 
ATOM     21  C   UNL     1      -4.646 -11.574  18.885  0.00  0.00    +0.004 A 
BRANCH  16   4
ATOM      4  O   UNL     1      -8.079 -10.774  19.845  0.00  0.00    -0.495 OA
ATOM     26  C   UNL     1      -9.051 -11.774  19.544  0.00  0.00    +0.277 C 
ENDBRANCH  16   4
ENDBRANCH  11  13
ENDBRANCH   5  11
ENDBRANCH   7   5
BRANCH   7  10
ATOM     10  C   UNL     1     -10.447  -9.298  16.145  0.00  0.00    +0.085 C 
BRANCH  10  12
ATOM      3  O   UNL     1     -10.870  -5.865  15.255  0.00  0.00    -0.354 OA
ATOM      6  N   UNL     1     -10.198  -6.890  15.910  0.00  0.00    -0.083 NA
ATOM     12  C   UNL     1     -10.883  -7.998  15.611  0.00  0.00    +0.086 A 
ATOM     14  C   UNL     1     -11.985  -7.736  14.779  0.00  0.00    +0.076 A 
ATOM     15  C   UNL     1     -11.932  -6.381  14.585  0.00  0.00    +0.167 A 
BRANCH  15  18
ATOM      1  F   UNL     1     -15.016  -2.705  11.754  0.00  0.00    -0.205 F 
ATOM     18  C   UNL     1     -12.730  -5.430  13.850  0.00  0.00    +0.020 A 
ATOM     22  C   UNL     1     -12.110  -4.443  13.084  0.00  0.00    +0.014 A 
ATOM     23  C   UNL     1     -14.122  -5.497  13.909  0.00  0.00    +0.014 A 
ATOM     24  C   UNL     1     -12.883  -3.523  12.375  0.00  0.00    +0.039 A 
ATOM     25  C   UNL     1     -14.894  -4.576  13.201  0.00  0.00    +0.039 A 
ATOM     27  C   UNL     1     -14.275  -3.589  12.434  0.00  0.00    +0.123 A 
ENDBRANCH  15  18
ENDBRANCH  10  12
ENDBRANCH   7  10
TORSDOF 7
ENDMDL
MODEL 3
REMARK VINA RESULT:      -6.4      3.199      5.376
REMARK  Name = 56775488
REMARK  8 active torsions:
REMARK  status: ('A' for Active; 'I' for Inactive)
REMARK    1  A    between atoms: O_4  and  C_16
REMARK    2  A    between atoms: O_4  and  C_26
REMARK    3  A    between atoms: N_5  and  C_7
REMARK    4  A    between atoms: N_5  and  C_11
REMARK    5  A    between atoms: C_7  and  C_10
REMARK    6  A    between atoms: C_10  and  C_12
REMARK    7  A    between atoms: C_11  and  C_13
REMARK    8  A    between atoms: C_15  and  C_18
REMARK                            x       y       z     vdW  Elec       q    Type
REMARK                         _______ _______ _______ _____ _____    ______ ____
ROOT
ATOM      2  O   UNL     1     -16.855   7.999  23.658  0.00  0.00    -0.376 OA
ATOM      7  C   UNL     1     -15.743   6.265  23.101  0.00  0.00    +0.072 C 
ATOM      8  C   UNL     1     -15.472   7.749  23.320  0.00  0.00    +0.184 C 
ATOM      9  C   UNL     1     -17.200   6.625  23.375  0.00  0.00    +0.184 C 
ENDROOT
BRANCH   7   5
ATOM      5  N   UNL     1     -15.222   5.520  24.239  0.00  0.00    -0.302 NA
ATOM     28  H   UNL     1     -15.749   5.627  25.105  0.00  0.00    +0.123 HD
BRANCH   5  11
ATOM     11  C   UNL     1     -15.120   4.103  23.896  0.00  0.00    +0.120 C 
BRANCH  11  13
ATOM     13  C   UNL     1     -16.061   3.260  24.716  0.00  0.00    +0.008 A 
ATOM     16  C   UNL     1     -16.925   2.354  24.101  0.00  0.00    +0.124 A 
ATOM     17  C   UNL     1     -16.062   3.392  26.105  0.00  0.00    +0.008 A 
ATOM     19  C   UNL     1     -17.789   1.580  24.875  0.00  0.00    +0.046 A 
ATOM     20  C   UNL     1     -16.927   2.619  26.878  0.00  0.00    +0.001 A 
ATOM     21  C   UNL     1     -17.790   1.713  26.264  0.00  0.00    +0.004 A 
BRANCH  16   4
ATOM      4  O   UNL     1     -16.936   2.211  22.747  0.00  0.00    -0.495 OA
ATOM     26  C   UNL     1     -18.044   2.771  22.045  0.00  0.00    +0.277 C 
ENDBRANCH  16   4
ENDBRANCH  11  13
ENDBRANCH   5  11
ENDBRANCH   7   5
BRANCH   7  10
ATOM     10  C   UNL     1     -15.374   5.632  21.753  0.00  0.00    +0.085 C 
BRANCH  10  12
ATOM      3  O   UNL     1     -11.989   6.489  21.007  0.00  0.00    -0.354 OA
ATOM      6  N   UNL     1     -12.947   5.767  21.708  0.00  0.00    -0.083 NA
ATOM     12  C   UNL     1     -14.119   6.193  21.228  0.00  0.00    +0.086 A 
ATOM     14  C   UNL     1     -13.965   7.172  20.232  0.00  0.00    +0.076 A 
ATOM     15  C   UNL     1     -12.606   7.322  20.131  0.00  0.00    +0.167 A 
BRANCH  15  18
ATOM      1  F   UNL     1      -9.246  10.489  17.015  0.00  0.00    -0.205 F 
ATOM     18  C   UNL     1     -11.735   8.141  19.325  0.00  0.00    +0.020 A 
ATOM     22  C   UNL     1     -11.301   9.378  19.803  0.00  0.00    +0.014 A 
ATOM     23  C   UNL     1     -11.329   7.698  18.067  0.00  0.00    +0.014 A 
ATOM     24  C   UNL     1     -10.459  10.170  19.023  0.00  0.00    +0.039 A 
ATOM     25  C   UNL     1     -10.488   8.492  17.286  0.00  0.00    +0.039 A 
ATOM     27  C   UNL     1     -10.053   9.727  17.763  0.00  0.00    +0.123 A 
ENDBRANCH  15  18
ENDBRANCH  10  12
ENDBRANCH   7  10
TORSDOF 7
ENDMDL
MODEL 4
REMARK VINA RESULT:      -6.4     19.253     21.776
REMARK  Name = 56775488
REMARK  8 active torsions:
REMARK  status: ('A' for Active; 'I' for Inactive)
REMARK    1  A    between atoms: O_4  and  C_16
REMARK    2  A    between atoms: O_4  and  C_26
REMARK    3  A    between atoms: N_5  and  C_7
REMARK    4  A    between atoms: N_5  and  C_11
REMARK    5  A    between atoms: C_7  and  C_10
REMARK    6  A    between atoms: C_10  and  C_12
REMARK    7  A    between atoms: C_11  and  C_13
REMARK    8  A    between atoms: C_15  and  C_18
REMARK                            x       y       z     vdW  Elec       q    Type
REMARK                         _______ _______ _______ _____ _____    ______ ____
ROOT
ATOM      2  O   UNL     1      -2.558 -14.122  14.400  0.00  0.00    -0.376 OA
ATOM      7  C   UNL     1      -3.084 -12.054  14.396  0.00  0.00    +0.072 C 
ATOM      8  C   UNL     1      -1.868 -12.903  14.044  0.00  0.00    +0.184 C 
ATOM      9  C   UNL     1      -3.711 -13.371  14.841  0.00  0.00    +0.184 C 
ENDROOT
BRANCH   7   5
ATOM      5  N   UNL     1      -3.727 -11.621  13.163  0.00  0.00    -0.302 NA
ATOM     28  H   UNL     1      -4.745 -11.570  13.200  0.00  0.00    +0.123 HD
BRANCH   5  11
ATOM     11  C   UNL     1      -3.183 -10.330  12.749  0.00  0.00    +0.120 C 
BRANCH  11  13
ATOM     13  C   UNL     1      -3.917  -9.769  11.559  0.00  0.00    +0.008 A 
ATOM     16  C   UNL     1      -5.268  -9.435  11.648  0.00  0.00    +0.124 A 
ATOM     17  C   UNL     1      -3.230  -9.585  10.358  0.00  0.00    +0.008 A 
ATOM     19  C   UNL     1      -5.932  -8.916  10.537  0.00  0.00    +0.046 A 
ATOM     20  C   UNL     1      -3.894  -9.066   9.248  0.00  0.00    +0.001 A 
ATOM     21  C   UNL     1      -5.244  -8.731   9.337  0.00  0.00    +0.004 A 
BRANCH  16   4
ATOM      4  O   UNL     1      -5.953  -9.608  12.812  0.00  0.00    -0.495 OA
ATOM     26  C   UNL     1      -7.376  -9.533  12.744  0.00  0.00    +0.277 C 
ENDBRANCH  16   4
ENDBRANCH  11  13
ENDBRANCH   5  11
ENDBRANCH   7   5
BRANCH   7  10
ATOM     10  C   UNL     1      -2.929 -10.920  15.419  0.00  0.00    +0.085 C 
BRANCH  10  12
ATOM      3  O   UNL     1      -5.343 -10.992  18.050  0.00  0.00    -0.354 OA
ATOM      6  N   UNL     1      -4.075 -11.241  17.539  0.00  0.00    -0.083 NA
ATOM     12  C   UNL     1      -4.121 -10.810  16.275  0.00  0.00    +0.086 A 
ATOM     14  C   UNL     1      -5.378 -10.284  15.935  0.00  0.00    +0.076 A 
ATOM     15  C   UNL     1      -6.110 -10.421  17.086  0.00  0.00    +0.167 A 
BRANCH  15  18
ATOM      1  F   UNL     1     -11.338  -9.188  18.565  0.00  0.00    -0.205 F 
ATOM     18  C   UNL     1      -7.463 -10.101  17.470  0.00  0.00    +0.020 A 
ATOM     22  C   UNL     1      -8.125 -10.888  18.412  0.00  0.00    +0.014 A 
ATOM     23  C   UNL     1      -8.109  -9.006  16.897  0.00  0.00    +0.014 A 
ATOM     24  C   UNL     1      -9.434 -10.579  18.783  0.00  0.00    +0.039 A 
ATOM     25  C   UNL     1      -9.419  -8.698  17.267  0.00  0.00    +0.039 A 
ATOM     27  C   UNL     1     -10.081  -9.484  18.209  0.00  0.00    +0.123 A 
ENDBRANCH  15  18
ENDBRANCH  10  12
ENDBRANCH   7  10
TORSDOF 7
ENDMDL
MODEL 5
REMARK VINA RESULT:      -6.4     15.351     16.850
REMARK  Name = 56775488
REMARK  8 active torsions:
REMARK  status: ('A' for Active; 'I' for Inactive)
REMARK    1  A    between atoms: O_4  and  C_16
REMARK    2  A    between atoms: O_4  and  C_26
REMARK    3  A    between atoms: N_5  and  C_7
REMARK    4  A    between atoms: N_5  and  C_11
REMARK    5  A    between atoms: C_7  and  C_10
REMARK    6  A    between atoms: C_10  and  C_12
REMARK    7  A    between atoms: C_11  and  C_13
REMARK    8  A    between atoms: C_15  and  C_18
REMARK                            x       y       z     vdW  Elec       q    Type
REMARK                         _______ _______ _______ _____ _____    ______ ____
ROOT
ATOM      2  O   UNL     1     -11.412 -11.638  16.534  0.00  0.00    -0.376 OA
ATOM      7  C   UNL     1     -10.394  -9.798  16.898  0.00  0.00    +0.072 C 
ATOM      8  C   UNL     1     -10.704 -11.080  17.663  0.00  0.00    +0.184 C 
ATOM      9  C   UNL     1     -11.236 -10.414  15.786  0.00  0.00    +0.184 C 
ENDROOT
BRANCH   7   5
ATOM      5  N   UNL     1      -8.994  -9.820  16.494  0.00  0.00    -0.302 NA
ATOM     28  H   UNL     1      -8.803  -9.425  15.574  0.00  0.00    +0.123 HD
BRANCH   5  11
ATOM     11  C   UNL     1      -8.179  -9.144  17.500  0.00  0.00    +0.120 C 
BRANCH  11  13
ATOM     13  C   UNL     1      -6.986  -9.971  17.901  0.00  0.00    +0.008 A 
ATOM     16  C   UNL     1      -5.880 -10.082  17.059  0.00  0.00    +0.124 A 
ATOM     17  C   UNL     1      -6.994 -10.629  19.132  0.00  0.00    +0.008 A 
ATOM     19  C   UNL     1      -4.783 -10.850  17.446  0.00  0.00    +0.046 A 
ATOM     20  C   UNL     1      -5.897 -11.397  19.519  0.00  0.00    +0.001 A 
ATOM     21  C   UNL     1      -4.791 -11.508  18.676  0.00  0.00    +0.004 A 
BRANCH  16   4
ATOM      4  O   UNL     1      -5.855  -9.446  15.855  0.00  0.00    -0.495 OA
ATOM     26  C   UNL     1      -5.592 -10.246  14.704  0.00  0.00    +0.277 C 
ENDBRANCH  16   4
ENDBRANCH  11  13
ENDBRANCH   5  11
ENDBRANCH   7   5
BRANCH   7  10
ATOM     10  C   UNL     1     -10.822  -8.452  17.497  0.00  0.00    +0.085 C 
BRANCH  10  12
ATOM      3  O   UNL     1     -10.734  -5.987  14.915  0.00  0.00    -0.354 OA
ATOM      6  N   UNL     1     -10.115  -6.820  15.839  0.00  0.00    -0.083 NA
ATOM     12  C   UNL     1     -11.115  -7.470  16.442  0.00  0.00    +0.086 A 
ATOM     14  C   UNL     1     -12.374  -7.093  15.944  0.00  0.00    +0.076 A 
ATOM     15  C   UNL     1     -12.079  -6.159  14.986  0.00  0.00    +0.167 A 
BRANCH  15  18
ATOM      1  F   UNL     1     -15.101  -3.064  11.475  0.00  0.00    -0.205 F 
ATOM     18  C   UNL     1     -12.862  -5.356  14.078  0.00  0.00    +0.020 A 
ATOM     22  C   UNL     1     -14.250  -5.486  14.052  0.00  0.00    +0.014 A 
ATOM     23  C   UNL     1     -12.229  -4.453  13.225  0.00  0.00    +0.014 A 
ATOM     24  C   UNL     1     -15.007  -4.711  13.173  0.00  0.00    +0.039 A 
ATOM     25  C   UNL     1     -12.986  -3.678  12.345  0.00  0.00    +0.039 A 
ATOM     27  C   UNL     1     -14.374  -3.807  12.319  0.00  0.00    +0.123 A 
ENDBRANCH  15  18
ENDBRANCH  10  12
ENDBRANCH   7  10
TORSDOF 7
ENDMDL
MODEL 6
REMARK VINA RESULT:      -6.3     20.420     22.147
REMARK  Name = 56775488
REMARK  8 active torsions:
REMARK  status: ('A' for Active; 'I' for Inactive)
REMARK    1  A    between atoms: O_4  and  C_16
REMARK    2  A    between atoms: O_4  and  C_26
REMARK    3  A    between atoms: N_5  and  C_7
REMARK    4  A    between atoms: N_5  and  C_11
REMARK    5  A    between atoms: C_7  and  C_10
REMARK    6  A    between atoms: C_10  and  C_12
REMARK    7  A    between atoms: C_11  and  C_13
REMARK    8  A    between atoms: C_15  and  C_18
REMARK                            x       y       z     vdW  Elec       q    Type
REMARK                         _______ _______ _______ _____ _____    ______ ____
ROOT
ATOM      2  O   UNL     1      -2.650 -13.876  13.198  0.00  0.00    -0.376 OA
ATOM      7  C   UNL     1      -2.803 -12.070  14.325  0.00  0.00    +0.072 C 
ATOM      8  C   UNL     1      -3.726 -12.957  13.496  0.00  0.00    +0.184 C 
ATOM      9  C   UNL     1      -1.702 -13.031  13.889  0.00  0.00    +0.184 C 
ENDROOT
BRANCH   7   5
ATOM      5  N   UNL     1      -3.085 -12.290  15.737  0.00  0.00    -0.302 NA
ATOM     28  H   UNL     1      -2.429 -12.902  16.220  0.00  0.00    +0.123 HD
BRANCH   5  11
ATOM     11  C   UNL     1      -3.164 -11.006  16.430  0.00  0.00    +0.120 C 
BRANCH  11  13
ATOM     13  C   UNL     1      -4.335 -10.952  17.377  0.00  0.00    +0.008 A 
ATOM     16  C   UNL     1      -5.500 -10.268  17.030  0.00  0.00    +0.124 A 
ATOM     17  C   UNL     1      -4.245 -11.596  18.611  0.00  0.00    +0.008 A 
ATOM     19  C   UNL     1      -6.575 -10.229  17.918  0.00  0.00    +0.046 A 
ATOM     20  C   UNL     1      -5.319 -11.557  19.498  0.00  0.00    +0.001 A 
ATOM     21  C   UNL     1      -6.484 -10.873  19.152  0.00  0.00    +0.004 A 
BRANCH  16   4
ATOM      4  O   UNL     1      -5.605  -9.635  15.829  0.00  0.00    -0.495 OA
ATOM     26  C   UNL     1      -6.594 -10.122  14.924  0.00  0.00    +0.277 C 
ENDBRANCH  16   4
ENDBRANCH  11  13
ENDBRANCH   5  11
ENDBRANCH   7   5
BRANCH   7  10
ATOM     10  C   UNL     1      -2.679 -10.584  13.964  0.00  0.00    +0.085 C 
BRANCH  10  12
ATOM      3  O   UNL     1      -2.930 -10.095  10.436  0.00  0.00    -0.354 OA
ATOM      6  N   UNL     1      -2.205 -10.365  11.590  0.00  0.00    -0.083 NA
ATOM     12  C   UNL     1      -3.104 -10.336  12.578  0.00  0.00    +0.086 A 
ATOM     14  C   UNL     1      -4.400 -10.056  12.113  0.00  0.00    +0.076 A 
ATOM     15  C   UNL     1      -4.237  -9.913  10.760  0.00  0.00    +0.167 A 
BRANCH  15  18
ATOM      1  F   UNL     1      -7.655  -8.804   6.502  0.00  0.00    -0.205 F 
ATOM     18  C   UNL     1      -5.121  -9.624   9.657  0.00  0.00    +0.020 A 
ATOM     22  C   UNL     1      -6.296  -8.905   9.875  0.00  0.00    +0.014 A 
ATOM     23  C   UNL     1      -4.802 -10.067   8.374  0.00  0.00    +0.014 A 
ATOM     24  C   UNL     1      -7.151  -8.627   8.809  0.00  0.00    +0.039 A 
ATOM     25  C   UNL     1      -5.658  -9.790   7.308  0.00  0.00    +0.039 A 
ATOM     27  C   UNL     1      -6.832  -9.070   7.525  0.00  0.00    +0.123 A 
ENDBRANCH  15  18
ENDBRANCH  10  12
ENDBRANCH   7  10
TORSDOF 7
ENDMDL
MODEL 7
REMARK VINA RESULT:      -6.3     16.229     17.987
REMARK  Name = 56775488
REMARK  8 active torsions:
REMARK  status: ('A' for Active; 'I' for Inactive)
REMARK    1  A    between atoms: O_4  and  C_16
REMARK    2  A    between atoms: O_4  and  C_26
REMARK    3  A    between atoms: N_5  and  C_7
REMARK    4  A    between atoms: N_5  and  C_11
REMARK    5  A    between atoms: C_7  and  C_10
REMARK    6  A    between atoms: C_10  and  C_12
REMARK    7  A    between atoms: C_11  and  C_13
REMARK    8  A    between atoms: C_15  and  C_18
REMARK                            x       y       z     vdW  Elec       q    Type
REMARK                         _______ _______ _______ _____ _____    ______ ____
ROOT
ATOM      2  O   UNL     1     -13.123  -7.675  13.955  0.00  0.00    -0.376 OA
ATOM      7  C   UNL     1     -11.606  -8.313  15.313  0.00  0.00    +0.072 C 
ATOM      8  C   UNL     1     -13.002  -7.707  15.395  0.00  0.00    +0.184 C 
ATOM      9  C   UNL     1     -11.770  -8.160  13.805  0.00  0.00    +0.184 C 
ENDROOT
BRANCH   7   5
ATOM      5  N   UNL     1     -11.688  -9.727  15.652  0.00  0.00    -0.302 NA
ATOM     28  H   UNL     1     -10.791 -10.206  15.735  0.00  0.00    +0.123 HD
BRANCH   5  11
ATOM     11  C   UNL     1     -12.452  -9.895  16.886  0.00  0.00    +0.120 C 
BRANCH  11  13
ATOM     13  C   UNL     1     -11.610 -10.476  17.991  0.00  0.00    +0.008 A 
ATOM     16  C   UNL     1     -10.879 -11.647  17.790  0.00  0.00    +0.124 A 
ATOM     17  C   UNL     1     -11.566  -9.830  19.227  0.00  0.00    +0.008 A 
ATOM     19  C   UNL     1     -10.104 -12.171  18.824  0.00  0.00    +0.046 A 
ATOM     20  C   UNL     1     -10.791 -10.353  20.261  0.00  0.00    +0.001 A 
ATOM     21  C   UNL     1     -10.060 -11.524  20.059  0.00  0.00    +0.004 A 
BRANCH  16   4
ATOM      4  O   UNL     1     -10.910 -12.290  16.590  0.00  0.00    -0.495 OA
ATOM     26  C   UNL     1      -9.717 -12.955  16.179  0.00  0.00    +0.277 C 
ENDBRANCH  16   4
ENDBRANCH  11  13
ENDBRANCH   5  11
ENDBRANCH   7   5
BRANCH   7  10
ATOM     10  C   UNL     1     -10.442  -7.598  16.011  0.00  0.00    +0.085 C 
BRANCH  10  12
ATOM      3  O   UNL     1      -7.806  -9.992  15.749  0.00  0.00    -0.354 OA
ATOM      6  N   UNL     1      -8.863  -9.266  15.214  0.00  0.00    -0.083 NA
ATOM     12  C   UNL     1      -9.307  -8.510  16.223  0.00  0.00    +0.086 A 
ATOM     14  C   UNL     1      -8.576  -8.713  17.405  0.00  0.00    +0.076 A 
ATOM     15  C   UNL     1      -7.643  -9.654  17.054  0.00  0.00    +0.167 A 
BRANCH  15  18
ATOM      1  F   UNL     1      -3.518 -12.270  19.732  0.00  0.00    -0.205 F 
ATOM     18  C   UNL     1      -6.574 -10.330  17.748  0.00  0.00    +0.020 A 
ATOM     22  C   UNL     1      -5.400 -10.656  17.070  0.00  0.00    +0.014 A 
ATOM     23  C   UNL     1      -6.717 -10.659  19.095  0.00  0.00    +0.014 A 
ATOM     24  C   UNL     1      -4.367 -11.311  17.741  0.00  0.00    +0.039 A 
ATOM     25  C   UNL     1      -5.684 -11.315  19.765  0.00  0.00    +0.039 A 
ATOM     27  C   UNL     1      -4.509 -11.641  19.089  0.00  0.00    +0.123 A 
ENDBRANCH  15  18
ENDBRANCH  10  12
ENDBRANCH   7  10
TORSDOF 7
ENDMDL
MODEL 8
REMARK VINA RESULT:      -6.3     15.426     17.590
REMARK  Name = 56775488
REMARK  8 active torsions:
REMARK  status: ('A' for Active; 'I' for Inactive)
REMARK    1  A    between atoms: O_4  and  C_16
REMARK    2  A    between atoms: O_4  and  C_26
REMARK    3  A    between atoms: N_5  and  C_7
REMARK    4  A    between atoms: N_5  and  C_11
REMARK    5  A    between atoms: C_7  and  C_10
REMARK    6  A    between atoms: C_10  and  C_12
REMARK    7  A    between atoms: C_11  and  C_13
REMARK    8  A    between atoms: C_15  and  C_18
REMARK                            x       y       z     vdW  Elec       q    Type
REMARK                         _______ _______ _______ _____ _____    ______ ____
ROOT
ATOM      2  O   UNL     1     -14.043  -9.531  15.794  0.00  0.00    -0.376 OA
ATOM      7  C   UNL     1     -12.693  -7.884  15.651  0.00  0.00    +0.072 C 
ATOM      8  C   UNL     1     -12.668  -9.383  15.373  0.00  0.00    +0.184 C 
ATOM      9  C   UNL     1     -14.106  -8.136  16.168  0.00  0.00    +0.184 C 
ENDROOT
BRANCH   7   5
ATOM      5  N   UNL     1     -12.778  -7.173  14.383  0.00  0.00    -0.302 NA
ATOM     28  H   UNL     1     -13.662  -7.278  13.886  0.00  0.00    +0.123 HD
BRANCH   5  11
ATOM     11  C   UNL     1     -12.495  -5.755  14.591  0.00  0.00    +0.120 C 
BRANCH  11  13
ATOM     13  C   UNL     1     -13.073  -4.902  13.493  0.00  0.00    +0.008 A 
ATOM     16  C   UNL     1     -14.449  -4.862  13.270  0.00  0.00    +0.124 A 
ATOM     17  C   UNL     1     -12.214  -4.144  12.694  0.00  0.00    +0.008 A 
ATOM     19  C   UNL     1     -14.967  -4.066  12.249  0.00  0.00    +0.046 A 
ATOM     20  C   UNL     1     -12.733  -3.348  11.674  0.00  0.00    +0.001 A 
ATOM     21  C   UNL     1     -14.109  -3.309  11.451  0.00  0.00    +0.004 A 
BRANCH  16   4
ATOM      4  O   UNL     1     -15.300  -5.594  14.040  0.00  0.00    -0.495 OA
ATOM     26  C   UNL     1     -16.190  -6.479  13.362  0.00  0.00    +0.277 C 
ENDBRANCH  16   4
ENDBRANCH  11  13
ENDBRANCH   5  11
ENDBRANCH   7   5
BRANCH   7  10
ATOM     10  C   UNL     1     -11.649  -7.286  16.603  0.00  0.00    +0.085 C 
BRANCH  10  12
ATOM      3  O   UNL     1      -8.642  -8.848  15.474  0.00  0.00    -0.354 OA
ATOM      6  N   UNL     1      -9.854  -8.208  15.246  0.00  0.00    -0.083 NA
ATOM     12  C   UNL     1     -10.351  -7.965  16.462  0.00  0.00    +0.086 A 
ATOM     14  C   UNL     1      -9.504  -8.422  17.486  0.00  0.00    +0.076 A 
ATOM     15  C   UNL     1      -8.444  -8.969  16.812  0.00  0.00    +0.167 A 
BRANCH  15  18
ATOM      1  F   UNL     1      -3.703 -11.464  18.341  0.00  0.00    -0.205 F 
ATOM     18  C   UNL     1      -7.217  -9.617  17.207  0.00  0.00    +0.020 A 
ATOM     22  C   UNL     1      -7.133 -10.256  18.444  0.00  0.00    +0.014 A 
ATOM     23  C   UNL     1      -6.115  -9.601  16.354  0.00  0.00    +0.014 A 
ATOM     24  C   UNL     1      -5.946 -10.880  18.827  0.00  0.00    +0.039 A 
ATOM     25  C   UNL     1      -4.927 -10.225  16.737  0.00  0.00    +0.039 A 
ATOM     27  C   UNL     1      -4.842 -10.864  17.973  0.00  0.00    +0.123 A 
ENDBRANCH  15  18
ENDBRANCH  10  12
ENDBRANCH   7  10
TORSDOF 7
ENDMDL
MODEL 9
REMARK VINA RESULT:      -6.1     30.713     35.623
REMARK  Name = 56775488
REMARK  8 active torsions:
REMARK  status: ('A' for Active; 'I' for Inactive)
REMARK    1  A    between atoms: O_4  and  C_16
REMARK    2  A    between atoms: O_4  and  C_26
REMARK    3  A    between atoms: N_5  and  C_7
REMARK    4  A    between atoms: N_5  and  C_11
REMARK    5  A    between atoms: C_7  and  C_10
REMARK    6  A    between atoms: C_10  and  C_12
REMARK    7  A    between atoms: C_11  and  C_13
REMARK    8  A    between atoms: C_15  and  C_18
REMARK                            x       y       z     vdW  Elec       q    Type
REMARK                         _______ _______ _______ _____ _____    ______ ____
ROOT
ATOM      2  O   UNL     1      12.334   9.112   0.892  0.00  0.00    -0.376 OA
ATOM      7  C   UNL     1      10.985   7.462   1.017  0.00  0.00    +0.072 C 
ATOM      8  C   UNL     1      11.186   8.683   0.126  0.00  0.00    +0.184 C 
ATOM      9  C   UNL     1      12.144   8.029   1.831  0.00  0.00    +0.184 C 
ENDROOT
BRANCH   7   5
ATOM      5  N   UNL     1      11.448   6.280   0.303  0.00  0.00    -0.302 NA
ATOM     28  H   UNL     1      11.976   5.613   0.866  0.00  0.00    +0.123 HD
BRANCH   5  11
ATOM     11  C   UNL     1      10.313   5.607  -0.324  0.00  0.00    +0.120 C 
BRANCH  11  13
ATOM     13  C   UNL     1      10.759   4.590  -1.342  0.00  0.00    +0.008 A 
ATOM     16  C   UNL     1      11.743   3.652  -1.029  0.00  0.00    +0.124 A 
ATOM     17  C   UNL     1      10.175   4.592  -2.610  0.00  0.00    +0.008 A 
ATOM     19  C   UNL     1      12.143   2.717  -1.983  0.00  0.00    +0.046 A 
ATOM     20  C   UNL     1      10.575   3.656  -3.563  0.00  0.00    +0.001 A 
ATOM     21  C   UNL     1      11.559   2.719  -3.250  0.00  0.00    +0.004 A 
BRANCH  16   4
ATOM      4  O   UNL     1      12.322   3.636   0.203  0.00  0.00    -0.495 OA
ATOM     26  C   UNL     1      13.743   3.520   0.250  0.00  0.00    +0.277 C 
ENDBRANCH  16   4
ENDBRANCH  11  13
ENDBRANCH   5  11
ENDBRANCH   7   5
BRANCH   7  10
ATOM     10  C   UNL     1       9.627   7.255   1.700  0.00  0.00    +0.085 C 
BRANCH  10  12
ATOM      3  O   UNL     1      10.396   5.000   4.360  0.00  0.00    -0.354 OA
ATOM      6  N   UNL     1      10.442   5.387   3.026  0.00  0.00    -0.083 NA
ATOM     12  C   UNL     1       9.779   6.546   2.981  0.00  0.00    +0.086 A 
ATOM     14  C   UNL     1       9.298   6.937   4.242  0.00  0.00    +0.076 A 
ATOM     15  C   UNL     1       9.713   5.931   5.074  0.00  0.00    +0.167 A 
BRANCH  15  18
ATOM      1  F   UNL     1       9.217   4.907  10.528  0.00  0.00    -0.205 F 
ATOM     18  C   UNL     1       9.583   5.665   6.486  0.00  0.00    +0.020 A 
ATOM     22  C   UNL     1       9.147   6.672   7.348  0.00  0.00    +0.014 A 
ATOM     23  C   UNL     1       9.897   4.403   6.990  0.00  0.00    +0.014 A 
ATOM     24  C   UNL     1       9.022   6.415   8.713  0.00  0.00    +0.039 A 
ATOM     25  C   UNL     1       9.773   4.147   8.355  0.00  0.00    +0.039 A 
ATOM     27  C   UNL     1       9.337   5.153   9.217  0.00  0.00    +0.123 A 
ENDBRANCH  15  18
ENDBRANCH  10  12
ENDBRANCH   7  10
TORSDOF 7
ENDMDL
MODEL 10
REMARK VINA RESULT:      -6.1     32.676     37.561
REMARK  Name = 56775488
REMARK  8 active torsions:
REMARK  status: ('A' for Active; 'I' for Inactive)
REMARK    1  A    between atoms: O_4  and  C_16
REMARK    2  A    between atoms: O_4  and  C_26
REMARK    3  A    between atoms: N_5  and  C_7
REMARK    4  A    between atoms: N_5  and  C_11
REMARK    5  A    between atoms: C_7  and  C_10
REMARK    6  A    between atoms: C_10  and  C_12
REMARK    7  A    between atoms: C_11  and  C_13
REMARK    8  A    between atoms: C_15  and  C_18
REMARK                            x       y       z     vdW  Elec       q    Type
REMARK                         _______ _______ _______ _____ _____    ______ ____
ROOT
ATOM      2  O   UNL     1      15.345   5.371   0.076  0.00  0.00    -0.376 OA
ATOM      7  C   UNL     1      13.660   4.094  -0.216  0.00  0.00    +0.072 C 
ATOM      8  C   UNL     1      13.913   5.548   0.170  0.00  0.00    +0.184 C 
ATOM      9  C   UNL     1      15.179   3.962  -0.201  0.00  0.00    +0.184 C 
ENDROOT
BRANCH   7   5
ATOM      5  N   UNL     1      13.199   4.049  -1.597  0.00  0.00    -0.302 NA
ATOM     28  H   UNL     1      13.898   4.298  -2.296  0.00  0.00    +0.123 HD
BRANCH   5  11
ATOM     11  C   UNL     1      12.655   2.726  -1.893  0.00  0.00    +0.120 C 
BRANCH  11  13
ATOM     13  C   UNL     1      11.676   2.766  -3.037  0.00  0.00    +0.008 A 
ATOM     16  C   UNL     1      12.044   3.302  -4.271  0.00  0.00    +0.124 A 
ATOM     17  C   UNL     1      10.389   2.259  -2.853  0.00  0.00    +0.008 A 
ATOM     19  C   UNL     1      11.126   3.331  -5.320  0.00  0.00    +0.046 A 
ATOM     20  C   UNL     1       9.471   2.288  -3.901  0.00  0.00    +0.001 A 
ATOM     21  C   UNL     1       9.839   2.824  -5.135  0.00  0.00    +0.004 A 
BRANCH  16   4
ATOM      4  O   UNL     1      13.296   3.800  -4.469  0.00  0.00    -0.495 OA
ATOM     26  C   UNL     1      13.395   5.073  -5.105  0.00  0.00    +0.277 C 
ENDBRANCH  16   4
ENDBRANCH  11  13
ENDBRANCH   5  11
ENDBRANCH   7   5
BRANCH   7  10
ATOM     10  C   UNL     1      12.827   3.210   0.721  0.00  0.00    +0.085 C 
BRANCH  10  12
ATOM      3  O   UNL     1       9.910   5.086   1.577  0.00  0.00    -0.354 OA
ATOM      6  N   UNL     1      10.705   4.397   0.668  0.00  0.00    -0.083 NA
ATOM     12  C   UNL     1      11.761   3.986   1.376  0.00  0.00    +0.086 A 
ATOM     14  C   UNL     1      11.689   4.381   2.722  0.00  0.00    +0.076 A 
ATOM     15  C   UNL     1      10.506   5.069   2.797  0.00  0.00    +0.167 A 
BRANCH  15  18
ATOM      1  F   UNL     1       7.761   7.696   6.871  0.00  0.00    -0.205 F 
ATOM     18  C   UNL     1       9.794   5.749   3.851  0.00  0.00    +0.020 A 
ATOM     22  C   UNL     1       9.175   6.973   3.598  0.00  0.00    +0.014 A 
ATOM     23  C   UNL     1       9.727   5.183   5.123  0.00  0.00    +0.014 A 
ATOM     24  C   UNL     1       8.487   7.630   4.618  0.00  0.00    +0.039 A 
ATOM     25  C   UNL     1       9.040   5.841   6.144  0.00  0.00    +0.039 A 
ATOM     27  C   UNL     1       8.420   7.064   5.892  0.00  0.00    +0.123 A 
ENDBRANCH  15  18
ENDBRANCH  10  12
ENDBRANCH   7  10
TORSDOF 7
ENDMDL
