MODEL 1
REMARK VINA RESULT:      -8.2      0.000      0.000
REMARK  Name = 11911856
REMARK  8 active torsions:
REMARK  status: ('A' for Active; 'I' for Inactive)
REMARK    1  A    between atoms: S_1  and  N_6
REMARK    2  A    between atoms: S_1  and  C_18
REMARK    3  A    between atoms: N_6  and  C_13
REMARK    4  A    between atoms: N_7  and  C_14
REMARK    5  A    between atoms: N_10  and  C_36
REMARK    6  A    between atoms: N_10  and  C_37
REMARK    7  A    between atoms: N_10  and  C_38
REMARK    8  A    between atoms: C_22  and  C_27
REMARK                            x       y       z     vdW  Elec       q    Type
REMARK                         _______ _______ _______ _____ _____    ______ ____
ROOT
ATOM      2  O   UNL     1      -7.018 -10.312  16.633  0.00  0.00    -0.370 OA
ATOM      3  O   UNL     1      -5.103 -10.674  19.075  0.00  0.00    -0.370 OA
ATOM     11  C   UNL     1      -5.249 -11.366  17.825  0.00  0.00    +0.170 C 
ATOM     12  C   UNL     1      -6.731 -11.416  17.507  0.00  0.00    +0.171 C 
ATOM     13  C   UNL     1      -4.658 -10.549  16.702  0.00  0.00    +0.133 C 
ATOM     14  C   UNL     1      -7.403 -11.214  18.844  0.00  0.00    +0.130 C 
ATOM     15  C   UNL     1      -5.798  -9.622  16.327  0.00  0.00    +0.183 C 
ATOM     16  C   UNL     1      -6.402 -10.353  19.593  0.00  0.00    +0.185 C 
ENDROOT
BRANCH  14   7
ATOM      7  N   UNL     1      -7.569 -12.486  19.513  0.00  0.00    -0.306 N 
ATOM      8  N   UNL     1      -9.825 -12.062  20.000  0.00  0.00    -0.214 NA
ATOM      9  N   UNL     1      -8.779 -14.125  20.677  0.00  0.00    -0.223 NA
ATOM     17  C   UNL     1      -8.759 -12.904  20.080  0.00  0.00    +0.216 A 
ATOM     22  C   UNL     1     -10.969 -12.500  20.563  0.00  0.00    +0.076 A 
ATOM     25  C   UNL     1      -9.956 -14.500  21.219  0.00  0.00    +0.116 A 
ATOM     26  C   UNL     1     -11.095 -13.722  21.192  0.00  0.00    +0.048 A 
ATOM     40  H   UNL     1      -6.797 -13.143  19.531  0.00  0.00    +0.149 HD
BRANCH  22  27
ATOM     27  C   UNL     1     -12.087 -11.592  20.466  0.00  0.00    +0.001 A 
ATOM     32  C   UNL     1     -13.242 -11.819  21.218  0.00  0.00    +0.012 A 
ATOM     33  C   UNL     1     -12.019 -10.485  19.618  0.00  0.00    +0.012 A 
ATOM     34  C   UNL     1     -14.323 -10.943  21.122  0.00  0.00    +0.024 A 
ATOM     35  C   UNL     1     -13.100  -9.609  19.522  0.00  0.00    +0.024 A 
ATOM     36  C   UNL     1     -14.251  -9.837  20.274  0.00  0.00    +0.029 A 
BRANCH  36  10
ATOM     10  N   UNL     1     -15.345  -8.950  20.178  0.00  0.00    -0.336 N 
ATOM     37  C   UNL     1     -16.053  -8.794  18.924  0.00  0.00    +0.129 C 
ATOM     38  C   UNL     1     -15.763  -8.174  21.328  0.00  0.00    +0.129 C 
ENDBRANCH  36  10
ENDBRANCH  22  27
ENDBRANCH  14   7
BRANCH  13   6
ATOM      6  N   UNL     1      -4.338 -11.433  15.555  0.00  0.00    -0.182 NA
ATOM     39  H   UNL     1      -4.910 -12.281  15.459  0.00  0.00    +0.148 HD
BRANCH   6   1
ATOM      1  S   UNL     1      -2.781 -11.409  14.879  0.00  0.00    +0.059 S 
ATOM      4  O   UNL     1      -2.317 -12.769  14.683  0.00  0.00    -0.153 OA
ATOM      5  O   UNL     1      -1.968 -10.458  15.613  0.00  0.00    -0.153 OA
BRANCH   1  18
ATOM     18  C   UNL     1      -3.086 -10.703  13.286  0.00  0.00    +0.106 A 
ATOM     19  C   UNL     1      -4.381 -10.361  12.937  0.00  0.00    +0.037 A 
ATOM     20  C   UNL     1      -2.027 -10.508  12.422  0.00  0.00    +0.029 A 
ATOM     21  C   UNL     1      -4.640  -9.801  11.675  0.00  0.00    -0.016 A 
ATOM     23  C   UNL     1      -2.266  -9.951  11.165  0.00  0.00    +0.010 A 
ATOM     24  C   UNL     1      -3.567  -9.593  10.776  0.00  0.00    -0.018 A 
ATOM     28  C   UNL     1      -5.941  -9.441  11.286  0.00  0.00    +0.008 A 
ATOM     29  C   UNL     1      -3.826  -9.032   9.514  0.00  0.00    +0.008 A 
ATOM     30  C   UNL     1      -6.180  -8.886  10.029  0.00  0.00    +0.001 A 
ATOM     31  C   UNL     1      -5.125  -8.682   9.145  0.00  0.00    +0.001 A 
ENDBRANCH   1  18
ENDBRANCH   6   1
ENDBRANCH  13   6
TORSDOF 6
ENDMDL
MODEL 2
REMARK VINA RESULT:      -8.0      2.153      3.363
REMARK  Name = 11911856
REMARK  8 active torsions:
REMARK  status: ('A' for Active; 'I' for Inactive)
REMARK    1  A    between atoms: S_1  and  N_6
REMARK    2  A    between atoms: S_1  and  C_18
REMARK    3  A    between atoms: N_6  and  C_13
REMARK    4  A    between atoms: N_7  and  C_14
REMARK    5  A    between atoms: N_10  and  C_36
REMARK    6  A    between atoms: N_10  and  C_37
REMARK    7  A    between atoms: N_10  and  C_38
REMARK    8  A    between atoms: C_22  and  C_27
REMARK                            x       y       z     vdW  Elec       q    Type
REMARK                         _______ _______ _______ _____ _____    ______ ____
ROOT
ATOM      2  O   UNL     1      -5.325 -10.287  18.200  0.00  0.00    -0.370 OA
ATOM      3  O   UNL     1      -6.994 -11.784  16.024  0.00  0.00    -0.370 OA
ATOM     11  C   UNL     1      -5.844 -10.924  15.967  0.00  0.00    +0.170 C 
ATOM     12  C   UNL     1      -6.028  -9.853  17.025  0.00  0.00    +0.171 C 
ATOM     13  C   UNL     1      -4.610 -11.672  16.411  0.00  0.00    +0.133 C 
ATOM     14  C   UNL     1      -7.517  -9.839  17.280  0.00  0.00    +0.130 C 
ATOM     15  C   UNL     1      -4.653 -11.523  17.919  0.00  0.00    +0.183 C 
ATOM     16  C   UNL     1      -7.917 -11.275  16.997  0.00  0.00    +0.185 C 
ENDROOT
BRANCH  14   7
ATOM      7  N   UNL     1      -8.171  -8.944  16.351  0.00  0.00    -0.306 N 
ATOM      8  N   UNL     1     -10.249  -9.179  17.415  0.00  0.00    -0.214 NA
ATOM      9  N   UNL     1     -10.002  -7.762  15.482  0.00  0.00    -0.223 NA
ATOM     17  C   UNL     1      -9.514  -8.619  16.417  0.00  0.00    +0.216 A 
ATOM     22  C   UNL     1     -11.555  -8.841  17.450  0.00  0.00    +0.076 A 
ATOM     25  C   UNL     1     -11.315  -7.468  15.576  0.00  0.00    +0.116 A 
ATOM     26  C   UNL     1     -12.148  -7.981  16.548  0.00  0.00    +0.048 A 
ATOM     40  H   UNL     1      -7.621  -8.479  15.637  0.00  0.00    +0.149 HD
BRANCH  22  27
ATOM     27  C   UNL     1     -12.316  -9.446  18.516  0.00  0.00    +0.001 A 
ATOM     32  C   UNL     1     -13.711  -9.461  18.462  0.00  0.00    +0.012 A 
ATOM     33  C   UNL     1     -11.660 -10.017  19.609  0.00  0.00    +0.012 A 
ATOM     34  C   UNL     1     -14.447 -10.043  19.492  0.00  0.00    +0.024 A 
ATOM     35  C   UNL     1     -12.396 -10.601  20.641  0.00  0.00    +0.024 A 
ATOM     36  C   UNL     1     -13.788 -10.614  20.582  0.00  0.00    +0.029 A 
BRANCH  36  10
ATOM     10  N   UNL     1     -14.533 -11.204  21.626  0.00  0.00    -0.336 N 
ATOM     37  C   UNL     1     -13.913 -12.164  22.517  0.00  0.00    +0.129 C 
ATOM     38  C   UNL     1     -15.931 -10.870  21.810  0.00  0.00    +0.129 C 
ENDBRANCH  36  10
ENDBRANCH  22  27
ENDBRANCH  14   7
BRANCH  13   6
ATOM      6  N   UNL     1      -3.400 -10.999  15.879  0.00  0.00    -0.182 NA
ATOM     39  H   UNL     1      -3.405  -9.971  15.896  0.00  0.00    +0.148 HD
BRANCH   6   1
ATOM      1  S   UNL     1      -2.415 -11.800  14.752  0.00  0.00    +0.059 S 
ATOM      4  O   UNL     1      -2.861 -13.173  14.609  0.00  0.00    -0.153 OA
ATOM      5  O   UNL     1      -1.027 -11.512  15.057  0.00  0.00    -0.153 OA
BRANCH   1  18
ATOM     18  C   UNL     1      -2.802 -10.943  13.255  0.00  0.00    +0.106 A 
ATOM     19  C   UNL     1      -4.115 -10.588  13.000  0.00  0.00    +0.037 A 
ATOM     20  C   UNL     1      -1.787 -10.644  12.368  0.00  0.00    +0.029 A 
ATOM     21  C   UNL     1      -4.439  -9.908  11.815  0.00  0.00    -0.016 A 
ATOM     23  C   UNL     1      -2.091  -9.968  11.185  0.00  0.00    +0.010 A 
ATOM     24  C   UNL     1      -3.412  -9.592  10.894  0.00  0.00    -0.018 A 
ATOM     28  C   UNL     1      -5.761  -9.532  11.524  0.00  0.00    +0.008 A 
ATOM     29  C   UNL     1      -3.737  -8.911   9.709  0.00  0.00    +0.008 A 
ATOM     30  C   UNL     1      -6.065  -8.856  10.342  0.00  0.00    +0.001 A 
ATOM     31  C   UNL     1      -5.055  -8.547   9.437  0.00  0.00    +0.001 A 
ENDBRANCH   1  18
ENDBRANCH   6   1
ENDBRANCH  13   6
TORSDOF 6
ENDMDL
MODEL 3
REMARK VINA RESULT:      -8.0      5.269      8.772
REMARK  Name = 11911856
REMARK  8 active torsions:
REMARK  status: ('A' for Active; 'I' for Inactive)
REMARK    1  A    between atoms: S_1  and  N_6
REMARK    2  A    between atoms: S_1  and  C_18
REMARK    3  A    between atoms: N_6  and  C_13
REMARK    4  A    between atoms: N_7  and  C_14
REMARK    5  A    between atoms: N_10  and  C_36
REMARK    6  A    between atoms: N_10  and  C_37
REMARK    7  A    between atoms: N_10  and  C_38
REMARK    8  A    between atoms: C_22  and  C_27
REMARK                            x       y       z     vdW  Elec       q    Type
REMARK                         _______ _______ _______ _____ _____    ______ ____
ROOT
ATOM      2  O   UNL     1      -5.993 -11.575  10.141  0.00  0.00    -0.370 OA
ATOM      3  O   UNL     1      -4.723  -8.725   9.968  0.00  0.00    -0.370 OA
ATOM     11  C   UNL     1      -4.387  -9.993   9.381  0.00  0.00    +0.170 C 
ATOM     12  C   UNL     1      -4.679 -11.062  10.416  0.00  0.00    +0.171 C 
ATOM     13  C   UNL     1      -5.330 -10.310   8.246  0.00  0.00    +0.133 C 
ATOM     14  C   UNL     1      -4.672 -10.316  11.729  0.00  0.00    +0.130 C 
ATOM     15  C   UNL     1      -6.508 -10.947   8.958  0.00  0.00    +0.183 C 
ATOM     16  C   UNL     1      -5.136  -8.928  11.326  0.00  0.00    +0.185 C 
ENDROOT
BRANCH  14   7
ATOM      7  N   UNL     1      -3.328 -10.259  12.260  0.00  0.00    -0.306 N 
ATOM      8  N   UNL     1      -4.058 -10.654  14.455  0.00  0.00    -0.214 NA
ATOM      9  N   UNL     1      -1.718 -10.352  13.965  0.00  0.00    -0.223 NA
ATOM     17  C   UNL     1      -3.025 -10.427  13.599  0.00  0.00    +0.216 A 
ATOM     22  C   UNL     1      -3.728 -10.812  15.753  0.00  0.00    +0.076 A 
ATOM     25  C   UNL     1      -1.460 -10.520  15.278  0.00  0.00    +0.116 A 
ATOM     26  C   UNL     1      -2.433 -10.755  16.227  0.00  0.00    +0.048 A 
ATOM     40  H   UNL     1      -2.546 -10.144  11.625  0.00  0.00    +0.149 HD
BRANCH  22  27
ATOM     27  C   UNL     1      -4.839 -11.053  16.642  0.00  0.00    +0.001 A 
ATOM     32  C   UNL     1      -6.150 -10.926  16.178  0.00  0.00    +0.012 A 
ATOM     33  C   UNL     1      -4.608 -11.412  17.972  0.00  0.00    +0.012 A 
ATOM     34  C   UNL     1      -7.223 -11.157  17.037  0.00  0.00    +0.024 A 
ATOM     35  C   UNL     1      -5.681 -11.643  18.832  0.00  0.00    +0.024 A 
ATOM     36  C   UNL     1      -6.988 -11.516  18.365  0.00  0.00    +0.029 A 
BRANCH  36  10
ATOM     10  N   UNL     1      -8.075 -11.750  19.235  0.00  0.00    -0.336 N 
ATOM     37  C   UNL     1      -8.126 -12.956  20.035  0.00  0.00    +0.129 C 
ATOM     38  C   UNL     1      -9.159 -10.793  19.327  0.00  0.00    +0.129 C 
ENDBRANCH  36  10
ENDBRANCH  22  27
ENDBRANCH  14   7
BRANCH  13   6
ATOM      6  N   UNL     1      -4.703 -11.301   7.338  0.00  0.00    -0.182 NA
ATOM     39  H   UNL     1      -3.679 -11.372   7.377  0.00  0.00    +0.148 HD
BRANCH   6   1
ATOM      1  S   UNL     1      -5.508 -11.775   5.920  0.00  0.00    +0.059 S 
ATOM      4  O   UNL     1      -6.009 -10.600   5.233  0.00  0.00    -0.153 OA
ATOM      5  O   UNL     1      -6.402 -12.873   6.236  0.00  0.00    -0.153 OA
BRANCH   1  18
ATOM     18  C   UNL     1      -4.186 -12.447   4.957  0.00  0.00    +0.106 A 
ATOM     19  C   UNL     1      -3.134 -13.075   5.600  0.00  0.00    +0.037 A 
ATOM     20  C   UNL     1      -4.228 -12.332   3.582  0.00  0.00    +0.029 A 
ATOM     21  C   UNL     1      -2.075 -13.613   4.850  0.00  0.00    -0.016 A 
ATOM     23  C   UNL     1      -3.186 -12.861   2.820  0.00  0.00    +0.010 A 
ATOM     24  C   UNL     1      -2.101 -13.505   3.439  0.00  0.00    -0.018 A 
ATOM     28  C   UNL     1      -0.992 -14.257   5.469  0.00  0.00    +0.008 A 
ATOM     29  C   UNL     1      -1.043 -14.043   2.689  0.00  0.00    +0.008 A 
ATOM     30  C   UNL     1       0.051 -14.786   4.708  0.00  0.00    +0.001 A 
ATOM     31  C   UNL     1       0.026 -14.679   3.321  0.00  0.00    +0.001 A 
ENDBRANCH   1  18
ENDBRANCH   6   1
ENDBRANCH  13   6
TORSDOF 6
ENDMDL
MODEL 4
REMARK VINA RESULT:      -7.9      9.744     14.746
REMARK  Name = 11911856
REMARK  8 active torsions:
REMARK  status: ('A' for Active; 'I' for Inactive)
REMARK    1  A    between atoms: S_1  and  N_6
REMARK    2  A    between atoms: S_1  and  C_18
REMARK    3  A    between atoms: N_6  and  C_13
REMARK    4  A    between atoms: N_7  and  C_14
REMARK    5  A    between atoms: N_10  and  C_36
REMARK    6  A    between atoms: N_10  and  C_37
REMARK    7  A    between atoms: N_10  and  C_38
REMARK    8  A    between atoms: C_22  and  C_27
REMARK                            x       y       z     vdW  Elec       q    Type
REMARK                         _______ _______ _______ _____ _____    ______ ____
ROOT
ATOM      2  O   UNL     1      -1.506 -14.060   4.747  0.00  0.00    -0.370 OA
ATOM      3  O   UNL     1      -4.168 -14.884   3.335  0.00  0.00    -0.370 OA
ATOM     11  C   UNL     1      -3.106 -13.981   2.988  0.00  0.00    +0.170 C 
ATOM     12  C   UNL     1      -2.641 -13.318   4.270  0.00  0.00    +0.171 C 
ATOM     13  C   UNL     1      -1.898 -14.752   2.512  0.00  0.00    +0.133 C 
ATOM     14  C   UNL     1      -3.808 -13.481   5.215  0.00  0.00    +0.130 C 
ATOM     15  C   UNL     1      -1.189 -15.096   3.807  0.00  0.00    +0.183 C 
ATOM     16  C   UNL     1      -4.444 -14.774   4.738  0.00  0.00    +0.185 C 
ENDROOT
BRANCH  14   7
ATOM      7  N   UNL     1      -4.731 -12.380   5.056  0.00  0.00    -0.306 N 
ATOM      8  N   UNL     1      -4.403 -11.640   7.259  0.00  0.00    -0.214 NA
ATOM      9  N   UNL     1      -5.909 -10.483   5.777  0.00  0.00    -0.223 NA
ATOM     17  C   UNL     1      -5.023 -11.474   6.060  0.00  0.00    +0.216 A 
ATOM     22  C   UNL     1      -4.711 -10.740   8.215  0.00  0.00    +0.076 A 
ATOM     25  C   UNL     1      -6.171  -9.618   6.779  0.00  0.00    +0.116 A 
ATOM     26  C   UNL     1      -5.596  -9.698   8.030  0.00  0.00    +0.048 A 
ATOM     40  H   UNL     1      -5.158 -12.215   4.151  0.00  0.00    +0.149 HD
BRANCH  22  27
ATOM     27  C   UNL     1      -4.041 -10.935   9.478  0.00  0.00    +0.001 A 
ATOM     32  C   UNL     1      -3.440  -9.854  10.128  0.00  0.00    +0.012 A 
ATOM     33  C   UNL     1      -3.987 -12.206  10.055  0.00  0.00    +0.012 A 
ATOM     34  C   UNL     1      -2.791 -10.042  11.347  0.00  0.00    +0.024 A 
ATOM     35  C   UNL     1      -3.337 -12.395  11.275  0.00  0.00    +0.024 A 
ATOM     36  C   UNL     1      -2.740 -11.314  11.921  0.00  0.00    +0.029 A 
BRANCH  36  10
ATOM     10  N   UNL     1      -2.083 -11.504  13.155  0.00  0.00    -0.336 N 
ATOM     37  C   UNL     1      -1.946 -10.406  14.090  0.00  0.00    +0.129 C 
ATOM     38  C   UNL     1      -1.524 -12.797  13.497  0.00  0.00    +0.129 C 
ENDBRANCH  36  10
ENDBRANCH  22  27
ENDBRANCH  14   7
BRANCH  13   6
ATOM      6  N   UNL     1      -1.034 -13.868   1.691  0.00  0.00    -0.182 NA
ATOM     39  H   UNL     1      -0.961 -12.890   1.997  0.00  0.00    +0.148 HD
BRANCH   6   1
ATOM      1  S   UNL     1      -0.747 -14.247   0.061  0.00  0.00    +0.059 S 
ATOM      4  O   UNL     1      -1.066 -13.099  -0.765  0.00  0.00    -0.153 OA
ATOM      5  O   UNL     1      -1.334 -15.541  -0.228  0.00  0.00    -0.153 OA
BRANCH   1  18
ATOM     18  C   UNL     1       1.009 -14.462   0.041  0.00  0.00    +0.106 A 
ATOM     19  C   UNL     1       1.622 -15.103   1.103  0.00  0.00    +0.037 A 
ATOM     20  C   UNL     1       1.733 -13.985  -1.033  0.00  0.00    +0.029 A 
ATOM     21  C   UNL     1       3.016 -15.280   1.103  0.00  0.00    -0.016 A 
ATOM     23  C   UNL     1       3.118 -14.153  -1.051  0.00  0.00    +0.010 A 
ATOM     24  C   UNL     1       3.775 -14.799   0.010  0.00  0.00    -0.018 A 
ATOM     28  C   UNL     1       3.672 -15.926   2.164  0.00  0.00    +0.008 A 
ATOM     29  C   UNL     1       5.168 -14.976   0.010  0.00  0.00    +0.008 A 
ATOM     30  C   UNL     1       5.057 -16.094   2.147  0.00  0.00    +0.001 A 
ATOM     31  C   UNL     1       5.803 -15.620   1.072  0.00  0.00    +0.001 A 
ENDBRANCH   1  18
ENDBRANCH   6   1
ENDBRANCH  13   6
TORSDOF 6
ENDMDL
MODEL 5
REMARK VINA RESULT:      -7.9     29.691     32.225
REMARK  Name = 11911856
REMARK  8 active torsions:
REMARK  status: ('A' for Active; 'I' for Inactive)
REMARK    1  A    between atoms: S_1  and  N_6
REMARK    2  A    between atoms: S_1  and  C_18
REMARK    3  A    between atoms: N_6  and  C_13
REMARK    4  A    between atoms: N_7  and  C_14
REMARK    5  A    between atoms: N_10  and  C_36
REMARK    6  A    between atoms: N_10  and  C_37
REMARK    7  A    between atoms: N_10  and  C_38
REMARK    8  A    between atoms: C_22  and  C_27
REMARK                            x       y       z     vdW  Elec       q    Type
REMARK                         _______ _______ _______ _____ _____    ______ ____
ROOT
ATOM      2  O   UNL     1      11.755  11.232  25.429  0.00  0.00    -0.370 OA
ATOM      3  O   UNL     1      12.921  13.486  23.606  0.00  0.00    -0.370 OA
ATOM     11  C   UNL     1      13.229  12.092  23.772  0.00  0.00    +0.170 C 
ATOM     12  C   UNL     1      13.075  11.768  25.246  0.00  0.00    +0.171 C 
ATOM     13  C   UNL     1      12.183  11.241  23.095  0.00  0.00    +0.133 C 
ATOM     14  C   UNL     1      13.198  13.107  25.933  0.00  0.00    +0.130 C 
ATOM     15  C   UNL     1      11.103  11.133  24.154  0.00  0.00    +0.183 C 
ATOM     16  C   UNL     1      12.656  14.068  24.891  0.00  0.00    +0.185 C 
ENDROOT
BRANCH  14   7
ATOM      7  N   UNL     1      14.587  13.398  26.209  0.00  0.00    -0.306 N 
ATOM      8  N   UNL     1      14.365  12.865  28.483  0.00  0.00    -0.214 NA
ATOM      9  N   UNL     1      16.481  13.581  27.582  0.00  0.00    -0.223 NA
ATOM     17  C   UNL     1      15.162  13.278  27.461  0.00  0.00    +0.216 A 
ATOM     22  C   UNL     1      14.956  12.759  29.691  0.00  0.00    +0.076 A 
ATOM     25  C   UNL     1      17.008  13.453  28.817  0.00  0.00    +0.116 A 
ATOM     26  C   UNL     1      16.287  13.042  29.919  0.00  0.00    +0.048 A 
ATOM     40  H   UNL     1      15.203  13.654  25.445  0.00  0.00    +0.149 HD
BRANCH  22  27
ATOM     27  C   UNL     1      14.092  12.319  30.759  0.00  0.00    +0.001 A 
ATOM     32  C   UNL     1      14.181  11.010  31.239  0.00  0.00    +0.012 A 
ATOM     33  C   UNL     1      13.163  13.199  31.317  0.00  0.00    +0.012 A 
ATOM     34  C   UNL     1      13.345  10.584  32.270  0.00  0.00    +0.024 A 
ATOM     35  C   UNL     1      12.326  12.773  32.349  0.00  0.00    +0.024 A 
ATOM     36  C   UNL     1      12.417  11.466  32.825  0.00  0.00    +0.029 A 
BRANCH  36  10
ATOM     10  N   UNL     1      11.571  11.035  33.870  0.00  0.00    -0.336 N 
ATOM     37  C   UNL     1      11.233  11.931  34.956  0.00  0.00    +0.129 C 
ATOM     38  C   UNL     1      11.043   9.686  33.875  0.00  0.00    +0.129 C 
ENDBRANCH  36  10
ENDBRANCH  22  27
ENDBRANCH  14   7
BRANCH  13   6
ATOM      6  N   UNL     1      12.740   9.895  22.813  0.00  0.00    -0.182 NA
ATOM     39  H   UNL     1      13.751   9.782  22.953  0.00  0.00    +0.148 HD
BRANCH   6   1
ATOM      1  S   UNL     1      11.934   8.856  21.739  0.00  0.00    +0.059 S 
ATOM      4  O   UNL     1      11.213   9.642  20.755  0.00  0.00    -0.153 OA
ATOM      5  O   UNL     1      11.245   7.836  22.505  0.00  0.00    -0.153 OA
BRANCH   1  18
ATOM     18  C   UNL     1      13.284   8.062  20.918  0.00  0.00    +0.106 A 
ATOM     19  C   UNL     1      14.511   7.987  21.555  0.00  0.00    +0.037 A 
ATOM     20  C   UNL     1      13.089   7.533  19.659  0.00  0.00    +0.029 A 
ATOM     21  C   UNL     1      15.593   7.360  20.916  0.00  0.00    -0.016 A 
ATOM     23  C   UNL     1      14.153   6.905  19.009  0.00  0.00    +0.010 A 
ATOM     24  C   UNL     1      15.412   6.811  19.625  0.00  0.00    -0.018 A 
ATOM     28  C   UNL     1      16.852   7.265  21.533  0.00  0.00    +0.008 A 
ATOM     29  C   UNL     1      16.495   6.184  18.987  0.00  0.00    +0.008 A 
ATOM     30  C   UNL     1      17.916   6.639  20.884  0.00  0.00    +0.001 A 
ATOM     31  C   UNL     1      17.738   6.100  19.614  0.00  0.00    +0.001 A 
ENDBRANCH   1  18
ENDBRANCH   6   1
ENDBRANCH  13   6
TORSDOF 6
ENDMDL
MODEL 6
REMARK VINA RESULT:      -7.8      2.163      2.679
REMARK  Name = 11911856
REMARK  8 active torsions:
REMARK  status: ('A' for Active; 'I' for Inactive)
REMARK    1  A    between atoms: S_1  and  N_6
REMARK    2  A    between atoms: S_1  and  C_18
REMARK    3  A    between atoms: N_6  and  C_13
REMARK    4  A    between atoms: N_7  and  C_14
REMARK    5  A    between atoms: N_10  and  C_36
REMARK    6  A    between atoms: N_10  and  C_37
REMARK    7  A    between atoms: N_10  and  C_38
REMARK    8  A    between atoms: C_22  and  C_27
REMARK                            x       y       z     vdW  Elec       q    Type
REMARK                         _______ _______ _______ _____ _____    ______ ____
ROOT
ATOM      2  O   UNL     1      -5.645  -9.990  16.874  0.00  0.00    -0.370 OA
ATOM      3  O   UNL     1      -4.382 -11.791  19.092  0.00  0.00    -0.370 OA
ATOM     11  C   UNL     1      -4.719 -12.014  17.713  0.00  0.00    +0.170 C 
ATOM     12  C   UNL     1      -6.006 -11.262  17.436  0.00  0.00    +0.171 C 
ATOM     13  C   UNL     1      -3.703 -11.352  16.814  0.00  0.00    +0.133 C 
ATOM     14  C   UNL     1      -6.626 -11.075  18.800  0.00  0.00    +0.130 C 
ATOM     15  C   UNL     1      -4.220  -9.930  16.715  0.00  0.00    +0.183 C 
ATOM     16  C   UNL     1      -5.414 -11.010  19.711  0.00  0.00    +0.185 C 
ENDROOT
BRANCH  14   7
ATOM      7  N   UNL     1      -7.443 -12.221  19.135  0.00  0.00    -0.306 N 
ATOM      8  N   UNL     1      -9.395 -11.210  18.316  0.00  0.00    -0.214 NA
ATOM      9  N   UNL     1      -9.452 -13.427  19.258  0.00  0.00    -0.223 NA
ATOM     17  C   UNL     1      -8.803 -12.288  18.896  0.00  0.00    +0.216 A 
ATOM     22  C   UNL     1     -10.723 -11.309  18.098  0.00  0.00    +0.076 A 
ATOM     25  C   UNL     1     -10.777 -13.458  19.011  0.00  0.00    +0.116 A 
ATOM     26  C   UNL     1     -11.473 -12.419  18.427  0.00  0.00    +0.048 A 
ATOM     40  H   UNL     1      -7.003 -13.050  19.518  0.00  0.00    +0.149 HD
BRANCH  22  27
ATOM     27  C   UNL     1     -11.329 -10.154  17.481  0.00  0.00    +0.001 A 
ATOM     32  C   UNL     1     -10.654  -8.932  17.463  0.00  0.00    +0.012 A 
ATOM     33  C   UNL     1     -12.596 -10.253  16.901  0.00  0.00    +0.012 A 
ATOM     34  C   UNL     1     -11.240  -7.815  16.869  0.00  0.00    +0.024 A 
ATOM     35  C   UNL     1     -13.183  -9.136  16.307  0.00  0.00    +0.024 A 
ATOM     36  C   UNL     1     -12.506  -7.918  16.290  0.00  0.00    +0.029 A 
BRANCH  36  10
ATOM     10  N   UNL     1     -13.100  -6.788  15.688  0.00  0.00    -0.336 N 
ATOM     37  C   UNL     1     -14.538  -6.613  15.718  0.00  0.00    +0.129 C 
ATOM     38  C   UNL     1     -12.280  -5.797  15.020  0.00  0.00    +0.129 C 
ENDBRANCH  36  10
ENDBRANCH  22  27
ENDBRANCH  14   7
BRANCH  13   6
ATOM      6  N   UNL     1      -3.735 -11.987  15.474  0.00  0.00    -0.182 NA
ATOM     39  H   UNL     1      -4.461 -12.698  15.323  0.00  0.00    +0.148 HD
BRANCH   6   1
ATOM      1  S   UNL     1      -2.325 -12.036  14.529  0.00  0.00    +0.059 S 
ATOM      4  O   UNL     1      -2.088 -13.395  14.082  0.00  0.00    -0.153 OA
ATOM      5  O   UNL     1      -1.280 -11.299  15.213  0.00  0.00    -0.153 OA
BRANCH   1  18
ATOM     18  C   UNL     1      -2.796 -11.074  13.121  0.00  0.00    +0.106 A 
ATOM     19  C   UNL     1      -4.122 -10.709  12.967  0.00  0.00    +0.037 A 
ATOM     20  C   UNL     1      -1.833 -10.706  12.204  0.00  0.00    +0.029 A 
ATOM     21  C   UNL     1      -4.513  -9.947  11.853  0.00  0.00    -0.016 A 
ATOM     23  C   UNL     1      -2.203  -9.948  11.092  0.00  0.00    +0.010 A 
ATOM     24  C   UNL     1      -3.539  -9.560  10.902  0.00  0.00    -0.018 A 
ATOM     28  C   UNL     1      -5.850  -9.558  11.665  0.00  0.00    +0.008 A 
ATOM     29  C   UNL     1      -3.930  -8.797   9.790  0.00  0.00    +0.008 A 
ATOM     30  C   UNL     1      -6.220  -8.800  10.553  0.00  0.00    +0.001 A 
ATOM     31  C   UNL     1      -5.262  -8.421   9.618  0.00  0.00    +0.001 A 
ENDBRANCH   1  18
ENDBRANCH   6   1
ENDBRANCH  13   6
TORSDOF 6
ENDMDL
MODEL 7
REMARK VINA RESULT:      -7.7     27.272     30.120
REMARK  Name = 11911856
REMARK  8 active torsions:
REMARK  status: ('A' for Active; 'I' for Inactive)
REMARK    1  A    between atoms: S_1  and  N_6
REMARK    2  A    between atoms: S_1  and  C_18
REMARK    3  A    between atoms: N_6  and  C_13
REMARK    4  A    between atoms: N_7  and  C_14
REMARK    5  A    between atoms: N_10  and  C_36
REMARK    6  A    between atoms: N_10  and  C_37
REMARK    7  A    between atoms: N_10  and  C_38
REMARK    8  A    between atoms: C_22  and  C_27
REMARK                            x       y       z     vdW  Elec       q    Type
REMARK                         _______ _______ _______ _____ _____    ______ ____
ROOT
ATOM      2  O   UNL     1       8.970   3.233  -3.510  0.00  0.00    -0.370 OA
ATOM      3  O   UNL     1      10.800   5.651  -4.263  0.00  0.00    -0.370 OA
ATOM     11  C   UNL     1      10.312   5.134  -3.015  0.00  0.00    +0.170 C 
ATOM     12  C   UNL     1       8.896   4.645  -3.252  0.00  0.00    +0.171 C 
ATOM     13  C   UNL     1      11.074   3.889  -2.630  0.00  0.00    +0.133 C 
ATOM     14  C   UNL     1       8.453   5.382  -4.493  0.00  0.00    +0.130 C 
ATOM     15  C   UNL     1      10.331   2.799  -3.377  0.00  0.00    +0.183 C 
ATOM     16  C   UNL     1       9.756   5.582  -5.245  0.00  0.00    +0.185 C 
ENDROOT
BRANCH  14   7
ATOM      7  N   UNL     1       7.882   6.661  -4.132  0.00  0.00    -0.306 N 
ATOM      8  N   UNL     1       5.694   5.933  -4.566  0.00  0.00    -0.214 NA
ATOM      9  N   UNL     1       6.122   8.177  -3.799  0.00  0.00    -0.223 NA
ATOM     17  C   UNL     1       6.526   6.932  -4.166  0.00  0.00    +0.216 A 
ATOM     22  C   UNL     1       4.379   6.230  -4.588  0.00  0.00    +0.076 A 
ATOM     25  C   UNL     1       4.793   8.406  -3.845  0.00  0.00    +0.116 A 
ATOM     26  C   UNL     1       3.866   7.462  -4.235  0.00  0.00    +0.048 A 
ATOM     40  H   UNL     1       8.487   7.396  -3.782  0.00  0.00    +0.149 HD
BRANCH  22  27
ATOM     27  C   UNL     1       3.515   5.156  -5.014  0.00  0.00    +0.001 A 
ATOM     32  C   UNL     1       2.371   4.842  -4.277  0.00  0.00    +0.012 A 
ATOM     33  C   UNL     1       3.820   4.423  -6.162  0.00  0.00    +0.012 A 
ATOM     34  C   UNL     1       1.536   3.802  -4.686  0.00  0.00    +0.024 A 
ATOM     35  C   UNL     1       2.986   3.383  -6.573  0.00  0.00    +0.024 A 
ATOM     36  C   UNL     1       1.845   3.073  -5.835  0.00  0.00    +0.029 A 
BRANCH  36  10
ATOM     10  N   UNL     1       1.000   2.021  -6.250  0.00  0.00    -0.336 N 
ATOM     37  C   UNL     1       0.566   1.931  -7.629  0.00  0.00    +0.129 C 
ATOM     38  C   UNL     1       0.546   1.027  -5.299  0.00  0.00    +0.129 C 
ENDBRANCH  36  10
ENDBRANCH  22  27
ENDBRANCH  14   7
BRANCH  13   6
ATOM      6  N   UNL     1      10.953   3.662  -1.169  0.00  0.00    -0.182 NA
ATOM     39  H   UNL     1      10.002   3.531  -0.804  0.00  0.00    +0.148 HD
BRANCH   6   1
ATOM      1  S   UNL     1      12.166   4.229  -0.124  0.00  0.00    +0.059 S 
ATOM      4  O   UNL     1      12.971   5.221  -0.810  0.00  0.00    -0.153 OA
ATOM      5  O   UNL     1      12.797   3.092   0.519  0.00  0.00    -0.153 OA
BRANCH   1  18
ATOM     18  C   UNL     1      11.217   5.061   1.116  0.00  0.00    +0.106 A 
ATOM     19  C   UNL     1      11.126   4.506   2.381  0.00  0.00    +0.037 A 
ATOM     20  C   UNL     1      10.587   6.247   0.799  0.00  0.00    +0.029 A 
ATOM     21  C   UNL     1      10.375   5.153   3.376  0.00  0.00    -0.016 A 
ATOM     23  C   UNL     1       9.838   6.905   1.776  0.00  0.00    +0.010 A 
ATOM     24  C   UNL     1       9.722   6.370   3.070  0.00  0.00    -0.018 A 
ATOM     28  C   UNL     1      10.260   4.619   4.670  0.00  0.00    +0.008 A 
ATOM     29  C   UNL     1       8.972   7.018   4.065  0.00  0.00    +0.008 A 
ATOM     30  C   UNL     1       9.511   5.275   5.647  0.00  0.00    +0.001 A 
ATOM     31  C   UNL     1       8.868   6.472   5.345  0.00  0.00    +0.001 A 
ENDBRANCH   1  18
ENDBRANCH   6   1
ENDBRANCH  13   6
TORSDOF 6
ENDMDL
MODEL 8
REMARK VINA RESULT:      -7.7      5.376     12.248
REMARK  Name = 11911856
REMARK  8 active torsions:
REMARK  status: ('A' for Active; 'I' for Inactive)
REMARK    1  A    between atoms: S_1  and  N_6
REMARK    2  A    between atoms: S_1  and  C_18
REMARK    3  A    between atoms: N_6  and  C_13
REMARK    4  A    between atoms: N_7  and  C_14
REMARK    5  A    between atoms: N_10  and  C_36
REMARK    6  A    between atoms: N_10  and  C_37
REMARK    7  A    between atoms: N_10  and  C_38
REMARK    8  A    between atoms: C_22  and  C_27
REMARK                            x       y       z     vdW  Elec       q    Type
REMARK                         _______ _______ _______ _____ _____    ______ ____
ROOT
ATOM      2  O   UNL     1      -5.196 -11.928   9.763  0.00  0.00    -0.370 OA
ATOM      3  O   UNL     1      -3.689  -9.191   9.777  0.00  0.00    -0.370 OA
ATOM     11  C   UNL     1      -4.364  -9.952  10.793  0.00  0.00    +0.170 C 
ATOM     12  C   UNL     1      -5.574 -10.596  10.145  0.00  0.00    +0.171 C 
ATOM     13  C   UNL     1      -3.511 -11.120  11.224  0.00  0.00    +0.133 C 
ATOM     14  C   UNL     1      -5.830  -9.752   8.919  0.00  0.00    +0.130 C 
ATOM     15  C   UNL     1      -3.852 -12.181  10.197  0.00  0.00    +0.183 C 
ATOM     16  C   UNL     1      -4.441  -9.260   8.557  0.00  0.00    +0.185 C 
ENDROOT
BRANCH  14   7
ATOM      7  N   UNL     1      -6.685  -8.635   9.256  0.00  0.00    -0.306 N 
ATOM      8  N   UNL     1      -7.576  -8.519   7.088  0.00  0.00    -0.214 NA
ATOM      9  N   UNL     1      -8.295  -6.988   8.805  0.00  0.00    -0.223 NA
ATOM     17  C   UNL     1      -7.544  -8.029   8.357  0.00  0.00    +0.216 A 
ATOM     22  C   UNL     1      -8.424  -7.905   6.237  0.00  0.00    +0.076 A 
ATOM     25  C   UNL     1      -9.121  -6.421   7.901  0.00  0.00    +0.116 A 
ATOM     26  C   UNL     1      -9.228  -6.842   6.592  0.00  0.00    +0.048 A 
ATOM     40  H   UNL     1      -6.709  -8.297  10.211  0.00  0.00    +0.149 HD
BRANCH  22  27
ATOM     27  C   UNL     1      -8.442  -8.441   4.898  0.00  0.00    +0.001 A 
ATOM     32  C   UNL     1      -9.103  -7.754   3.876  0.00  0.00    +0.012 A 
ATOM     33  C   UNL     1      -7.802  -9.650   4.617  0.00  0.00    +0.012 A 
ATOM     34  C   UNL     1      -9.123  -8.273   2.582  0.00  0.00    +0.024 A 
ATOM     35  C   UNL     1      -7.821 -10.169   3.323  0.00  0.00    +0.024 A 
ATOM     36  C   UNL     1      -8.481  -9.481   2.306  0.00  0.00    +0.029 A 
BRANCH  36  10
ATOM     10  N   UNL     1      -8.500 -10.006   0.996  0.00  0.00    -0.336 N 
ATOM     37  C   UNL     1      -8.356 -11.430   0.775  0.00  0.00    +0.129 C 
ATOM     38  C   UNL     1      -8.650  -9.125  -0.145  0.00  0.00    +0.129 C 
ENDBRANCH  36  10
ENDBRANCH  22  27
ENDBRANCH  14   7
BRANCH  13   6
ATOM      6  N   UNL     1      -3.934 -11.576  12.571  0.00  0.00    -0.182 NA
ATOM     39  H   UNL     1      -4.947 -11.653  12.729  0.00  0.00    +0.148 HD
BRANCH   6   1
ATOM      1  S   UNL     1      -2.907 -11.345  13.903  0.00  0.00    +0.059 S 
ATOM      4  O   UNL     1      -2.089 -10.168  13.684  0.00  0.00    -0.153 OA
ATOM      5  O   UNL     1      -2.287 -12.613  14.239  0.00  0.00    -0.153 OA
BRANCH   1  18
ATOM     18  C   UNL     1      -4.059 -10.978  15.193  0.00  0.00    +0.106 A 
ATOM     19  C   UNL     1      -3.817 -11.452  16.470  0.00  0.00    +0.037 A 
ATOM     20  C   UNL     1      -5.179 -10.225  14.900  0.00  0.00    +0.029 A 
ATOM     21  C   UNL     1      -4.724 -11.170  17.505  0.00  0.00    -0.016 A 
ATOM     23  C   UNL     1      -6.090  -9.934  15.916  0.00  0.00    +0.010 A 
ATOM     24  C   UNL     1      -5.877 -10.399  17.224  0.00  0.00    -0.018 A 
ATOM     28  C   UNL     1      -4.510 -11.634  18.813  0.00  0.00    +0.008 A 
ATOM     29  C   UNL     1      -6.783 -10.116  18.260  0.00  0.00    +0.008 A 
ATOM     30  C   UNL     1      -5.420 -11.344  19.829  0.00  0.00    +0.001 A 
ATOM     31  C   UNL     1      -6.555 -10.587  19.553  0.00  0.00    +0.001 A 
ENDBRANCH   1  18
ENDBRANCH   6   1
ENDBRANCH  13   6
TORSDOF 6
ENDMDL
MODEL 9
REMARK VINA RESULT:      -7.6     28.230     31.934
REMARK  Name = 11911856
REMARK  8 active torsions:
REMARK  status: ('A' for Active; 'I' for Inactive)
REMARK    1  A    between atoms: S_1  and  N_6
REMARK    2  A    between atoms: S_1  and  C_18
REMARK    3  A    between atoms: N_6  and  C_13
REMARK    4  A    between atoms: N_7  and  C_14
REMARK    5  A    between atoms: N_10  and  C_36
REMARK    6  A    between atoms: N_10  and  C_37
REMARK    7  A    between atoms: N_10  and  C_38
REMARK    8  A    between atoms: C_22  and  C_27
REMARK                            x       y       z     vdW  Elec       q    Type
REMARK                         _______ _______ _______ _____ _____    ______ ____
ROOT
ATOM      2  O   UNL     1      13.320   7.088  20.548  0.00  0.00    -0.370 OA
ATOM      3  O   UNL     1      10.630   8.517  19.849  0.00  0.00    -0.370 OA
ATOM     11  C   UNL     1      11.995   8.734  19.455  0.00  0.00    +0.170 C 
ATOM     12  C   UNL     1      12.865   8.446  20.663  0.00  0.00    +0.171 C 
ATOM     13  C   UNL     1      12.418   7.699  18.441  0.00  0.00    +0.133 C 
ATOM     14  C   UNL     1      11.926   8.587  21.837  0.00  0.00    +0.130 C 
ATOM     15  C   UNL     1      12.850   6.535  19.311  0.00  0.00    +0.183 C 
ATOM     16  C   UNL     1      10.589   8.183  21.244  0.00  0.00    +0.185 C 
ENDROOT
BRANCH  14   7
ATOM      7  N   UNL     1      11.883   9.964  22.276  0.00  0.00    -0.306 N 
ATOM      8  N   UNL     1      14.217  10.187  22.172  0.00  0.00    -0.214 NA
ATOM      9  N   UNL     1      12.827  12.033  22.856  0.00  0.00    -0.223 NA
ATOM     17  C   UNL     1      13.008  10.752  22.439  0.00  0.00    +0.216 A 
ATOM     22  C   UNL     1      15.293  10.982  22.342  0.00  0.00    +0.076 A 
ATOM     25  C   UNL     1      13.946  12.771  23.005  0.00  0.00    +0.116 A 
ATOM     26  C   UNL     1      15.217  12.295  22.760  0.00  0.00    +0.048 A 
ATOM     40  H   UNL     1      10.985  10.411  22.426  0.00  0.00    +0.149 HD
BRANCH  22  27
ATOM     27  C   UNL     1      16.564  10.363  22.052  0.00  0.00    +0.001 A 
ATOM     32  C   UNL     1      16.614   9.039  21.609  0.00  0.00    +0.012 A 
ATOM     33  C   UNL     1      17.749  11.083  22.217  0.00  0.00    +0.012 A 
ATOM     34  C   UNL     1      17.842   8.440  21.330  0.00  0.00    +0.024 A 
ATOM     35  C   UNL     1      18.977  10.484  21.938  0.00  0.00    +0.024 A 
ATOM     36  C   UNL     1      19.024   9.163  21.495  0.00  0.00    +0.029 A 
BRANCH  36  10
ATOM     10  N   UNL     1      20.267   8.557  21.213  0.00  0.00    -0.336 N 
ATOM     37  C   UNL     1      20.347   7.131  20.967  0.00  0.00    +0.129 C 
ATOM     38  C   UNL     1      21.479   9.350  21.180  0.00  0.00    +0.129 C 
ENDBRANCH  36  10
ENDBRANCH  22  27
ENDBRANCH  14   7
BRANCH  13   6
ATOM      6  N   UNL     1      13.580   8.202  17.669  0.00  0.00    -0.182 NA
ATOM     39  H   UNL     1      14.449   8.351  18.198  0.00  0.00    +0.148 HD
BRANCH   6   1
ATOM      1  S   UNL     1      13.328   9.076  16.235  0.00  0.00    +0.059 S 
ATOM      4  O   UNL     1      11.993   9.642  16.243  0.00  0.00    -0.153 OA
ATOM      5  O   UNL     1      13.774   8.272  15.114  0.00  0.00    -0.153 OA
BRANCH   1  18
ATOM     18  C   UNL     1      14.483  10.404  16.409  0.00  0.00    +0.106 A 
ATOM     19  C   UNL     1      14.794  10.866  17.676  0.00  0.00    +0.037 A 
ATOM     20  C   UNL     1      15.053  10.953  15.278  0.00  0.00    +0.029 A 
ATOM     21  C   UNL     1      15.709  11.921  17.831  0.00  0.00    -0.016 A 
ATOM     23  C   UNL     1      15.965  12.001  15.413  0.00  0.00    +0.010 A 
ATOM     24  C   UNL     1      16.303  12.497  16.683  0.00  0.00    -0.018 A 
ATOM     28  C   UNL     1      16.048  12.416  19.101  0.00  0.00    +0.008 A 
ATOM     29  C   UNL     1      17.219  13.550  16.838  0.00  0.00    +0.008 A 
ATOM     30  C   UNL     1      16.959  13.464  19.237  0.00  0.00    +0.001 A 
ATOM     31  C   UNL     1      17.543  14.030  18.108  0.00  0.00    +0.001 A 
ENDBRANCH   1  18
ENDBRANCH   6   1
ENDBRANCH  13   6
TORSDOF 6
ENDMDL
MODEL 10
REMARK VINA RESULT:      -7.5      3.244     10.226
REMARK  Name = 11911856
REMARK  8 active torsions:
REMARK  status: ('A' for Active; 'I' for Inactive)
REMARK    1  A    between atoms: S_1  and  N_6
REMARK    2  A    between atoms: S_1  and  C_18
REMARK    3  A    between atoms: N_6  and  C_13
REMARK    4  A    between atoms: N_7  and  C_14
REMARK    5  A    between atoms: N_10  and  C_36
REMARK    6  A    between atoms: N_10  and  C_37
REMARK    7  A    between atoms: N_10  and  C_38
REMARK    8  A    between atoms: C_22  and  C_27
REMARK                            x       y       z     vdW  Elec       q    Type
REMARK                         _______ _______ _______ _____ _____    ______ ____
ROOT
ATOM      2  O   UNL     1      -6.552 -11.922  14.683  0.00  0.00    -0.370 OA
ATOM      3  O   UNL     1      -4.181 -13.666  15.733  0.00  0.00    -0.370 OA
ATOM     11  C   UNL     1      -4.689 -12.371  16.093  0.00  0.00    +0.170 C 
ATOM     12  C   UNL     1      -5.140 -11.691  14.815  0.00  0.00    +0.171 C 
ATOM     13  C   UNL     1      -5.955 -12.513  16.902  0.00  0.00    +0.133 C 
ATOM     14  C   UNL     1      -4.386 -12.417  13.725  0.00  0.00    +0.130 C 
ATOM     15  C   UNL     1      -7.023 -12.639  15.834  0.00  0.00    +0.183 C 
ATOM     16  C   UNL     1      -4.219 -13.809  14.305  0.00  0.00    +0.185 C 
ENDROOT
BRANCH  14   7
ATOM      7  N   UNL     1      -3.094 -11.800  13.521  0.00  0.00    -0.306 N 
ATOM      8  N   UNL     1      -3.828 -10.623  11.629  0.00  0.00    -0.214 NA
ATOM      9  N   UNL     1      -1.562 -10.408  12.416  0.00  0.00    -0.223 NA
ATOM     17  C   UNL     1      -2.820 -10.918  12.492  0.00  0.00    +0.216 A 
ATOM     22  C   UNL     1      -3.527  -9.760  10.637  0.00  0.00    +0.076 A 
ATOM     25  C   UNL     1      -1.329  -9.552  11.401  0.00  0.00    +0.116 A 
ATOM     26  C   UNL     1      -2.282  -9.187  10.472  0.00  0.00    +0.048 A 
ATOM     40  H   UNL     1      -2.351 -11.971  14.189  0.00  0.00    +0.149 HD
BRANCH  22  27
ATOM     27  C   UNL     1      -4.612  -9.461   9.734  0.00  0.00    +0.001 A 
ATOM     32  C   UNL     1      -4.690 -10.102   8.495  0.00  0.00    +0.012 A 
ATOM     33  C   UNL     1      -5.587  -8.529  10.093  0.00  0.00    +0.012 A 
ATOM     34  C   UNL     1      -5.737  -9.812   7.621  0.00  0.00    +0.024 A 
ATOM     35  C   UNL     1      -6.635  -8.239   9.220  0.00  0.00    +0.024 A 
ATOM     36  C   UNL     1      -6.710  -8.880   7.984  0.00  0.00    +0.029 A 
BRANCH  36  10
ATOM     10  N   UNL     1      -7.770  -8.587   7.100  0.00  0.00    -0.336 N 
ATOM     37  C   UNL     1      -9.131  -8.507   7.589  0.00  0.00    +0.129 C 
ATOM     38  C   UNL     1      -7.512  -8.376   5.690  0.00  0.00    +0.129 C 
ENDBRANCH  36  10
ENDBRANCH  22  27
ENDBRANCH  14   7
BRANCH  13   6
ATOM      6  N   UNL     1      -6.184 -11.277  17.691  0.00  0.00    -0.182 NA
ATOM     39  H   UNL     1      -5.480 -10.535  17.591  0.00  0.00    +0.148 HD
BRANCH   6   1
ATOM      1  S   UNL     1      -7.121 -11.340  19.106  0.00  0.00    +0.059 S 
ATOM      4  O   UNL     1      -6.521 -10.497  20.121  0.00  0.00    -0.153 OA
ATOM      5  O   UNL     1      -7.432 -12.727  19.398  0.00  0.00    -0.153 OA
BRANCH   1  18
ATOM     18  C   UNL     1      -8.626 -10.575  18.581  0.00  0.00    +0.106 A 
ATOM     19  C   UNL     1      -8.569  -9.496  17.715  0.00  0.00    +0.037 A 
ATOM     20  C   UNL     1      -9.829 -11.067  19.045  0.00  0.00    +0.029 A 
ATOM     21  C   UNL     1      -9.755  -8.876  17.290  0.00  0.00    -0.016 A 
ATOM     23  C   UNL     1     -11.019 -10.464  18.631  0.00  0.00    +0.010 A 
ATOM     24  C   UNL     1     -10.998  -9.367  17.754  0.00  0.00    -0.018 A 
ATOM     28  C   UNL     1      -9.735  -7.780  16.412  0.00  0.00    +0.008 A 
ATOM     29  C   UNL     1     -12.185  -8.748  17.329  0.00  0.00    +0.008 A 
ATOM     30  C   UNL     1     -10.923  -7.176  16.000  0.00  0.00    +0.001 A 
ATOM     31  C   UNL     1     -12.145  -7.659  16.457  0.00  0.00    +0.001 A 
ENDBRANCH   1  18
ENDBRANCH   6   1
ENDBRANCH  13   6
TORSDOF 6
ENDMDL
