MODEL 1
REMARK VINA RESULT:      -7.8      0.000      0.000
REMARK  Name = 45361608
REMARK  10 active torsions:
REMARK  status: ('A' for Active; 'I' for Inactive)
REMARK    1  A    between atoms: O_2  and  C_11
REMARK    2  A    between atoms: N_5  and  C_15
REMARK    3  A    between atoms: N_6  and  C_25
REMARK    4  A    between atoms: C_8  and  C_18
REMARK    5  A    between atoms: C_10  and  C_20
REMARK    6  A    between atoms: C_14  and  C_19
REMARK    7  A    between atoms: C_19  and  C_21
REMARK    8  A    between atoms: C_19  and  C_22
REMARK    9  A    between atoms: C_23  and  C_24
REMARK   10  A    between atoms: C_25  and  C_27
REMARK                            x       y       z     vdW  Elec       q    Type
REMARK                         _______ _______ _______ _____ _____    ______ ____
ROOT
ATOM      8  C   UNL     1     -15.978   7.174  22.612  0.00  0.00    -0.027 C 
ATOM      9  C   UNL     1     -14.606   6.427  22.720  0.00  0.00    +0.028 C 
ATOM     10  C   UNL     1     -13.712   6.718  21.463  0.00  0.00    +0.012 C 
ATOM     11  C   UNL     1     -14.809   4.924  23.064  0.00  0.00    +0.122 C 
ATOM     12  C   UNL     1     -16.786   6.958  23.913  0.00  0.00    +0.007 C 
ATOM     13  C   UNL     1     -15.716   8.691  22.466  0.00  0.00    +0.009 C 
ATOM     14  C   UNL     1     -15.705   4.713  24.306  0.00  0.00    +0.029 C 
ATOM     15  C   UNL     1     -13.517   8.250  21.282  0.00  0.00    +0.076 C 
ATOM     16  C   UNL     1     -17.019   5.488  24.231  0.00  0.00    +0.007 C 
ATOM     17  C   UNL     1     -14.830   9.033  21.276  0.00  0.00    +0.023 C 
ATOM     18  C   UNL     1     -16.827   6.685  21.411  0.00  0.00    +0.011 C 
ATOM     20  C   UNL     1     -12.333   6.037  21.517  0.00  0.00    +0.010 C 
ENDROOT
BRANCH  15   5
ATOM      4  O   UNL     1     -11.593  10.351  20.918  0.00  0.00    -0.269 OA
ATOM      5  N   UNL     1     -12.793   8.559  20.066  0.00  0.00    -0.307 N 
ATOM     23  C   UNL     1     -11.882   9.598  19.992  0.00  0.00    +0.263 C 
ATOM     36  H   UNL     1     -13.009   8.027  19.227  0.00  0.00    +0.149 HD
BRANCH  23  24
ATOM      7  N   UNL     1     -11.094   8.692  17.910  0.00  0.00    -0.250 NA
ATOM     24  C   UNL     1     -11.243   9.802  18.665  0.00  0.00    +0.125 A 
ATOM     26  C   UNL     1     -10.845  11.069  18.271  0.00  0.00    +0.033 A 
ATOM     28  C   UNL     1     -10.253  11.205  17.020  0.00  0.00    +0.004 A 
ATOM     29  C   UNL     1     -10.514   8.862  16.700  0.00  0.00    +0.111 A 
ATOM     32  C   UNL     1     -10.082  10.085  16.213  0.00  0.00    +0.020 A 
ENDBRANCH  23  24
ENDBRANCH  15   5
BRANCH  11   2
ATOM      2  O   UNL     1     -13.545   4.329  23.365  0.00  0.00    -0.391 OA
ATOM     37  H   UNL     1     -12.872   5.032  23.359  0.00  0.00    +0.210 HD
ENDBRANCH  11   2
BRANCH  14  19
ATOM     19  C   UNL     1     -15.998   3.227  24.551  0.00  0.00    +0.077 C 
ATOM     21  C   UNL     1     -16.881   2.676  23.438  0.00  0.00    +0.017 C 
BRANCH  19  22
ATOM      3  O   UNL     1     -17.702   2.432  26.078  0.00  0.00    -0.276 OA
ATOM      6  N   UNL     1     -15.922   3.644  26.937  0.00  0.00    -0.311 N 
ATOM     22  C   UNL     1     -16.649   3.045  25.918  0.00  0.00    +0.216 C 
ATOM     38  H   UNL     1     -15.040   4.102  26.725  0.00  0.00    +0.149 HD
BRANCH   6  25
ATOM     25  C   UNL     1     -16.338   3.608  28.320  0.00  0.00    +0.139 C 
BRANCH  25  27
ATOM      1  F   UNL     1     -13.825  -0.547  31.170  0.00  0.00    -0.205 F 
ATOM     27  C   UNL     1     -15.668   2.500  29.080  0.00  0.00    -0.030 A 
ATOM     30  C   UNL     1     -16.259   1.237  29.137  0.00  0.00    +0.008 A 
ATOM     31  C   UNL     1     -14.456   2.733  29.729  0.00  0.00    +0.008 A 
ATOM     33  C   UNL     1     -15.636   0.208  29.843  0.00  0.00    +0.038 A 
ATOM     34  C   UNL     1     -13.834   1.705  30.435  0.00  0.00    +0.038 A 
ATOM     35  C   UNL     1     -14.424   0.442  30.491  0.00  0.00    +0.123 A 
ENDBRANCH  25  27
ENDBRANCH   6  25
ENDBRANCH  19  22
ENDBRANCH  14  19
TORSDOF 7
ENDMDL
MODEL 2
REMARK VINA RESULT:      -7.7      1.614      2.228
REMARK  Name = 45361608
REMARK  10 active torsions:
REMARK  status: ('A' for Active; 'I' for Inactive)
REMARK    1  A    between atoms: O_2  and  C_11
REMARK    2  A    between atoms: N_5  and  C_15
REMARK    3  A    between atoms: N_6  and  C_25
REMARK    4  A    between atoms: C_8  and  C_18
REMARK    5  A    between atoms: C_10  and  C_20
REMARK    6  A    between atoms: C_14  and  C_19
REMARK    7  A    between atoms: C_19  and  C_21
REMARK    8  A    between atoms: C_19  and  C_22
REMARK    9  A    between atoms: C_23  and  C_24
REMARK   10  A    between atoms: C_25  and  C_27
REMARK                            x       y       z     vdW  Elec       q    Type
REMARK                         _______ _______ _______ _____ _____    ______ ____
ROOT
ATOM      8  C   UNL     1     -17.350   5.664  22.323  0.00  0.00    -0.027 C 
ATOM      9  C   UNL     1     -15.998   5.144  22.916  0.00  0.00    +0.028 C 
ATOM     10  C   UNL     1     -14.801   5.482  21.956  0.00  0.00    +0.012 C 
ATOM     11  C   UNL     1     -16.108   3.654  23.350  0.00  0.00    +0.122 C 
ATOM     12  C   UNL     1     -18.488   5.417  23.340  0.00  0.00    +0.007 C 
ATOM     13  C   UNL     1     -17.247   7.189  22.092  0.00  0.00    +0.009 C 
ATOM     14  C   UNL     1     -17.311   3.395  24.286  0.00  0.00    +0.029 C 
ATOM     15  C   UNL     1     -14.752   7.009  21.671  0.00  0.00    +0.076 C 
ATOM     16  C   UNL     1     -18.624   3.953  23.738  0.00  0.00    +0.007 C 
ATOM     17  C   UNL     1     -16.086   7.580  21.189  0.00  0.00    +0.023 C 
ATOM     18  C   UNL     1     -17.718   4.969  20.987  0.00  0.00    +0.011 C 
ATOM     20  C   UNL     1     -13.433   5.024  22.493  0.00  0.00    +0.010 C 
ENDROOT
BRANCH  15   5
ATOM      4  O   UNL     1     -12.784   9.088  21.892  0.00  0.00    -0.269 OA
ATOM      5  N   UNL     1     -13.733   7.341  20.698  0.00  0.00    -0.307 N 
ATOM     23  C   UNL     1     -12.825   8.367  20.899  0.00  0.00    +0.263 C 
ATOM     36  H   UNL     1     -13.725   6.837  19.816  0.00  0.00    +0.149 HD
BRANCH  23  24
ATOM      7  N   UNL     1     -11.144   9.741  19.870  0.00  0.00    -0.250 NA
ATOM     24  C   UNL     1     -11.859   8.598  19.794  0.00  0.00    +0.125 A 
ATOM     26  C   UNL     1     -11.733   7.670  18.772  0.00  0.00    +0.033 A 
ATOM     28  C   UNL     1     -10.814   7.934  17.763  0.00  0.00    +0.004 A 
ATOM     29  C   UNL     1     -10.260   9.965  18.871  0.00  0.00    +0.111 A 
ATOM     32  C   UNL     1     -10.058   9.102  17.806  0.00  0.00    +0.020 A 
ENDBRANCH  23  24
ENDBRANCH  15   5
BRANCH  11   2
ATOM      2  O   UNL     1     -14.936   3.282  24.078  0.00  0.00    -0.391 OA
ATOM     37  H   UNL     1     -14.568   2.481  23.666  0.00  0.00    +0.210 HD
ENDBRANCH  11   2
BRANCH  14  19
ATOM     19  C   UNL     1     -17.479   1.902  24.597  0.00  0.00    +0.077 C 
ATOM     21  C   UNL     1     -18.540   1.293  23.689  0.00  0.00    +0.017 C 
BRANCH  19  22
ATOM      3  O   UNL     1     -18.914   2.056  26.542  0.00  0.00    -0.276 OA
ATOM      6  N   UNL     1     -16.804   1.130  26.793  0.00  0.00    -0.311 N 
ATOM     22  C   UNL     1     -17.832   1.716  26.069  0.00  0.00    +0.216 C 
ATOM     38  H   UNL     1     -15.952   0.845  26.318  0.00  0.00    +0.149 HD
BRANCH   6  25
ATOM     25  C   UNL     1     -16.902   0.853  28.208  0.00  0.00    +0.139 C 
BRANCH  25  27
ATOM      1  F   UNL     1     -12.761   3.308  31.127  0.00  0.00    -0.205 F 
ATOM     27  C   UNL     1     -15.799   1.507  28.986  0.00  0.00    -0.030 A 
ATOM     30  C   UNL     1     -15.733   2.899  29.069  0.00  0.00    +0.008 A 
ATOM     31  C   UNL     1     -14.837   0.725  29.627  0.00  0.00    +0.008 A 
ATOM     33  C   UNL     1     -14.707   3.506  29.792  0.00  0.00    +0.038 A 
ATOM     34  C   UNL     1     -13.812   1.333  30.349  0.00  0.00    +0.038 A 
ATOM     35  C   UNL     1     -13.747   2.724  30.432  0.00  0.00    +0.123 A 
ENDBRANCH  25  27
ENDBRANCH   6  25
ENDBRANCH  19  22
ENDBRANCH  14  19
TORSDOF 7
ENDMDL
MODEL 3
REMARK VINA RESULT:      -7.4     19.020     22.298
REMARK  Name = 45361608
REMARK  10 active torsions:
REMARK  status: ('A' for Active; 'I' for Inactive)
REMARK    1  A    between atoms: O_2  and  C_11
REMARK    2  A    between atoms: N_5  and  C_15
REMARK    3  A    between atoms: N_6  and  C_25
REMARK    4  A    between atoms: C_8  and  C_18
REMARK    5  A    between atoms: C_10  and  C_20
REMARK    6  A    between atoms: C_14  and  C_19
REMARK    7  A    between atoms: C_19  and  C_21
REMARK    8  A    between atoms: C_19  and  C_22
REMARK    9  A    between atoms: C_23  and  C_24
REMARK   10  A    between atoms: C_25  and  C_27
REMARK                            x       y       z     vdW  Elec       q    Type
REMARK                         _______ _______ _______ _____ _____    ______ ____
ROOT
ATOM      8  C   UNL     1      -4.771 -11.051  16.891  0.00  0.00    -0.027 C 
ATOM      9  C   UNL     1      -5.535 -10.418  15.680  0.00  0.00    +0.028 C 
ATOM     10  C   UNL     1      -7.089 -10.509  15.891  0.00  0.00    +0.012 C 
ATOM     11  C   UNL     1      -5.010 -10.978  14.327  0.00  0.00    +0.122 C 
ATOM     12  C   UNL     1      -3.250 -10.844  16.706  0.00  0.00    +0.007 C 
ATOM     13  C   UNL     1      -5.191 -10.322  18.189  0.00  0.00    +0.009 C 
ATOM     14  C   UNL     1      -3.474 -10.863  14.193  0.00  0.00    +0.029 C 
ATOM     15  C   UNL     1      -7.491  -9.839  17.236  0.00  0.00    +0.076 C 
ATOM     16  C   UNL     1      -2.726 -11.426  15.400  0.00  0.00    +0.007 C 
ATOM     17  C   UNL     1      -6.693 -10.354  18.433  0.00  0.00    +0.023 C 
ATOM     18  C   UNL     1      -5.053 -12.567  17.044  0.00  0.00    +0.011 C 
ATOM     20  C   UNL     1      -7.904  -9.878  14.749  0.00  0.00    +0.010 C 
ENDROOT
BRANCH  15   5
ATOM      4  O   UNL     1      -9.471  -7.764  17.368  0.00  0.00    -0.269 OA
ATOM      5  N   UNL     1      -8.901 -10.007  17.518  0.00  0.00    -0.307 N 
ATOM     23  C   UNL     1      -9.780  -8.938  17.559  0.00  0.00    +0.263 C 
ATOM     36  H   UNL     1      -9.240 -10.937  17.748  0.00  0.00    +0.149 HD
BRANCH  23  24
ATOM      7  N   UNL     1     -12.097  -8.998  16.926  0.00  0.00    -0.250 NA
ATOM     24  C   UNL     1     -11.189  -9.274  17.888  0.00  0.00    +0.125 A 
ATOM     26  C   UNL     1     -11.504  -9.834  19.116  0.00  0.00    +0.033 A 
ATOM     28  C   UNL     1     -12.838 -10.130  19.373  0.00  0.00    +0.004 A 
ATOM     29  C   UNL     1     -13.384  -9.299  17.212  0.00  0.00    +0.111 A 
ATOM     32  C   UNL     1     -13.803  -9.861  18.408  0.00  0.00    +0.020 A 
ENDBRANCH  23  24
ENDBRANCH  15   5
BRANCH  11   2
ATOM      2  O   UNL     1      -5.572 -10.227  13.250  0.00  0.00    -0.391 OA
ATOM     37  H   UNL     1      -6.476  -9.970  13.501  0.00  0.00    +0.210 HD
ENDBRANCH  11   2
BRANCH  14  19
ATOM     19  C   UNL     1      -2.962 -11.536  12.912  0.00  0.00    +0.077 C 
ATOM     21  C   UNL     1      -1.780 -12.443  13.233  0.00  0.00    +0.017 C 
BRANCH  19  22
ATOM      3  O   UNL     1      -1.482  -9.941  11.851  0.00  0.00    -0.276 OA
ATOM      6  N   UNL     1      -3.626 -10.195  11.006  0.00  0.00    -0.311 N 
ATOM     22  C   UNL     1      -2.588 -10.476  11.882  0.00  0.00    +0.216 C 
ATOM     38  H   UNL     1      -4.499 -10.709  11.078  0.00  0.00    +0.149 HD
BRANCH   6  25
ATOM     25  C   UNL     1      -3.510  -9.223   9.943  0.00  0.00    +0.139 C 
BRANCH  25  27
ATOM      1  F   UNL     1      -8.296  -8.718   7.021  0.00  0.00    -0.205 F 
ATOM     27  C   UNL     1      -4.786  -9.089   9.164  0.00  0.00    -0.030 A 
ATOM     30  C   UNL     1      -4.957  -9.802   7.976  0.00  0.00    +0.008 A 
ATOM     31  C   UNL     1      -5.801  -8.251   9.626  0.00  0.00    +0.008 A 
ATOM     33  C   UNL     1      -6.143  -9.676   7.253  0.00  0.00    +0.038 A 
ATOM     34  C   UNL     1      -6.986  -8.126   8.903  0.00  0.00    +0.038 A 
ATOM     35  C   UNL     1      -7.157  -8.839   7.716  0.00  0.00    +0.123 A 
ENDBRANCH  25  27
ENDBRANCH   6  25
ENDBRANCH  19  22
ENDBRANCH  14  19
TORSDOF 7
ENDMDL
MODEL 4
REMARK VINA RESULT:      -7.4      4.277     11.541
REMARK  Name = 45361608
REMARK  10 active torsions:
REMARK  status: ('A' for Active; 'I' for Inactive)
REMARK    1  A    between atoms: O_2  and  C_11
REMARK    2  A    between atoms: N_5  and  C_15
REMARK    3  A    between atoms: N_6  and  C_25
REMARK    4  A    between atoms: C_8  and  C_18
REMARK    5  A    between atoms: C_10  and  C_20
REMARK    6  A    between atoms: C_14  and  C_19
REMARK    7  A    between atoms: C_19  and  C_21
REMARK    8  A    between atoms: C_19  and  C_22
REMARK    9  A    between atoms: C_23  and  C_24
REMARK   10  A    between atoms: C_25  and  C_27
REMARK                            x       y       z     vdW  Elec       q    Type
REMARK                         _______ _______ _______ _____ _____    ______ ____
ROOT
ATOM      8  C   UNL     1     -14.959   7.569  20.589  0.00  0.00    -0.027 C 
ATOM      9  C   UNL     1     -13.737   6.635  20.879  0.00  0.00    +0.028 C 
ATOM     10  C   UNL     1     -13.927   5.876  22.241  0.00  0.00    +0.012 C 
ATOM     11  C   UNL     1     -12.392   7.399  20.721  0.00  0.00    +0.122 C 
ATOM     12  C   UNL     1     -14.794   8.213  19.192  0.00  0.00    +0.007 C 
ATOM     13  C   UNL     1     -16.250   6.720  20.567  0.00  0.00    +0.009 C 
ATOM     14  C   UNL     1     -12.278   8.127  19.362  0.00  0.00    +0.029 C 
ATOM     15  C   UNL     1     -15.265   5.084  22.237  0.00  0.00    +0.076 C 
ATOM     16  C   UNL     1     -13.496   8.995  19.047  0.00  0.00    +0.007 C 
ATOM     17  C   UNL     1     -16.474   5.939  21.854  0.00  0.00    +0.023 C 
ATOM     18  C   UNL     1     -15.107   8.697  21.642  0.00  0.00    +0.011 C 
ATOM     20  C   UNL     1     -12.773   4.914  22.577  0.00  0.00    +0.010 C 
ENDROOT
BRANCH  15   5
ATOM      4  O   UNL     1     -16.502   2.533  22.690  0.00  0.00    -0.269 OA
ATOM      5  N   UNL     1     -15.528   4.467  23.520  0.00  0.00    -0.307 N 
ATOM     23  C   UNL     1     -16.132   3.227  23.634  0.00  0.00    +0.263 C 
ATOM     36  H   UNL     1     -15.311   4.992  24.362  0.00  0.00    +0.149 HD
BRANCH  23  24
ATOM      7  N   UNL     1     -16.548   1.413  25.154  0.00  0.00    -0.250 NA
ATOM     24  C   UNL     1     -16.356   2.744  25.021  0.00  0.00    +0.125 A 
ATOM     26  C   UNL     1     -16.356   3.638  26.079  0.00  0.00    +0.033 A 
ATOM     28  C   UNL     1     -16.570   3.134  27.358  0.00  0.00    +0.004 A 
ATOM     29  C   UNL     1     -16.753   0.959  26.412  0.00  0.00    +0.111 A 
ATOM     32  C   UNL     1     -16.772   1.769  27.536  0.00  0.00    +0.020 A 
ENDBRANCH  23  24
ENDBRANCH  15   5
BRANCH  11   2
ATOM      2  O   UNL     1     -11.307   6.472  20.780  0.00  0.00    -0.391 OA
ATOM     37  H   UNL     1     -10.560   6.909  21.225  0.00  0.00    +0.210 HD
ENDBRANCH  11   2
BRANCH  14  19
ATOM     19  C   UNL     1     -11.005   8.979  19.277  0.00  0.00    +0.077 C 
ATOM     21  C   UNL     1     -11.213  10.306  19.997  0.00  0.00    +0.017 C 
BRANCH  19  22
ATOM      3  O   UNL     1     -10.149  10.249  17.401  0.00  0.00    -0.276 OA
ATOM      6  N   UNL     1     -10.861   8.073  17.035  0.00  0.00    -0.311 N 
ATOM     22  C   UNL     1     -10.620   9.192  17.817  0.00  0.00    +0.216 C 
ATOM     38  H   UNL     1     -11.219   7.225  17.464  0.00  0.00    +0.149 HD
BRANCH   6  25
ATOM     25  C   UNL     1     -10.577   8.033  15.618  0.00  0.00    +0.139 C 
BRANCH  25  27
ATOM      1  F   UNL     1     -15.064   9.461  12.532  0.00  0.00    -0.205 F 
ATOM     27  C   UNL     1     -11.773   8.413  14.795  0.00  0.00    -0.030 A 
ATOM     30  C   UNL     1     -11.611   8.797  13.464  0.00  0.00    +0.008 A 
ATOM     31  C   UNL     1     -13.048   8.384  15.362  0.00  0.00    +0.008 A 
ATOM     33  C   UNL     1     -12.723   9.151  12.699  0.00  0.00    +0.038 A 
ATOM     34  C   UNL     1     -14.159   8.738  14.598  0.00  0.00    +0.038 A 
ATOM     35  C   UNL     1     -13.996   9.121  13.266  0.00  0.00    +0.123 A 
ENDBRANCH  25  27
ENDBRANCH   6  25
ENDBRANCH  19  22
ENDBRANCH  14  19
TORSDOF 7
ENDMDL
MODEL 5
REMARK VINA RESULT:      -7.2     19.876     21.657
REMARK  Name = 45361608
REMARK  10 active torsions:
REMARK  status: ('A' for Active; 'I' for Inactive)
REMARK    1  A    between atoms: O_2  and  C_11
REMARK    2  A    between atoms: N_5  and  C_15
REMARK    3  A    between atoms: N_6  and  C_25
REMARK    4  A    between atoms: C_8  and  C_18
REMARK    5  A    between atoms: C_10  and  C_20
REMARK    6  A    between atoms: C_14  and  C_19
REMARK    7  A    between atoms: C_19  and  C_21
REMARK    8  A    between atoms: C_19  and  C_22
REMARK    9  A    between atoms: C_23  and  C_24
REMARK   10  A    between atoms: C_25  and  C_27
REMARK                            x       y       z     vdW  Elec       q    Type
REMARK                         _______ _______ _______ _____ _____    ______ ____
ROOT
ATOM      8  C   UNL     1      -3.331 -11.699  11.842  0.00  0.00    -0.027 C 
ATOM      9  C   UNL     1      -4.617 -10.990  12.381  0.00  0.00    +0.028 C 
ATOM     10  C   UNL     1      -5.257 -10.077  11.275  0.00  0.00    +0.012 C 
ATOM     11  C   UNL     1      -4.349 -10.296  13.748  0.00  0.00    +0.122 C 
ATOM     12  C   UNL     1      -2.791 -12.674  12.915  0.00  0.00    +0.007 C 
ATOM     13  C   UNL     1      -3.699 -12.531  10.592  0.00  0.00    +0.009 C 
ATOM     14  C   UNL     1      -3.713 -11.251  14.784  0.00  0.00    +0.029 C 
ATOM     15  C   UNL     1      -5.555 -10.908   9.995  0.00  0.00    +0.076 C 
ATOM     16  C   UNL     1      -2.490 -11.990  14.242  0.00  0.00    +0.007 C 
ATOM     17  C   UNL     1      -4.349 -11.702   9.493  0.00  0.00    +0.023 C 
ATOM     18  C   UNL     1      -2.209 -10.695  11.474  0.00  0.00    +0.011 C 
ATOM     20  C   UNL     1      -6.546  -9.369  11.729  0.00  0.00    +0.010 C 
ENDROOT
BRANCH  15   5
ATOM      4  O   UNL     1      -7.962 -11.291   8.478  0.00  0.00    -0.269 OA
ATOM      5  N   UNL     1      -6.037 -10.075   8.914  0.00  0.00    -0.307 N 
ATOM     23  C   UNL     1      -7.217 -10.344   8.242  0.00  0.00    +0.263 C 
ATOM     36  H   UNL     1      -5.457  -9.299   8.606  0.00  0.00    +0.149 HD
BRANCH  23  24
ATOM      7  N   UNL     1      -8.690  -8.689   7.312  0.00  0.00    -0.250 NA
ATOM     24  C   UNL     1      -7.559  -9.409   7.139  0.00  0.00    +0.125 A 
ATOM     26  C   UNL     1      -6.740  -9.313   6.026  0.00  0.00    +0.033 A 
ATOM     28  C   UNL     1      -7.106  -8.422   5.023  0.00  0.00    +0.004 A 
ATOM     29  C   UNL     1      -9.014  -7.833   6.316  0.00  0.00    +0.111 A 
ATOM     32  C   UNL     1      -8.263  -7.663   5.164  0.00  0.00    +0.020 A 
ENDBRANCH  23  24
ENDBRANCH  15   5
BRANCH  11   2
ATOM      2  O   UNL     1      -5.585  -9.850  14.308  0.00  0.00    -0.391 OA
ATOM     37  H   UNL     1      -5.629 -10.162  15.228  0.00  0.00    +0.210 HD
ENDBRANCH  11   2
BRANCH  14  19
ATOM     19  C   UNL     1      -3.336 -10.518  16.078  0.00  0.00    +0.077 C 
ATOM     21  C   UNL     1      -1.845 -10.672  16.354  0.00  0.00    +0.017 C 
BRANCH  19  22
ATOM      3  O   UNL     1      -3.706 -11.750  18.130  0.00  0.00    -0.276 OA
ATOM      6  N   UNL     1      -5.501 -10.648  17.160  0.00  0.00    -0.311 N 
ATOM     22  C   UNL     1      -4.175 -11.047  17.237  0.00  0.00    +0.216 C 
ATOM     38  H   UNL     1      -5.800 -10.036  16.406  0.00  0.00    +0.149 HD
BRANCH   6  25
ATOM     25  C   UNL     1      -6.489 -11.025  18.144  0.00  0.00    +0.139 C 
BRANCH  25  27
ATOM      1  F   UNL     1     -11.318  -8.211  17.465  0.00  0.00    -0.205 F 
ATOM     27  C   UNL     1      -7.776 -10.275  17.963  0.00  0.00    -0.030 A 
ATOM     30  C   UNL     1      -8.921 -10.676  18.654  0.00  0.00    +0.008 A 
ATOM     31  C   UNL     1      -7.830  -9.177  17.104  0.00  0.00    +0.008 A 
ATOM     33  C   UNL     1     -10.117  -9.979  18.485  0.00  0.00    +0.038 A 
ATOM     34  C   UNL     1      -9.025  -8.480  16.936  0.00  0.00    +0.038 A 
ATOM     35  C   UNL     1     -10.169  -8.881  17.627  0.00  0.00    +0.123 A 
ENDBRANCH  25  27
ENDBRANCH   6  25
ENDBRANCH  19  22
ENDBRANCH  14  19
TORSDOF 7
ENDMDL
MODEL 6
REMARK VINA RESULT:      -6.9     20.250     21.955
REMARK  Name = 45361608
REMARK  10 active torsions:
REMARK  status: ('A' for Active; 'I' for Inactive)
REMARK    1  A    between atoms: O_2  and  C_11
REMARK    2  A    between atoms: N_5  and  C_15
REMARK    3  A    between atoms: N_6  and  C_25
REMARK    4  A    between atoms: C_8  and  C_18
REMARK    5  A    between atoms: C_10  and  C_20
REMARK    6  A    between atoms: C_14  and  C_19
REMARK    7  A    between atoms: C_19  and  C_21
REMARK    8  A    between atoms: C_19  and  C_22
REMARK    9  A    between atoms: C_23  and  C_24
REMARK   10  A    between atoms: C_25  and  C_27
REMARK                            x       y       z     vdW  Elec       q    Type
REMARK                         _______ _______ _______ _____ _____    ______ ____
ROOT
ATOM      8  C   UNL     1      -6.880 -10.476  11.312  0.00  0.00    -0.027 C 
ATOM      9  C   UNL     1      -5.655  -9.815  10.597  0.00  0.00    +0.028 C 
ATOM     10  C   UNL     1      -5.939  -9.623   9.064  0.00  0.00    +0.012 C 
ATOM     11  C   UNL     1      -4.332 -10.557  10.944  0.00  0.00    +0.122 C 
ATOM     12  C   UNL     1      -6.613 -10.547  12.833  0.00  0.00    +0.007 C 
ATOM     13  C   UNL     1      -8.129  -9.591  11.093  0.00  0.00    +0.009 C 
ATOM     14  C   UNL     1      -4.122 -10.716  12.468  0.00  0.00    +0.029 C 
ATOM     15  C   UNL     1      -7.238  -8.795   8.856  0.00  0.00    +0.076 C 
ATOM     16  C   UNL     1      -5.339 -11.306  13.179  0.00  0.00    +0.007 C 
ATOM     17  C   UNL     1      -8.440  -9.347   9.624  0.00  0.00    +0.023 C 
ATOM     18  C   UNL     1      -7.172 -11.906  10.791  0.00  0.00    +0.011 C 
ATOM     20  C   UNL     1      -4.784  -8.950   8.303  0.00  0.00    +0.010 C 
ENDROOT
BRANCH  15   5
ATOM      4  O   UNL     1      -8.259  -6.477   7.504  0.00  0.00    -0.269 OA
ATOM      5  N   UNL     1      -7.594  -8.697   7.456  0.00  0.00    -0.307 N 
ATOM     23  C   UNL     1      -8.080  -7.529   6.896  0.00  0.00    +0.263 C 
ATOM     36  H   UNL     1      -7.536  -9.535   6.884  0.00  0.00    +0.149 HD
BRANCH  23  24
ATOM      7  N   UNL     1      -9.616  -7.068   5.107  0.00  0.00    -0.250 NA
ATOM     24  C   UNL     1      -8.423  -7.600   5.452  0.00  0.00    +0.125 A 
ATOM     26  C   UNL     1      -7.543  -8.182   4.554  0.00  0.00    +0.033 A 
ATOM     28  C   UNL     1      -7.913  -8.223   3.214  0.00  0.00    +0.004 A 
ATOM     29  C   UNL     1      -9.942  -7.126   3.795  0.00  0.00    +0.111 A 
ATOM     32  C   UNL     1      -9.134  -7.686   2.819  0.00  0.00    +0.020 A 
ENDBRANCH  23  24
ENDBRANCH  15   5
BRANCH  11   2
ATOM      2  O   UNL     1      -3.221  -9.805  10.455  0.00  0.00    -0.391 OA
ATOM     37  H   UNL     1      -3.566  -9.071   9.917  0.00  0.00    +0.210 HD
ENDBRANCH  11   2
BRANCH  14  19
ATOM     19  C   UNL     1      -2.882 -11.562  12.786  0.00  0.00    +0.077 C 
ATOM     21  C   UNL     1      -2.921 -12.867  12.001  0.00  0.00    +0.017 C 
BRANCH  19  22
ATOM      3  O   UNL     1      -2.704 -12.946  14.765  0.00  0.00    -0.276 OA
ATOM      6  N   UNL     1      -2.849 -10.647  15.030  0.00  0.00    -0.311 N 
ATOM     22  C   UNL     1      -2.801 -11.818  14.287  0.00  0.00    +0.216 C 
ATOM     38  H   UNL     1      -2.894  -9.751  14.555  0.00  0.00    +0.149 HD
BRANCH   6  25
ATOM     25  C   UNL     1      -2.790 -10.635  16.474  0.00  0.00    +0.139 C 
BRANCH  25  27
ATOM      1  F   UNL     1      -7.919 -10.478  18.791  0.00  0.00    -0.205 F 
ATOM     27  C   UNL     1      -4.157 -10.593  17.092  0.00  0.00    -0.030 A 
ATOM     30  C   UNL     1      -4.402 -11.264  18.290  0.00  0.00    +0.008 A 
ATOM     31  C   UNL     1      -5.183  -9.883  16.468  0.00  0.00    +0.008 A 
ATOM     33  C   UNL     1      -5.673 -11.225  18.864  0.00  0.00    +0.038 A 
ATOM     34  C   UNL     1      -6.454  -9.844  17.041  0.00  0.00    +0.038 A 
ATOM     35  C   UNL     1      -6.698 -10.515  18.240  0.00  0.00    +0.123 A 
ENDBRANCH  25  27
ENDBRANCH   6  25
ENDBRANCH  19  22
ENDBRANCH  14  19
TORSDOF 7
ENDMDL
MODEL 7
REMARK VINA RESULT:      -6.9     18.661     21.036
REMARK  Name = 45361608
REMARK  10 active torsions:
REMARK  status: ('A' for Active; 'I' for Inactive)
REMARK    1  A    between atoms: O_2  and  C_11
REMARK    2  A    between atoms: N_5  and  C_15
REMARK    3  A    between atoms: N_6  and  C_25
REMARK    4  A    between atoms: C_8  and  C_18
REMARK    5  A    between atoms: C_10  and  C_20
REMARK    6  A    between atoms: C_14  and  C_19
REMARK    7  A    between atoms: C_19  and  C_21
REMARK    8  A    between atoms: C_19  and  C_22
REMARK    9  A    between atoms: C_23  and  C_24
REMARK   10  A    between atoms: C_25  and  C_27
REMARK                            x       y       z     vdW  Elec       q    Type
REMARK                         _______ _______ _______ _____ _____    ______ ____
ROOT
ATOM      8  C   UNL     1     -10.295  -8.851   9.297  0.00  0.00    -0.027 C 
ATOM      9  C   UNL     1      -9.488  -7.528   9.078  0.00  0.00    +0.028 C 
ATOM     10  C   UNL     1     -10.456  -6.327   8.781  0.00  0.00    +0.012 C 
ATOM     11  C   UNL     1      -8.339  -7.731   8.050  0.00  0.00    +0.122 C 
ATOM     12  C   UNL     1      -9.323  -9.986   9.698  0.00  0.00    +0.007 C 
ATOM     13  C   UNL     1     -11.290  -8.649  10.462  0.00  0.00    +0.009 C 
ATOM     14  C   UNL     1      -7.432  -8.933   8.402  0.00  0.00    +0.029 C 
ATOM     15  C   UNL     1     -11.500  -6.180   9.924  0.00  0.00    +0.076 C 
ATOM     16  C   UNL     1      -8.220 -10.214   8.674  0.00  0.00    +0.007 C 
ATOM     17  C   UNL     1     -12.239  -7.480  10.242  0.00  0.00    +0.023 C 
ATOM     18  C   UNL     1     -11.074  -9.288   8.030  0.00  0.00    +0.011 C 
ATOM     20  C   UNL     1      -9.730  -4.984   8.584  0.00  0.00    +0.010 C 
ENDROOT
BRANCH  15   5
ATOM      4  O   UNL     1     -12.617  -4.287  11.772  0.00  0.00    -0.269 OA
ATOM      5  N   UNL     1     -12.480  -5.156   9.627  0.00  0.00    -0.307 N 
ATOM     23  C   UNL     1     -12.958  -4.287  10.592  0.00  0.00    +0.263 C 
ATOM     36  H   UNL     1     -12.868  -5.117   8.688  0.00  0.00    +0.149 HD
BRANCH  23  24
ATOM      7  N   UNL     1     -13.909  -2.958   8.830  0.00  0.00    -0.250 NA
ATOM     24  C   UNL     1     -13.981  -3.312  10.132  0.00  0.00    +0.125 A 
ATOM     26  C   UNL     1     -14.929  -2.826  11.018  0.00  0.00    +0.033 A 
ATOM     28  C   UNL     1     -15.863  -1.915  10.537  0.00  0.00    +0.004 A 
ATOM     29  C   UNL     1     -14.834  -2.071   8.398  0.00  0.00    +0.111 A 
ATOM     32  C   UNL     1     -15.822  -1.526   9.202  0.00  0.00    +0.020 A 
ENDBRANCH  23  24
ENDBRANCH  15   5
BRANCH  11   2
ATOM      2  O   UNL     1      -7.499  -6.575   8.039  0.00  0.00    -0.391 OA
ATOM     37  H   UNL     1      -6.575  -6.873   8.102  0.00  0.00    +0.210 HD
ENDBRANCH  11   2
BRANCH  14  19
ATOM     19  C   UNL     1      -6.387  -9.196   7.310  0.00  0.00    +0.077 C 
ATOM     21  C   UNL     1      -6.940 -10.169   6.276  0.00  0.00    +0.017 C 
BRANCH  19  22
ATOM      3  O   UNL     1      -4.596 -10.797   7.617  0.00  0.00    -0.276 OA
ATOM      6  N   UNL     1      -4.586  -8.863   8.897  0.00  0.00    -0.311 N 
ATOM     22  C   UNL     1      -5.101  -9.723   7.939  0.00  0.00    +0.216 C 
ATOM     38  H   UNL     1      -5.046  -7.976   9.078  0.00  0.00    +0.149 HD
BRANCH   6  25
ATOM     25  C   UNL     1      -3.374  -9.147   9.632  0.00  0.00    +0.139 C 
BRANCH  25  27
ATOM      1  F   UNL     1      -4.455 -11.190  14.766  0.00  0.00    -0.205 F 
ATOM     27  C   UNL     1      -3.662  -9.692  11.000  0.00  0.00    -0.030 A 
ATOM     30  C   UNL     1      -4.954  -9.615  11.524  0.00  0.00    +0.008 A 
ATOM     31  C   UNL     1      -2.640 -10.274  11.750  0.00  0.00    +0.008 A 
ATOM     33  C   UNL     1      -5.221 -10.121  12.796  0.00  0.00    +0.038 A 
ATOM     34  C   UNL     1      -2.907 -10.779  13.021  0.00  0.00    +0.038 A 
ATOM     35  C   UNL     1      -4.198 -10.703  13.544  0.00  0.00    +0.123 A 
ENDBRANCH  25  27
ENDBRANCH   6  25
ENDBRANCH  19  22
ENDBRANCH  14  19
TORSDOF 7
ENDMDL
MODEL 8
REMARK VINA RESULT:      -6.9     19.344     23.112
REMARK  Name = 45361608
REMARK  10 active torsions:
REMARK  status: ('A' for Active; 'I' for Inactive)
REMARK    1  A    between atoms: O_2  and  C_11
REMARK    2  A    between atoms: N_5  and  C_15
REMARK    3  A    between atoms: N_6  and  C_25
REMARK    4  A    between atoms: C_8  and  C_18
REMARK    5  A    between atoms: C_10  and  C_20
REMARK    6  A    between atoms: C_14  and  C_19
REMARK    7  A    between atoms: C_19  and  C_21
REMARK    8  A    between atoms: C_19  and  C_22
REMARK    9  A    between atoms: C_23  and  C_24
REMARK   10  A    between atoms: C_25  and  C_27
REMARK                            x       y       z     vdW  Elec       q    Type
REMARK                         _______ _______ _______ _____ _____    ______ ____
ROOT
ATOM      8  C   UNL     1      -6.890 -11.457  38.627  0.00  0.00    -0.027 C 
ATOM      9  C   UNL     1      -7.991 -10.346  38.580  0.00  0.00    +0.028 C 
ATOM     10  C   UNL     1      -8.964 -10.575  37.369  0.00  0.00    +0.012 C 
ATOM     11  C   UNL     1      -7.364  -8.926  38.675  0.00  0.00    +0.122 C 
ATOM     12  C   UNL     1      -6.020 -11.268  39.891  0.00  0.00    +0.007 C 
ATOM     13  C   UNL     1      -7.572 -12.840  38.727  0.00  0.00    +0.009 C 
ATOM     14  C   UNL     1      -6.413  -8.775  39.885  0.00  0.00    +0.029 C 
ATOM     15  C   UNL     1      -9.588 -11.998  37.439  0.00  0.00    +0.076 C 
ATOM     16  C   UNL     1      -5.372  -9.891  39.967  0.00  0.00    +0.007 C 
ATOM     17  C   UNL     1      -8.549 -13.109  37.592  0.00  0.00    +0.023 C 
ATOM     18  C   UNL     1      -5.968 -11.432  37.381  0.00  0.00    +0.011 C 
ATOM     20  C   UNL     1     -10.093  -9.533  37.279  0.00  0.00    +0.010 C 
ENDROOT
BRANCH  15   5
ATOM      4  O   UNL     1     -12.436 -12.353  37.383  0.00  0.00    -0.269 OA
ATOM      5  N   UNL     1     -10.400 -12.286  36.276  0.00  0.00    -0.307 N 
ATOM     23  C   UNL     1     -11.774 -12.439  36.352  0.00  0.00    +0.263 C 
ATOM     36  H   UNL     1      -9.933 -12.434  35.385  0.00  0.00    +0.149 HD
BRANCH  23  24
ATOM      7  N   UNL     1     -11.982 -13.831  34.404  0.00  0.00    -0.250 NA
ATOM     24  C   UNL     1     -12.459 -12.758  35.073  0.00  0.00    +0.125 A 
ATOM     26  C   UNL     1     -13.517 -11.978  34.636  0.00  0.00    +0.033 A 
ATOM     28  C   UNL     1     -14.124 -12.320  33.432  0.00  0.00    +0.004 A 
ATOM     29  C   UNL     1     -12.597 -14.133  33.238  0.00  0.00    +0.111 A 
ATOM     32  C   UNL     1     -13.661 -13.418  32.714  0.00  0.00    +0.020 A 
ENDBRANCH  23  24
ENDBRANCH  15   5
BRANCH  11   2
ATOM      2  O   UNL     1      -8.399  -7.957  38.846  0.00  0.00    -0.391 OA
ATOM     37  H   UNL     1      -9.060  -8.094  38.145  0.00  0.00    +0.210 HD
ENDBRANCH  11   2
BRANCH  14  19
ATOM     19  C   UNL     1      -5.705  -7.414  39.887  0.00  0.00    +0.077 C 
ATOM     21  C   UNL     1      -4.205  -7.602  40.079  0.00  0.00    +0.017 C 
BRANCH  19  22
ATOM      3  O   UNL     1      -5.913  -6.551  42.140  0.00  0.00    -0.276 OA
ATOM      6  N   UNL     1      -7.304  -5.697  40.494  0.00  0.00    -0.311 N 
ATOM     22  C   UNL     1      -6.298  -6.523  40.973  0.00  0.00    +0.216 C 
ATOM     38  H   UNL     1      -7.539  -5.710  39.506  0.00  0.00    +0.149 HD
BRANCH   6  25
ATOM     25  C   UNL     1      -8.018  -4.764  41.336  0.00  0.00    +0.139 C 
BRANCH  25  27
ATOM      1  F   UNL     1     -11.185  -1.210  38.329  0.00  0.00    -0.205 F 
ATOM     27  C   UNL     1      -8.862  -3.816  40.534  0.00  0.00    -0.030 A 
ATOM     30  C   UNL     1      -8.759  -2.441  40.745  0.00  0.00    +0.008 A 
ATOM     31  C   UNL     1      -9.750  -4.311  39.578  0.00  0.00    +0.008 A 
ATOM     33  C   UNL     1      -9.544  -1.561  40.000  0.00  0.00    +0.038 A 
ATOM     34  C   UNL     1     -10.535  -3.430  38.834  0.00  0.00    +0.038 A 
ATOM     35  C   UNL     1     -10.431  -2.055  39.045  0.00  0.00    +0.123 A 
ENDBRANCH  25  27
ENDBRANCH   6  25
ENDBRANCH  19  22
ENDBRANCH  14  19
TORSDOF 7
ENDMDL
MODEL 9
REMARK VINA RESULT:      -6.8     20.036     23.587
REMARK  Name = 45361608
REMARK  10 active torsions:
REMARK  status: ('A' for Active; 'I' for Inactive)
REMARK    1  A    between atoms: O_2  and  C_11
REMARK    2  A    between atoms: N_5  and  C_15
REMARK    3  A    between atoms: N_6  and  C_25
REMARK    4  A    between atoms: C_8  and  C_18
REMARK    5  A    between atoms: C_10  and  C_20
REMARK    6  A    between atoms: C_14  and  C_19
REMARK    7  A    between atoms: C_19  and  C_21
REMARK    8  A    between atoms: C_19  and  C_22
REMARK    9  A    between atoms: C_23  and  C_24
REMARK   10  A    between atoms: C_25  and  C_27
REMARK                            x       y       z     vdW  Elec       q    Type
REMARK                         _______ _______ _______ _____ _____    ______ ____
ROOT
ATOM      8  C   UNL     1      -5.088 -11.210  17.941  0.00  0.00    -0.027 C 
ATOM      9  C   UNL     1      -5.945 -12.255  17.152  0.00  0.00    +0.028 C 
ATOM     10  C   UNL     1      -6.828 -13.107  18.132  0.00  0.00    +0.012 C 
ATOM     11  C   UNL     1      -5.067 -13.071  16.161  0.00  0.00    +0.122 C 
ATOM     12  C   UNL     1      -4.318 -10.314  16.942  0.00  0.00    +0.007 C 
ATOM     13  C   UNL     1      -6.032 -10.299  18.760  0.00  0.00    +0.009 C 
ATOM     14  C   UNL     1      -4.221 -12.169  15.234  0.00  0.00    +0.029 C 
ATOM     15  C   UNL     1      -7.719 -12.177  19.003  0.00  0.00    +0.076 C 
ATOM     16  C   UNL     1      -3.427 -11.108  15.996  0.00  0.00    +0.007 C 
ATOM     17  C   UNL     1      -6.933 -11.073  19.711  0.00  0.00    +0.023 C 
ATOM     18  C   UNL     1      -4.068 -11.879  18.897  0.00  0.00    +0.011 C 
ATOM     20  C   UNL     1      -7.721 -14.138  17.419  0.00  0.00    +0.010 C 
ENDROOT
BRANCH  15   5
ATOM      4  O   UNL     1     -10.571 -12.237  19.325  0.00  0.00    -0.269 OA
ATOM      5  N   UNL     1      -8.461 -12.922  19.998  0.00  0.00    -0.307 N 
ATOM     23  C   UNL     1      -9.842 -12.886  20.072  0.00  0.00    +0.263 C 
ATOM     36  H   UNL     1      -7.940 -13.443  20.699  0.00  0.00    +0.149 HD
BRANCH  23  24
ATOM      7  N   UNL     1     -11.670 -13.277  21.582  0.00  0.00    -0.250 NA
ATOM     24  C   UNL     1     -10.451 -13.685  21.166  0.00  0.00    +0.125 A 
ATOM     26  C   UNL     1      -9.774 -14.773  21.695  0.00  0.00    +0.033 A 
ATOM     28  C   UNL     1     -10.389 -15.487  22.718  0.00  0.00    +0.004 A 
ATOM     29  C   UNL     1     -12.237 -13.996  22.578  0.00  0.00    +0.111 A 
ATOM     32  C   UNL     1     -11.644 -15.098  23.173  0.00  0.00    +0.020 A 
ENDBRANCH  23  24
ENDBRANCH  15   5
BRANCH  11   2
ATOM      2  O   UNL     1      -5.907 -13.855  15.312  0.00  0.00    -0.391 OA
ATOM     37  H   UNL     1      -5.346 -14.492  14.837  0.00  0.00    +0.210 HD
ENDBRANCH  11   2
BRANCH  14  19
ATOM     19  C   UNL     1      -3.267 -12.990  14.356  0.00  0.00    +0.077 C 
ATOM     21  C   UNL     1      -1.882 -12.354  14.348  0.00  0.00    +0.017 C 
BRANCH  19  22
ATOM      3  O   UNL     1      -4.836 -13.769  12.683  0.00  0.00    -0.276 OA
ATOM      6  N   UNL     1      -3.093 -12.394  12.013  0.00  0.00    -0.311 N 
ATOM     22  C   UNL     1      -3.833 -13.108  12.945  0.00  0.00    +0.216 C 
ATOM     38  H   UNL     1      -2.296 -11.843  12.318  0.00  0.00    +0.149 HD
BRANCH   6  25
ATOM     25  C   UNL     1      -3.433 -12.354  10.609  0.00  0.00    +0.139 C 
BRANCH  25  27
ATOM      1  F   UNL     1      -6.145  -7.615   9.235  0.00  0.00    -0.205 F 
ATOM     27  C   UNL     1      -4.156 -11.091  10.243  0.00  0.00    -0.030 A 
ATOM     30  C   UNL     1      -3.473  -9.874  10.233  0.00  0.00    +0.008 A 
ATOM     31  C   UNL     1      -5.511 -11.132   9.912  0.00  0.00    +0.008 A 
ATOM     33  C   UNL     1      -4.146  -8.700   9.893  0.00  0.00    +0.038 A 
ATOM     34  C   UNL     1      -6.182  -9.959   9.572  0.00  0.00    +0.038 A 
ATOM     35  C   UNL     1      -5.499  -8.743   9.562  0.00  0.00    +0.123 A 
ENDBRANCH  25  27
ENDBRANCH   6  25
ENDBRANCH  19  22
ENDBRANCH  14  19
TORSDOF 7
ENDMDL
MODEL 10
REMARK VINA RESULT:      -6.8     28.077     32.939
REMARK  Name = 45361608
REMARK  10 active torsions:
REMARK  status: ('A' for Active; 'I' for Inactive)
REMARK    1  A    between atoms: O_2  and  C_11
REMARK    2  A    between atoms: N_5  and  C_15
REMARK    3  A    between atoms: N_6  and  C_25
REMARK    4  A    between atoms: C_8  and  C_18
REMARK    5  A    between atoms: C_10  and  C_20
REMARK    6  A    between atoms: C_14  and  C_19
REMARK    7  A    between atoms: C_19  and  C_21
REMARK    8  A    between atoms: C_19  and  C_22
REMARK    9  A    between atoms: C_23  and  C_24
REMARK   10  A    between atoms: C_25  and  C_27
REMARK                            x       y       z     vdW  Elec       q    Type
REMARK                         _______ _______ _______ _____ _____    ______ ____
ROOT
ATOM      8  C   UNL     1       9.506   6.247   5.853  0.00  0.00    -0.027 C 
ATOM      9  C   UNL     1      10.316   7.509   5.404  0.00  0.00    +0.028 C 
ATOM     10  C   UNL     1       9.778   8.800   6.119  0.00  0.00    +0.012 C 
ATOM     11  C   UNL     1      10.414   7.594   3.854  0.00  0.00    +0.122 C 
ATOM     12  C   UNL     1      10.131   4.982   5.220  0.00  0.00    +0.007 C 
ATOM     13  C   UNL     1       9.606   6.104   7.389  0.00  0.00    +0.009 C 
ATOM     14  C   UNL     1      10.942   6.287   3.219  0.00  0.00    +0.029 C 
ATOM     15  C   UNL     1       9.813   8.617   7.662  0.00  0.00    +0.076 C 
ATOM     16  C   UNL     1      10.192   5.046   3.700  0.00  0.00    +0.007 C 
ATOM     17  C   UNL     1       9.123   7.338   8.137  0.00  0.00    +0.023 C 
ATOM     18  C   UNL     1       8.013   6.323   5.444  0.00  0.00    +0.011 C 
ATOM     20  C   UNL     1      10.551  10.078   5.744  0.00  0.00    +0.010 C 
ENDROOT
BRANCH  15   5
ATOM      4  O   UNL     1      11.192  10.616   9.193  0.00  0.00    -0.269 OA
ATOM      5  N   UNL     1       9.217   9.743   8.350  0.00  0.00    -0.307 N 
ATOM     23  C   UNL     1       9.971  10.657   9.065  0.00  0.00    +0.263 C 
ATOM     36  H   UNL     1       8.204   9.827   8.351  0.00  0.00    +0.149 HD
BRANCH  23  24
ATOM      7  N   UNL     1       8.518  12.565   8.916  0.00  0.00    -0.250 NA
ATOM     24  C   UNL     1       9.207  11.740   9.736  0.00  0.00    +0.125 A 
ATOM     26  C   UNL     1       9.227  11.856  11.116  0.00  0.00    +0.033 A 
ATOM     28  C   UNL     1       8.494  12.887  11.693  0.00  0.00    +0.004 A 
ATOM     29  C   UNL     1       7.817  13.556   9.513  0.00  0.00    +0.111 A 
ATOM     32  C   UNL     1       7.772  13.757  10.883  0.00  0.00    +0.020 A 
ENDBRANCH  23  24
ENDBRANCH  15   5
BRANCH  11   2
ATOM      2  O   UNL     1      11.332   8.626   3.490  0.00  0.00    -0.391 OA
ATOM     37  H   UNL     1      11.754   8.371   2.650  0.00  0.00    +0.210 HD
ENDBRANCH  11   2
BRANCH  14  19
ATOM     19  C   UNL     1      10.908   6.345   1.686  0.00  0.00    +0.077 C 
ATOM     21  C   UNL     1       9.583   6.929   1.212  0.00  0.00    +0.017 C 
BRANCH  19  22
ATOM      3  O   UNL     1      10.220   4.210   0.772  0.00  0.00    -0.276 OA
ATOM      6  N   UNL     1      12.487   4.633   1.016  0.00  0.00    -0.311 N 
ATOM     22  C   UNL     1      11.140   4.952   1.109  0.00  0.00    +0.216 C 
ATOM     38  H   UNL     1      13.187   5.318   1.284  0.00  0.00    +0.149 HD
BRANCH   6  25
ATOM     25  C   UNL     1      12.957   3.367   0.501  0.00  0.00    +0.139 C 
BRANCH  25  27
ATOM      1  F   UNL     1      12.970   3.257  -5.128  0.00  0.00    -0.205 F 
ATOM     27  C   UNL     1      12.960   3.338  -1.000  0.00  0.00    -0.030 A 
ATOM     30  C   UNL     1      12.168   2.413  -1.681  0.00  0.00    +0.008 A 
ATOM     31  C   UNL     1      13.755   4.235  -1.714  0.00  0.00    +0.008 A 
ATOM     33  C   UNL     1      12.172   2.385  -3.076  0.00  0.00    +0.038 A 
ATOM     34  C   UNL     1      13.758   4.207  -3.107  0.00  0.00    +0.038 A 
ATOM     35  C   UNL     1      12.966   3.283  -3.788  0.00  0.00    +0.123 A 
ENDBRANCH  25  27
ENDBRANCH   6  25
ENDBRANCH  19  22
ENDBRANCH  14  19
TORSDOF 7
ENDMDL
