REMARK  Name = 75536081
REMARK  6 active torsions:
REMARK  status: ('A' for Active; 'I' for Inactive)
REMARK    1  A    between atoms: O_1  and  C_9
REMARK    2  A    between atoms: O_2  and  C_11
REMARK    3  A    between atoms: N_4  and  C_8
REMARK    4  A    between atoms: C_7  and  C_12
REMARK    5  A    between atoms: C_15  and  C_17
REMARK    6  A    between atoms: C_21  and  C_24
REMARK                            x       y       z     vdW  Elec       q    Type
REMARK                         _______ _______ _______ _____ _____    ______ ____
ROOT
ATOM      7  C   UNL     1       2.341   0.410   0.845  0.00  0.00    +0.046 C 
ATOM      8  C   UNL     1       1.434   1.194  -0.131  0.00  0.00    +0.112 C 
ATOM      9  C   UNL     1       1.980   2.619  -0.055  0.00  0.00    +0.164 C 
ATOM     10  C   UNL     1       3.654   1.228   0.952  0.00  0.00    +0.044 C 
ATOM     11  C   UNL     1       3.488   2.410  -0.001  0.00  0.00    +0.145 C 
ENDROOT
BRANCH   7  12
ATOM      5  N   UNL     1       2.304  -3.381   0.976  0.00  0.00    -0.263 NA
ATOM     12  C   UNL     1       2.537  -1.035   0.440  0.00  0.00    -0.024 A 
ATOM     13  C   UNL     1       3.106  -1.365  -0.785  0.00  0.00    +0.007 A 
ATOM     14  C   UNL     1       2.156  -2.071   1.277  0.00  0.00    +0.114 A 
ATOM     16  C   UNL     1       3.275  -2.701  -1.131  0.00  0.00    +0.020 A 
ATOM     18  C   UNL     1       2.861  -3.663  -0.223  0.00  0.00    +0.111 A 
ENDBRANCH   7  12
BRANCH   8   4
ATOM      3  O   UNL     1      -0.513  -0.699  -1.064  0.00  0.00    -0.270 OA
ATOM      4  N   UNL     1       0.046   1.129   0.250  0.00  0.00    -0.305 N 
ATOM     15  C   UNL     1      -0.824   0.172  -0.257  0.00  0.00    +0.244 C 
ATOM     25  H   UNL     1      -0.286   1.835   0.898  0.00  0.00    +0.149 HD
BRANCH  15  17
ATOM     17  C   UNL     1      -2.230   0.256   0.215  0.00  0.00    +0.038 A 
ATOM     19  C   UNL     1      -3.265  -0.227  -0.586  0.00  0.00    +0.032 A 
ATOM     20  C   UNL     1      -2.515   0.817   1.460  0.00  0.00    +0.013 A 
ATOM     21  C   UNL     1      -4.585  -0.148  -0.142  0.00  0.00    +0.052 A 
ATOM     22  C   UNL     1      -3.836   0.896   1.904  0.00  0.00    +0.002 A 
ATOM     23  C   UNL     1      -4.870   0.413   1.103  0.00  0.00    +0.019 A 
BRANCH  21  24
ATOM      6  N   UNL     1      -6.507  -1.047  -1.627  0.00  0.00    -0.191 NA
ATOM     24  C   UNL     1      -5.646  -0.644  -0.962  0.00  0.00    +0.099 C 
ENDBRANCH  21  24
ENDBRANCH  15  17
ENDBRANCH   8   4
BRANCH   9   1
ATOM      1  O   UNL     1       1.611   3.395  -1.180  0.00  0.00    -0.387 OA
ATOM     26  H   UNL     1       2.069   4.250  -1.108  0.00  0.00    +0.210 HD
ENDBRANCH   9   1
BRANCH  11   2
ATOM      2  O   UNL     1       3.998   2.042  -1.279  0.00  0.00    -0.389 OA
ATOM     27  H   UNL     1       4.952   1.883  -1.177  0.00  0.00    +0.210 HD
ENDBRANCH  11   2
TORSDOF 6
