MODEL 1
REMARK VINA RESULT:      -6.4      0.000      0.000
REMARK  Name = 45783540
REMARK  11 active torsions:
REMARK  status: ('A' for Active; 'I' for Inactive)
REMARK    1  A    between atoms: O_2  and  C_22
REMARK    2  A    between atoms: O_2  and  C_27
REMARK    3  A    between atoms: O_3  and  C_26
REMARK    4  A    between atoms: O_3  and  C_28
REMARK    5  A    between atoms: O_4  and  C_29
REMARK    6  A    between atoms: O_4  and  C_30
REMARK    7  A    between atoms: N_5  and  C_13
REMARK    8  A    between atoms: C_9  and  C_14
REMARK    9  A    between atoms: C_13  and  C_15
REMARK   10  A    between atoms: C_18  and  C_21
REMARK   11  A    between atoms: C_28  and  C_29
REMARK                            x       y       z     vdW  Elec       q    Type
REMARK                         _______ _______ _______ _____ _____    ______ ____
ROOT
ATOM      1  O   UNL     1      -5.050 -11.950  16.636  0.00  0.00    -0.336 OA
ATOM      6  N   UNL     1      -5.417 -10.077  15.462  0.00  0.00    -0.190 NA
ATOM      7  N   UNL     1      -6.353 -11.543  16.948  0.00  0.00    -0.056 NA
ATOM     14  C   UNL     1      -4.571 -11.032  15.755  0.00  0.00    +0.245 A 
ATOM     18  C   UNL     1      -6.496 -10.433  16.217  0.00  0.00    +0.204 A 
ENDROOT
BRANCH  18  21
ATOM      8  N   UNL     1      -9.586  -8.760  14.999  0.00  0.00    -0.221 NA
ATOM     21  C   UNL     1      -7.703  -9.657  16.221  0.00  0.00    +0.041 A 
ATOM     23  C   UNL     1      -8.165  -9.058  17.388  0.00  0.00    +0.018 A 
ATOM     24  C   UNL     1      -8.443  -9.480  15.064  0.00  0.00    +0.126 A 
ATOM     25  C   UNL     1      -9.337  -8.310  17.361  0.00  0.00    +0.068 A 
ATOM     26  C   UNL     1     -10.004  -8.192  16.152  0.00  0.00    +0.215 A 
BRANCH  26   3
ATOM      3  O   UNL     1     -11.162  -7.461  16.100  0.00  0.00    -0.474 OA
BRANCH   3  28
ATOM     28  C   UNL     1     -11.058  -6.131  15.605  0.00  0.00    +0.258 C 
BRANCH  28  29
ATOM     29  C   UNL     1     -12.334  -5.777  14.867  0.00  0.00    +0.200 C 
BRANCH  29   4
ATOM      4  O   UNL     1     -12.013  -4.954  13.752  0.00  0.00    -0.380 OA
ATOM     30  C   UNL     1     -13.178  -4.375  13.180  0.00  0.00    +0.194 C 
ENDBRANCH  29   4
ENDBRANCH  28  29
ENDBRANCH   3  28
ENDBRANCH  26   3
ENDBRANCH  18  21
BRANCH  14   9
ATOM      5  N   UNL     1      -2.863 -10.477  14.032  0.00  0.00    -0.287 NA
ATOM      9  C   UNL     1      -3.158 -11.250  15.255  0.00  0.00    +0.146 C 
ATOM     10  C   UNL     1      -2.093 -10.797  16.271  0.00  0.00    +0.030 C 
ATOM     11  C   UNL     1      -1.209  -9.818  15.510  0.00  0.00    +0.017 C 
ATOM     12  C   UNL     1      -1.428 -10.195  14.058  0.00  0.00    +0.085 C 
BRANCH   5  13
ATOM     13  C   UNL     1      -3.265 -11.162  12.809  0.00  0.00    +0.120 C 
BRANCH  13  15
ATOM     15  C   UNL     1      -3.972 -10.236  11.855  0.00  0.00    -0.033 A 
ATOM     16  C   UNL     1      -3.323  -9.795  10.702  0.00  0.00    +0.008 A 
ATOM     17  C   UNL     1      -5.276  -9.821  12.124  0.00  0.00    +0.008 A 
ATOM     19  C   UNL     1      -3.978  -8.937   9.819  0.00  0.00    +0.046 A 
ATOM     20  C   UNL     1      -5.931  -8.964  11.241  0.00  0.00    +0.046 A 
ATOM     22  C   UNL     1      -5.282  -8.522  10.088  0.00  0.00    +0.120 A 
BRANCH  22   2
ATOM      2  O   UNL     1      -5.921  -7.685   9.225  0.00  0.00    -0.495 OA
ATOM     27  C   UNL     1      -7.214  -8.086   8.770  0.00  0.00    +0.277 C 
ENDBRANCH  22   2
ENDBRANCH  13  15
ENDBRANCH   5  13
ENDBRANCH  14   9
TORSDOF 9
ENDMDL
MODEL 2
REMARK VINA RESULT:      -6.1     27.313     30.556
REMARK  Name = 45783540
REMARK  11 active torsions:
REMARK  status: ('A' for Active; 'I' for Inactive)
REMARK    1  A    between atoms: O_2  and  C_22
REMARK    2  A    between atoms: O_2  and  C_27
REMARK    3  A    between atoms: O_3  and  C_26
REMARK    4  A    between atoms: O_3  and  C_28
REMARK    5  A    between atoms: O_4  and  C_29
REMARK    6  A    between atoms: O_4  and  C_30
REMARK    7  A    between atoms: N_5  and  C_13
REMARK    8  A    between atoms: C_9  and  C_14
REMARK    9  A    between atoms: C_13  and  C_15
REMARK   10  A    between atoms: C_18  and  C_21
REMARK   11  A    between atoms: C_28  and  C_29
REMARK                            x       y       z     vdW  Elec       q    Type
REMARK                         _______ _______ _______ _____ _____    ______ ____
ROOT
ATOM      1  O   UNL     1      19.310   6.597  20.281  0.00  0.00    -0.336 OA
ATOM      6  N   UNL     1      17.853   7.931  21.337  0.00  0.00    -0.190 NA
ATOM      7  N   UNL     1      18.043   6.255  19.791  0.00  0.00    -0.056 NA
ATOM     14  C   UNL     1      19.108   7.591  21.186  0.00  0.00    +0.245 A 
ATOM     18  C   UNL     1      17.237   7.084  20.461  0.00  0.00    +0.204 A 
ENDROOT
BRANCH  18  21
ATOM      8  N   UNL     1      13.607   7.125  21.264  0.00  0.00    -0.221 NA
ATOM     21  C   UNL     1      15.814   7.092  20.280  0.00  0.00    +0.041 A 
ATOM     23  C   UNL     1      15.255   7.071  19.007  0.00  0.00    +0.018 A 
ATOM     24  C   UNL     1      14.955   7.119  21.366  0.00  0.00    +0.126 A 
ATOM     25  C   UNL     1      13.872   7.078  18.862  0.00  0.00    +0.068 A 
ATOM     26  C   UNL     1      13.099   7.104  20.012  0.00  0.00    +0.215 A 
BRANCH  26   3
ATOM      3  O   UNL     1      11.734   7.112  19.895  0.00  0.00    -0.474 OA
BRANCH   3  28
ATOM     28  C   UNL     1      11.041   8.174  20.542  0.00  0.00    +0.258 C 
BRANCH  28  29
ATOM     29  C   UNL     1      10.402   7.646  21.811  0.00  0.00    +0.200 C 
BRANCH  29   4
ATOM      4  O   UNL     1      10.817   8.448  22.910  0.00  0.00    -0.380 OA
ATOM     30  C   UNL     1      11.357   9.688  22.474  0.00  0.00    +0.194 C 
ENDBRANCH  29   4
ENDBRANCH  28  29
ENDBRANCH   3  28
ENDBRANCH  26   3
ENDBRANCH  18  21
BRANCH  14   9
ATOM      5  N   UNL     1      21.441   7.160  21.936  0.00  0.00    -0.287 NA
ATOM      9  C   UNL     1      20.342   8.144  21.867  0.00  0.00    +0.146 C 
ATOM     10  C   UNL     1      20.943   9.349  21.120  0.00  0.00    +0.030 C 
ATOM     11  C   UNL     1      22.396   8.975  20.867  0.00  0.00    +0.017 C 
ATOM     12  C   UNL     1      22.685   7.929  21.924  0.00  0.00    +0.085 C 
BRANCH   5  13
ATOM     13  C   UNL     1      21.352   6.280  23.095  0.00  0.00    +0.120 C 
BRANCH  13  15
ATOM     15  C   UNL     1      22.045   4.965  22.854  0.00  0.00    -0.033 A 
ATOM     16  C   UNL     1      21.913   4.321  21.624  0.00  0.00    +0.008 A 
ATOM     17  C   UNL     1      22.820   4.391  23.862  0.00  0.00    +0.008 A 
ATOM     19  C   UNL     1      22.555   3.103  21.402  0.00  0.00    +0.046 A 
ATOM     20  C   UNL     1      23.463   3.174  23.641  0.00  0.00    +0.046 A 
ATOM     22  C   UNL     1      23.330   2.530  22.411  0.00  0.00    +0.120 A 
BRANCH  22   2
ATOM      2  O   UNL     1      23.958   1.341  22.193  0.00  0.00    -0.495 OA
ATOM     27  C   UNL     1      25.142   1.369  21.395  0.00  0.00    +0.277 C 
ENDBRANCH  22   2
ENDBRANCH  13  15
ENDBRANCH   5  13
ENDBRANCH  14   9
TORSDOF 9
ENDMDL
MODEL 3
REMARK VINA RESULT:      -6.0      2.758      8.048
REMARK  Name = 45783540
REMARK  11 active torsions:
REMARK  status: ('A' for Active; 'I' for Inactive)
REMARK    1  A    between atoms: O_2  and  C_22
REMARK    2  A    between atoms: O_2  and  C_27
REMARK    3  A    between atoms: O_3  and  C_26
REMARK    4  A    between atoms: O_3  and  C_28
REMARK    5  A    between atoms: O_4  and  C_29
REMARK    6  A    between atoms: O_4  and  C_30
REMARK    7  A    between atoms: N_5  and  C_13
REMARK    8  A    between atoms: C_9  and  C_14
REMARK    9  A    between atoms: C_13  and  C_15
REMARK   10  A    between atoms: C_18  and  C_21
REMARK   11  A    between atoms: C_28  and  C_29
REMARK                            x       y       z     vdW  Elec       q    Type
REMARK                         _______ _______ _______ _____ _____    ______ ____
ROOT
ATOM      1  O   UNL     1      -6.725 -10.703  19.975  0.00  0.00    -0.336 OA
ATOM      6  N   UNL     1      -7.041 -11.606  17.949  0.00  0.00    -0.190 NA
ATOM      7  N   UNL     1      -5.601 -10.355  19.214  0.00  0.00    -0.056 NA
ATOM     14  C   UNL     1      -7.521 -11.439  19.155  0.00  0.00    +0.245 A 
ATOM     18  C   UNL     1      -5.862 -10.923  18.032  0.00  0.00    +0.204 A 
ENDROOT
BRANCH  18  21
ATOM      8  N   UNL     1      -4.642 -10.435  14.553  0.00  0.00    -0.221 NA
ATOM     21  C   UNL     1      -4.965 -10.830  16.916  0.00  0.00    +0.041 A 
ATOM     23  C   UNL     1      -3.599 -11.030  17.077  0.00  0.00    +0.018 A 
ATOM     24  C   UNL     1      -5.433 -10.537  15.645  0.00  0.00    +0.126 A 
ATOM     25  C   UNL     1      -2.753 -10.934  15.977  0.00  0.00    +0.068 A 
ATOM     26  C   UNL     1      -3.320 -10.637  14.748  0.00  0.00    +0.215 A 
BRANCH  26   3
ATOM      3  O   UNL     1      -2.509 -10.536  13.649  0.00  0.00    -0.474 OA
BRANCH   3  28
ATOM     28  C   UNL     1      -2.437 -11.675  12.798  0.00  0.00    +0.258 C 
BRANCH  28  29
ATOM     29  C   UNL     1      -2.928 -11.292  11.416  0.00  0.00    +0.200 C 
BRANCH  29   4
ATOM      4  O   UNL     1      -2.355 -10.044  11.048  0.00  0.00    -0.380 OA
ATOM     30  C   UNL     1      -3.214  -9.310  10.187  0.00  0.00    +0.194 C 
ENDBRANCH  29   4
ENDBRANCH  28  29
ENDBRANCH   3  28
ENDBRANCH  26   3
ENDBRANCH  18  21
BRANCH  14   9
ATOM      5  N   UNL     1     -10.000 -11.536  18.962  0.00  0.00    -0.287 NA
ATOM      9  C   UNL     1      -8.819 -11.942  19.750  0.00  0.00    +0.146 C 
ATOM     10  C   UNL     1      -8.892 -13.479  19.801  0.00  0.00    +0.030 C 
ATOM     11  C   UNL     1     -10.177 -13.841  19.070  0.00  0.00    +0.017 C 
ATOM     12  C   UNL     1     -11.008 -12.577  19.163  0.00  0.00    +0.085 C 
BRANCH   5  13
ATOM     13  C   UNL     1     -10.500 -10.214  19.315  0.00  0.00    +0.120 C 
BRANCH  13  15
ATOM     15  C   UNL     1     -10.749  -9.365  18.096  0.00  0.00    -0.033 A 
ATOM     16  C   UNL     1      -9.690  -8.691  17.487  0.00  0.00    +0.008 A 
ATOM     17  C   UNL     1     -12.038  -9.255  17.576  0.00  0.00    +0.008 A 
ATOM     19  C   UNL     1      -9.922  -7.904  16.358  0.00  0.00    +0.046 A 
ATOM     20  C   UNL     1     -12.270  -8.469  16.447  0.00  0.00    +0.046 A 
ATOM     22  C   UNL     1     -11.212  -7.794  15.838  0.00  0.00    +0.120 A 
BRANCH  22   2
ATOM      2  O   UNL     1     -11.437  -7.027  14.736  0.00  0.00    -0.495 OA
ATOM     27  C   UNL     1     -11.882  -5.688  14.957  0.00  0.00    +0.277 C 
ENDBRANCH  22   2
ENDBRANCH  13  15
ENDBRANCH   5  13
ENDBRANCH  14   9
TORSDOF 9
ENDMDL
MODEL 4
REMARK VINA RESULT:      -6.0      3.157      4.520
REMARK  Name = 45783540
REMARK  11 active torsions:
REMARK  status: ('A' for Active; 'I' for Inactive)
REMARK    1  A    between atoms: O_2  and  C_22
REMARK    2  A    between atoms: O_2  and  C_27
REMARK    3  A    between atoms: O_3  and  C_26
REMARK    4  A    between atoms: O_3  and  C_28
REMARK    5  A    between atoms: O_4  and  C_29
REMARK    6  A    between atoms: O_4  and  C_30
REMARK    7  A    between atoms: N_5  and  C_13
REMARK    8  A    between atoms: C_9  and  C_14
REMARK    9  A    between atoms: C_13  and  C_15
REMARK   10  A    between atoms: C_18  and  C_21
REMARK   11  A    between atoms: C_28  and  C_29
REMARK                            x       y       z     vdW  Elec       q    Type
REMARK                         _______ _______ _______ _____ _____    ______ ____
ROOT
ATOM      1  O   UNL     1      -5.087  -9.673  15.690  0.00  0.00    -0.336 OA
ATOM      6  N   UNL     1      -5.284 -11.488  16.989  0.00  0.00    -0.190 NA
ATOM      7  N   UNL     1      -6.307  -9.538  16.366  0.00  0.00    -0.056 NA
ATOM     14  C   UNL     1      -4.550 -10.847  16.114  0.00  0.00    +0.245 A 
ATOM     18  C   UNL     1      -6.351 -10.646  17.112  0.00  0.00    +0.204 A 
ENDROOT
BRANCH  18  21
ATOM      8  N   UNL     1      -8.258 -12.044  19.982  0.00  0.00    -0.221 NA
ATOM     21  C   UNL     1      -7.447 -10.943  17.988  0.00  0.00    +0.041 A 
ATOM     23  C   UNL     1      -8.723 -10.453  17.731  0.00  0.00    +0.018 A 
ATOM     24  C   UNL     1      -7.269 -11.726  19.117  0.00  0.00    +0.126 A 
ATOM     25  C   UNL     1      -9.767 -10.758  18.598  0.00  0.00    +0.068 A 
ATOM     26  C   UNL     1      -9.485 -11.550  19.699  0.00  0.00    +0.215 A 
BRANCH  26   3
ATOM      3  O   UNL     1     -10.496 -11.864  20.568  0.00  0.00    -0.474 OA
BRANCH   3  28
ATOM     28  C   UNL     1     -10.722 -13.247  20.816  0.00  0.00    +0.258 C 
BRANCH  28  29
ATOM     29  C   UNL     1     -12.149 -13.439  21.289  0.00  0.00    +0.200 C 
BRANCH  29   4
ATOM      4  O   UNL     1     -12.788 -12.170  21.364  0.00  0.00    -0.380 OA
ATOM     30  C   UNL     1     -13.763 -12.138  22.397  0.00  0.00    +0.194 C 
ENDBRANCH  29   4
ENDBRANCH  28  29
ENDBRANCH   3  28
ENDBRANCH  26   3
ENDBRANCH  18  21
BRANCH  14   9
ATOM      5  N   UNL     1      -2.949 -10.562  14.231  0.00  0.00    -0.287 NA
ATOM      9  C   UNL     1      -3.209 -11.227  15.523  0.00  0.00    +0.146 C 
ATOM     10  C   UNL     1      -2.026 -10.815  16.419  0.00  0.00    +0.030 C 
ATOM     11  C   UNL     1      -1.126  -9.972  15.527  0.00  0.00    +0.017 C 
ATOM     12  C   UNL     1      -1.497 -10.415  14.126  0.00  0.00    +0.085 C 
BRANCH   5  13
ATOM     13  C   UNL     1      -3.511 -11.279  13.093  0.00  0.00    +0.120 C 
BRANCH  13  15
ATOM     15  C   UNL     1      -4.123 -10.341  12.086  0.00  0.00    -0.033 A 
ATOM     16  C   UNL     1      -5.411  -9.847  12.287  0.00  0.00    +0.008 A 
ATOM     17  C   UNL     1      -3.400  -9.967  10.953  0.00  0.00    +0.008 A 
ATOM     19  C   UNL     1      -5.978  -8.979  11.353  0.00  0.00    +0.046 A 
ATOM     20  C   UNL     1      -3.966  -9.098  10.020  0.00  0.00    +0.046 A 
ATOM     22  C   UNL     1      -5.255  -8.604  10.221  0.00  0.00    +0.120 A 
BRANCH  22   2
ATOM      2  O   UNL     1      -5.808  -7.756   9.311  0.00  0.00    -0.495 OA
ATOM     27  C   UNL     1      -7.143  -8.039   8.888  0.00  0.00    +0.277 C 
ENDBRANCH  22   2
ENDBRANCH  13  15
ENDBRANCH   5  13
ENDBRANCH  14   9
TORSDOF 9
ENDMDL
MODEL 5
REMARK VINA RESULT:      -5.9     27.783     31.229
REMARK  Name = 45783540
REMARK  11 active torsions:
REMARK  status: ('A' for Active; 'I' for Inactive)
REMARK    1  A    between atoms: O_2  and  C_22
REMARK    2  A    between atoms: O_2  and  C_27
REMARK    3  A    between atoms: O_3  and  C_26
REMARK    4  A    between atoms: O_3  and  C_28
REMARK    5  A    between atoms: O_4  and  C_29
REMARK    6  A    between atoms: O_4  and  C_30
REMARK    7  A    between atoms: N_5  and  C_13
REMARK    8  A    between atoms: C_9  and  C_14
REMARK    9  A    between atoms: C_13  and  C_15
REMARK   10  A    between atoms: C_18  and  C_21
REMARK   11  A    between atoms: C_28  and  C_29
REMARK                            x       y       z     vdW  Elec       q    Type
REMARK                         _______ _______ _______ _____ _____    ______ ____
ROOT
ATOM      1  O   UNL     1      20.853   4.971  20.588  0.00  0.00    -0.336 OA
ATOM      6  N   UNL     1      19.624   6.527  21.631  0.00  0.00    -0.190 NA
ATOM      7  N   UNL     1      19.647   5.055  19.879  0.00  0.00    -0.056 NA
ATOM     14  C   UNL     1      20.756   5.869  21.603  0.00  0.00    +0.245 A 
ATOM     18  C   UNL     1      18.976   5.993  20.555  0.00  0.00    +0.204 A 
ENDROOT
BRANCH  18  21
ATOM      8  N   UNL     1      15.793   6.263  18.651  0.00  0.00    -0.221 NA
ATOM     21  C   UNL     1      17.658   6.418  20.181  0.00  0.00    +0.041 A 
ATOM     23  C   UNL     1      16.969   7.361  20.937  0.00  0.00    +0.018 A 
ATOM     24  C   UNL     1      17.032   5.904  19.058  0.00  0.00    +0.126 A 
ATOM     25  C   UNL     1      15.692   7.755  20.551  0.00  0.00    +0.068 A 
ATOM     26  C   UNL     1      15.154   7.182  19.410  0.00  0.00    +0.215 A 
BRANCH  26   3
ATOM      3  O   UNL     1      13.898   7.553  19.008  0.00  0.00    -0.474 OA
BRANCH   3  28
ATOM     28  C   UNL     1      12.808   7.066  19.783  0.00  0.00    +0.258 C 
BRANCH  28  29
ATOM     29  C   UNL     1      11.723   8.124  19.830  0.00  0.00    +0.200 C 
BRANCH  29   4
ATOM      4  O   UNL     1      11.361   8.358  21.185  0.00  0.00    -0.380 OA
ATOM     30  C   UNL     1      10.742   7.216  21.763  0.00  0.00    +0.194 C 
ENDBRANCH  29   4
ENDBRANCH  28  29
ENDBRANCH   3  28
ENDBRANCH  26   3
ENDBRANCH  18  21
BRANCH  14   9
ATOM      5  N   UNL     1      22.901   4.857  22.353  0.00  0.00    -0.287 NA
ATOM      9  C   UNL     1      21.950   5.973  22.528  0.00  0.00    +0.146 C 
ATOM     10  C   UNL     1      22.786   7.242  22.279  0.00  0.00    +0.030 C 
ATOM     11  C   UNL     1      24.203   6.743  22.034  0.00  0.00    +0.017 C 
ATOM     12  C   UNL     1      24.222   5.382  22.700  0.00  0.00    +0.085 C 
BRANCH   5  13
ATOM     13  C   UNL     1      22.556   3.679  23.139  0.00  0.00    +0.120 C 
BRANCH  13  15
ATOM     15  C   UNL     1      23.479   2.524  22.854  0.00  0.00    -0.033 A 
ATOM     16  C   UNL     1      24.077   1.833  23.908  0.00  0.00    +0.008 A 
ATOM     17  C   UNL     1      23.735   2.146  21.536  0.00  0.00    +0.008 A 
ATOM     19  C   UNL     1      24.933   0.764  23.643  0.00  0.00    +0.046 A 
ATOM     20  C   UNL     1      24.590   1.077  21.271  0.00  0.00    +0.046 A 
ATOM     22  C   UNL     1      25.189   0.385  22.325  0.00  0.00    +0.120 A 
BRANCH  22   2
ATOM      2  O   UNL     1      26.023  -0.659  22.067  0.00  0.00    -0.495 OA
ATOM     27  C   UNL     1      27.241  -0.716  22.812  0.00  0.00    +0.277 C 
ENDBRANCH  22   2
ENDBRANCH  13  15
ENDBRANCH   5  13
ENDBRANCH  14   9
TORSDOF 9
ENDMDL
MODEL 6
REMARK VINA RESULT:      -5.8     28.055     31.745
REMARK  Name = 45783540
REMARK  11 active torsions:
REMARK  status: ('A' for Active; 'I' for Inactive)
REMARK    1  A    between atoms: O_2  and  C_22
REMARK    2  A    between atoms: O_2  and  C_27
REMARK    3  A    between atoms: O_3  and  C_26
REMARK    4  A    between atoms: O_3  and  C_28
REMARK    5  A    between atoms: O_4  and  C_29
REMARK    6  A    between atoms: O_4  and  C_30
REMARK    7  A    between atoms: N_5  and  C_13
REMARK    8  A    between atoms: C_9  and  C_14
REMARK    9  A    between atoms: C_13  and  C_15
REMARK   10  A    between atoms: C_18  and  C_21
REMARK   11  A    between atoms: C_28  and  C_29
REMARK                            x       y       z     vdW  Elec       q    Type
REMARK                         _______ _______ _______ _____ _____    ______ ____
ROOT
ATOM      1  O   UNL     1      22.359   5.152  23.040  0.00  0.00    -0.336 OA
ATOM      6  N   UNL     1      21.791   5.354  20.882  0.00  0.00    -0.190 NA
ATOM      7  N   UNL     1      21.069   5.696  23.026  0.00  0.00    -0.056 NA
ATOM     14  C   UNL     1      22.710   4.982  21.738  0.00  0.00    +0.245 A 
ATOM     18  C   UNL     1      20.803   5.785  21.719  0.00  0.00    +0.204 A 
ENDROOT
BRANCH  18  21
ATOM      8  N   UNL     1      17.810   7.961  21.350  0.00  0.00    -0.221 NA
ATOM     21  C   UNL     1      19.562   6.301  21.217  0.00  0.00    +0.041 A 
ATOM     23  C   UNL     1      18.910   5.685  20.154  0.00  0.00    +0.018 A 
ATOM     24  C   UNL     1      18.977   7.425  21.775  0.00  0.00    +0.126 A 
ATOM     25  C   UNL     1      17.707   6.207  19.689  0.00  0.00    +0.068 A 
ATOM     26  C   UNL     1      17.204   7.336  20.316  0.00  0.00    +0.215 A 
BRANCH  26   3
ATOM      3  O   UNL     1      16.021   7.869  19.876  0.00  0.00    -0.474 OA
BRANCH   3  28
ATOM     28  C   UNL     1      15.200   7.031  19.071  0.00  0.00    +0.258 C 
BRANCH  28  29
ATOM     29  C   UNL     1      13.802   7.615  19.014  0.00  0.00    +0.200 C 
BRANCH  29   4
ATOM      4  O   UNL     1      12.875   6.647  19.487  0.00  0.00    -0.380 OA
ATOM     30  C   UNL     1      12.453   6.934  20.814  0.00  0.00    +0.194 C 
ENDBRANCH  29   4
ENDBRANCH  28  29
ENDBRANCH   3  28
ENDBRANCH  26   3
ENDBRANCH  18  21
BRANCH  14   9
ATOM      5  N   UNL     1      24.218   3.020  21.992  0.00  0.00    -0.287 NA
ATOM      9  C   UNL     1      24.083   4.398  21.480  0.00  0.00    +0.146 C 
ATOM     10  C   UNL     1      24.411   4.292  19.979  0.00  0.00    +0.030 C 
ATOM     11  C   UNL     1      24.778   2.832  19.755  0.00  0.00    +0.017 C 
ATOM     12  C   UNL     1      25.195   2.353  21.130  0.00  0.00    +0.085 C 
BRANCH   5  13
ATOM     13  C   UNL     1      24.599   2.963  23.398  0.00  0.00    +0.120 C 
BRANCH  13  15
ATOM     15  C   UNL     1      23.911   1.835  24.120  0.00  0.00    -0.033 A 
ATOM     16  C   UNL     1      22.569   1.955  24.482  0.00  0.00    +0.008 A 
ATOM     17  C   UNL     1      24.615   0.671  24.426  0.00  0.00    +0.008 A 
ATOM     19  C   UNL     1      21.933   0.910  25.152  0.00  0.00    +0.046 A 
ATOM     20  C   UNL     1      23.979  -0.374  25.094  0.00  0.00    +0.046 A 
ATOM     22  C   UNL     1      22.637  -0.255  25.458  0.00  0.00    +0.120 A 
BRANCH  22   2
ATOM      2  O   UNL     1      22.015  -1.275  26.110  0.00  0.00    -0.495 OA
ATOM     27  C   UNL     1      20.641  -1.085  26.450  0.00  0.00    +0.277 C 
ENDBRANCH  22   2
ENDBRANCH  13  15
ENDBRANCH   5  13
ENDBRANCH  14   9
TORSDOF 9
ENDMDL
MODEL 7
REMARK VINA RESULT:      -5.7      3.343      8.753
REMARK  Name = 45783540
REMARK  11 active torsions:
REMARK  status: ('A' for Active; 'I' for Inactive)
REMARK    1  A    between atoms: O_2  and  C_22
REMARK    2  A    between atoms: O_2  and  C_27
REMARK    3  A    between atoms: O_3  and  C_26
REMARK    4  A    between atoms: O_3  and  C_28
REMARK    5  A    between atoms: O_4  and  C_29
REMARK    6  A    between atoms: O_4  and  C_30
REMARK    7  A    between atoms: N_5  and  C_13
REMARK    8  A    between atoms: C_9  and  C_14
REMARK    9  A    between atoms: C_13  and  C_15
REMARK   10  A    between atoms: C_18  and  C_21
REMARK   11  A    between atoms: C_28  and  C_29
REMARK                            x       y       z     vdW  Elec       q    Type
REMARK                         _______ _______ _______ _____ _____    ______ ____
ROOT
ATOM      1  O   UNL     1     -13.317  -6.342  12.816  0.00  0.00    -0.336 OA
ATOM      6  N   UNL     1     -11.807  -5.366  14.152  0.00  0.00    -0.190 NA
ATOM      7  N   UNL     1     -12.716  -7.376  13.544  0.00  0.00    -0.056 NA
ATOM     14  C   UNL     1     -12.724  -5.193  13.234  0.00  0.00    +0.245 A 
ATOM     18  C   UNL     1     -11.837  -6.721  14.310  0.00  0.00    +0.204 A 
ENDROOT
BRANCH  18  21
ATOM      8  N   UNL     1      -9.342  -9.123  15.666  0.00  0.00    -0.221 NA
ATOM     21  C   UNL     1     -10.975  -7.391  15.240  0.00  0.00    +0.041 A 
ATOM     23  C   UNL     1     -10.916  -6.998  16.573  0.00  0.00    +0.018 A 
ATOM     24  C   UNL     1     -10.175  -8.449  14.840  0.00  0.00    +0.126 A 
ATOM     25  C   UNL     1     -10.071  -7.666  17.452  0.00  0.00    +0.068 A 
ATOM     26  C   UNL     1      -9.312  -8.713  16.954  0.00  0.00    +0.215 A 
BRANCH  26   3
ATOM      3  O   UNL     1      -8.472  -9.387  17.800  0.00  0.00    -0.474 OA
BRANCH   3  28
ATOM     28  C   UNL     1      -7.277  -9.911  17.233  0.00  0.00    +0.258 C 
BRANCH  28  29
ATOM     29  C   UNL     1      -6.421 -10.498  18.338  0.00  0.00    +0.200 C 
BRANCH  29   4
ATOM      4  O   UNL     1      -5.092 -10.662  17.858  0.00  0.00    -0.380 OA
ATOM     30  C   UNL     1      -4.930 -10.092  16.567  0.00  0.00    +0.194 C 
ENDBRANCH  29   4
ENDBRANCH  28  29
ENDBRANCH   3  28
ENDBRANCH  26   3
ENDBRANCH  18  21
BRANCH  14   9
ATOM      5  N   UNL     1     -13.156  -3.964  11.114  0.00  0.00    -0.287 NA
ATOM      9  C   UNL     1     -13.207  -3.911  12.589  0.00  0.00    +0.146 C 
ATOM     10  C   UNL     1     -14.678  -3.598  12.918  0.00  0.00    +0.030 C 
ATOM     11  C   UNL     1     -15.361  -3.431  11.568  0.00  0.00    +0.017 C 
ATOM     12  C   UNL     1     -14.221  -3.085  10.632  0.00  0.00    +0.085 C 
BRANCH   5  13
ATOM     13  C   UNL     1     -11.854  -3.597  10.571  0.00  0.00    +0.120 C 
BRANCH  13  15
ATOM     15  C   UNL     1     -11.253  -4.711   9.755  0.00  0.00    -0.033 A 
ATOM     16  C   UNL     1     -11.837  -5.978   9.767  0.00  0.00    +0.008 A 
ATOM     17  C   UNL     1     -10.112  -4.476   8.988  0.00  0.00    +0.008 A 
ATOM     19  C   UNL     1     -11.279  -7.009   9.012  0.00  0.00    +0.046 A 
ATOM     20  C   UNL     1      -9.555  -5.506   8.232  0.00  0.00    +0.046 A 
ATOM     22  C   UNL     1     -10.138  -6.774   8.244  0.00  0.00    +0.120 A 
BRANCH  22   2
ATOM      2  O   UNL     1      -9.595  -7.780   7.507  0.00  0.00    -0.495 OA
ATOM     27  C   UNL     1      -8.257  -8.167   7.823  0.00  0.00    +0.277 C 
ENDBRANCH  22   2
ENDBRANCH  13  15
ENDBRANCH   5  13
ENDBRANCH  14   9
TORSDOF 9
ENDMDL
MODEL 8
REMARK VINA RESULT:      -5.7     18.720     21.878
REMARK  Name = 45783540
REMARK  11 active torsions:
REMARK  status: ('A' for Active; 'I' for Inactive)
REMARK    1  A    between atoms: O_2  and  C_22
REMARK    2  A    between atoms: O_2  and  C_27
REMARK    3  A    between atoms: O_3  and  C_26
REMARK    4  A    between atoms: O_3  and  C_28
REMARK    5  A    between atoms: O_4  and  C_29
REMARK    6  A    between atoms: O_4  and  C_30
REMARK    7  A    between atoms: N_5  and  C_13
REMARK    8  A    between atoms: C_9  and  C_14
REMARK    9  A    between atoms: C_13  and  C_15
REMARK   10  A    between atoms: C_18  and  C_21
REMARK   11  A    between atoms: C_28  and  C_29
REMARK                            x       y       z     vdW  Elec       q    Type
REMARK                         _______ _______ _______ _____ _____    ______ ____
ROOT
ATOM      1  O   UNL     1     -12.396  11.454  19.257  0.00  0.00    -0.336 OA
ATOM      6  N   UNL     1     -11.245  10.300  20.794  0.00  0.00    -0.190 NA
ATOM      7  N   UNL     1     -13.086  11.618  20.465  0.00  0.00    -0.056 NA
ATOM     14  C   UNL     1     -11.326  10.665  19.539  0.00  0.00    +0.245 A 
ATOM     18  C   UNL     1     -12.346  10.909  21.322  0.00  0.00    +0.204 A 
ENDROOT
BRANCH  18  21
ATOM      8  N   UNL     1     -12.210  11.376  25.009  0.00  0.00    -0.221 NA
ATOM     21  C   UNL     1     -12.680  10.787  22.712  0.00  0.00    +0.041 A 
ATOM     23  C   UNL     1     -13.749   9.998  23.125  0.00  0.00    +0.018 A 
ATOM     24  C   UNL     1     -11.949  11.450  23.684  0.00  0.00    +0.126 A 
ATOM     25  C   UNL     1     -14.048   9.898  24.480  0.00  0.00    +0.068 A 
ATOM     26  C   UNL     1     -13.255  10.600  25.373  0.00  0.00    +0.215 A 
BRANCH  26   3
ATOM      3  O   UNL     1     -13.530  10.519  26.713  0.00  0.00    -0.474 OA
BRANCH   3  28
ATOM     28  C   UNL     1     -12.415  10.497  27.596  0.00  0.00    +0.258 C 
BRANCH  28  29
ATOM     29  C   UNL     1     -12.535  11.649  28.574  0.00  0.00    +0.200 C 
BRANCH  29   4
ATOM      4  O   UNL     1     -12.544  11.134  29.899  0.00  0.00    -0.380 OA
ATOM     30  C   UNL     1     -11.745   9.963  30.009  0.00  0.00    +0.194 C 
ENDBRANCH  29   4
ENDBRANCH  28  29
ENDBRANCH   3  28
ENDBRANCH  26   3
ENDBRANCH  18  21
BRANCH  14   9
ATOM      5  N   UNL     1     -11.062   9.499  17.357  0.00  0.00    -0.287 NA
ATOM      9  C   UNL     1     -10.407  10.336  18.382  0.00  0.00    +0.146 C 
ATOM     10  C   UNL     1      -9.938  11.590  17.620  0.00  0.00    +0.030 C 
ATOM     11  C   UNL     1     -10.318  11.339  16.168  0.00  0.00    +0.017 C 
ATOM     12  C   UNL     1     -10.424   9.830  16.083  0.00  0.00    +0.085 C 
BRANCH   5  13
ATOM     13  C   UNL     1     -10.993   8.073  17.651  0.00  0.00    +0.120 C 
BRANCH  13  15
ATOM     15  C   UNL     1     -11.905   7.689  18.786  0.00  0.00    -0.033 A 
ATOM     16  C   UNL     1     -13.270   7.966  18.708  0.00  0.00    +0.008 A 
ATOM     17  C   UNL     1     -11.384   7.056  19.914  0.00  0.00    +0.008 A 
ATOM     19  C   UNL     1     -14.114   7.611  19.761  0.00  0.00    +0.046 A 
ATOM     20  C   UNL     1     -12.228   6.701  20.966  0.00  0.00    +0.046 A 
ATOM     22  C   UNL     1     -13.593   6.978  20.889  0.00  0.00    +0.120 A 
BRANCH  22   2
ATOM      2  O   UNL     1     -14.417   6.631  21.915  0.00  0.00    -0.495 OA
ATOM     27  C   UNL     1     -14.844   5.269  21.973  0.00  0.00    +0.277 C 
ENDBRANCH  22   2
ENDBRANCH  13  15
ENDBRANCH   5  13
ENDBRANCH  14   9
TORSDOF 9
ENDMDL
MODEL 9
REMARK VINA RESULT:      -5.6     24.039     27.568
REMARK  Name = 45783540
REMARK  11 active torsions:
REMARK  status: ('A' for Active; 'I' for Inactive)
REMARK    1  A    between atoms: O_2  and  C_22
REMARK    2  A    between atoms: O_2  and  C_27
REMARK    3  A    between atoms: O_3  and  C_26
REMARK    4  A    between atoms: O_3  and  C_28
REMARK    5  A    between atoms: O_4  and  C_29
REMARK    6  A    between atoms: O_4  and  C_30
REMARK    7  A    between atoms: N_5  and  C_13
REMARK    8  A    between atoms: C_9  and  C_14
REMARK    9  A    between atoms: C_13  and  C_15
REMARK   10  A    between atoms: C_18  and  C_21
REMARK   11  A    between atoms: C_28  and  C_29
REMARK                            x       y       z     vdW  Elec       q    Type
REMARK                         _______ _______ _______ _____ _____    ______ ____
ROOT
ATOM      1  O   UNL     1      10.932   7.083   3.998  0.00  0.00    -0.336 OA
ATOM      6  N   UNL     1      10.768   4.861   3.757  0.00  0.00    -0.190 NA
ATOM      7  N   UNL     1      11.340   6.801   2.688  0.00  0.00    -0.056 NA
ATOM     14  C   UNL     1      10.613   5.886   4.558  0.00  0.00    +0.245 A 
ATOM     18  C   UNL     1      11.215   5.472   2.622  0.00  0.00    +0.204 A 
ENDROOT
BRANCH  18  21
ATOM      8  N   UNL     1      10.856   3.925  -0.740  0.00  0.00    -0.221 NA
ATOM     21  C   UNL     1      11.531   4.725   1.439  0.00  0.00    +0.041 A 
ATOM     23  C   UNL     1      12.760   4.089   1.300  0.00  0.00    +0.018 A 
ATOM     24  C   UNL     1      10.622   4.614   0.399  0.00  0.00    +0.126 A 
ATOM     25  C   UNL     1      13.038   3.371   0.142  0.00  0.00    +0.068 A 
ATOM     26  C   UNL     1      12.061   3.320  -0.839  0.00  0.00    +0.215 A 
BRANCH  26   3
ATOM      3  O   UNL     1      12.310   2.619  -1.990  0.00  0.00    -0.474 OA
BRANCH   3  28
ATOM     28  C   UNL     1      11.211   2.423  -2.872  0.00  0.00    +0.258 C 
BRANCH  28  29
ATOM     29  C   UNL     1      11.560   2.995  -4.232  0.00  0.00    +0.200 C 
BRANCH  29   4
ATOM      4  O   UNL     1      12.446   4.094  -4.061  0.00  0.00    -0.380 OA
ATOM     30  C   UNL     1      13.374   4.187  -5.132  0.00  0.00    +0.194 C 
ENDBRANCH  29   4
ENDBRANCH  28  29
ENDBRANCH   3  28
ENDBRANCH  26   3
ENDBRANCH  18  21
BRANCH  14   9
ATOM      5  N   UNL     1      10.770   6.997   6.779  0.00  0.00    -0.287 NA
ATOM      9  C   UNL     1      10.135   5.919   5.994  0.00  0.00    +0.146 C 
ATOM     10  C   UNL     1       8.623   6.190   6.110  0.00  0.00    +0.030 C 
ATOM     11  C   UNL     1       8.505   7.399   7.028  0.00  0.00    +0.017 C 
ATOM     12  C   UNL     1       9.804   7.383   7.807  0.00  0.00    +0.085 C 
BRANCH   5  13
ATOM     13  C   UNL     1      12.054   6.611   7.350  0.00  0.00    +0.120 C 
BRANCH  13  15
ATOM     15  C   UNL     1      13.150   7.568   6.962  0.00  0.00    -0.033 A 
ATOM     16  C   UNL     1      14.407   7.081   6.603  0.00  0.00    +0.008 A 
ATOM     17  C   UNL     1      12.908   8.941   6.962  0.00  0.00    +0.008 A 
ATOM     19  C   UNL     1      15.422   7.969   6.245  0.00  0.00    +0.046 A 
ATOM     20  C   UNL     1      13.922   9.829   6.603  0.00  0.00    +0.046 A 
ATOM     22  C   UNL     1      15.179   9.342   6.245  0.00  0.00    +0.120 A 
BRANCH  22   2
ATOM      2  O   UNL     1      16.170  10.207   5.894  0.00  0.00    -0.495 OA
ATOM     27  C   UNL     1      17.389   9.639   5.416  0.00  0.00    +0.277 C 
ENDBRANCH  22   2
ENDBRANCH  13  15
ENDBRANCH   5  13
ENDBRANCH  14   9
TORSDOF 9
ENDMDL
MODEL 10
REMARK VINA RESULT:      -5.6     28.573     31.796
REMARK  Name = 45783540
REMARK  11 active torsions:
REMARK  status: ('A' for Active; 'I' for Inactive)
REMARK    1  A    between atoms: O_2  and  C_22
REMARK    2  A    between atoms: O_2  and  C_27
REMARK    3  A    between atoms: O_3  and  C_26
REMARK    4  A    between atoms: O_3  and  C_28
REMARK    5  A    between atoms: O_4  and  C_29
REMARK    6  A    between atoms: O_4  and  C_30
REMARK    7  A    between atoms: N_5  and  C_13
REMARK    8  A    between atoms: C_9  and  C_14
REMARK    9  A    between atoms: C_13  and  C_15
REMARK   10  A    between atoms: C_18  and  C_21
REMARK   11  A    between atoms: C_28  and  C_29
REMARK                            x       y       z     vdW  Elec       q    Type
REMARK                         _______ _______ _______ _____ _____    ______ ____
ROOT
ATOM      1  O   UNL     1      20.960   5.680  22.738  0.00  0.00    -0.336 OA
ATOM      6  N   UNL     1      20.459   5.193  20.609  0.00  0.00    -0.190 NA
ATOM      7  N   UNL     1      19.686   6.215  22.505  0.00  0.00    -0.056 NA
ATOM     14  C   UNL     1      21.342   5.097  21.572  0.00  0.00    +0.245 A 
ATOM     18  C   UNL     1      19.461   5.888  21.229  0.00  0.00    +0.204 A 
ENDROOT
BRANCH  18  21
ATOM      8  N   UNL     1      16.720   5.839  18.717  0.00  0.00    -0.221 NA
ATOM     21  C   UNL     1      18.250   6.239  20.545  0.00  0.00    +0.041 A 
ATOM     23  C   UNL     1      17.445   7.277  21.002  0.00  0.00    +0.018 A 
ATOM     24  C   UNL     1      17.847   5.557  19.408  0.00  0.00    +0.126 A 
ATOM     25  C   UNL     1      16.277   7.597  20.317  0.00  0.00    +0.068 A 
ATOM     26  C   UNL     1      15.962   6.854  19.190  0.00  0.00    +0.215 A 
BRANCH  26   3
ATOM      3  O   UNL     1      14.817   7.149  18.498  0.00  0.00    -0.474 OA
BRANCH   3  28
ATOM     28  C   UNL     1      13.831   7.911  19.186  0.00  0.00    +0.258 C 
BRANCH  28  29
ATOM     29  C   UNL     1      12.484   7.235  19.027  0.00  0.00    +0.200 C 
BRANCH  29   4
ATOM      4  O   UNL     1      12.120   7.240  17.652  0.00  0.00    -0.380 OA
ATOM     30  C   UNL     1      11.512   8.469  17.279  0.00  0.00    +0.194 C 
ENDBRANCH  29   4
ENDBRANCH  28  29
ENDBRANCH   3  28
ENDBRANCH  26   3
ENDBRANCH  18  21
BRANCH  14   9
ATOM      5  N   UNL     1      23.756   5.295  22.140  0.00  0.00    -0.287 NA
ATOM      9  C   UNL     1      22.703   4.435  21.563  0.00  0.00    +0.146 C 
ATOM     10  C   UNL     1      22.744   3.148  22.407  0.00  0.00    +0.030 C 
ATOM     11  C   UNL     1      23.888   3.353  23.390  0.00  0.00    +0.017 C 
ATOM     12  C   UNL     1      24.756   4.395  22.714  0.00  0.00    +0.085 C 
BRANCH   5  13
ATOM     13  C   UNL     1      24.339   6.217  21.173  0.00  0.00    +0.120 C 
BRANCH  13  15
ATOM     15  C   UNL     1      23.674   7.567  21.214  0.00  0.00    -0.033 A 
ATOM     16  C   UNL     1      23.655   8.300  22.400  0.00  0.00    +0.008 A 
ATOM     17  C   UNL     1      23.077   8.084  20.064  0.00  0.00    +0.008 A 
ATOM     19  C   UNL     1      23.037   9.550  22.437  0.00  0.00    +0.046 A 
ATOM     20  C   UNL     1      22.460   9.335  20.100  0.00  0.00    +0.046 A 
ATOM     22  C   UNL     1      22.441  10.068  21.287  0.00  0.00    +0.120 A 
BRANCH  22   2
ATOM      2  O   UNL     1      21.840  11.288  21.323  0.00  0.00    -0.495 OA
ATOM     27  C   UNL     1      22.674  12.415  21.598  0.00  0.00    +0.277 C 
ENDBRANCH  22   2
ENDBRANCH  13  15
ENDBRANCH   5  13
ENDBRANCH  14   9
TORSDOF 9
ENDMDL
