MODEL 1
REMARK VINA RESULT:      -6.2      0.000      0.000
REMARK  Name = 71693482
REMARK  11 active torsions:
REMARK  status: ('A' for Active; 'I' for Inactive)
REMARK    1  A    between atoms: O_2  and  C_12
REMARK    2  A    between atoms: O_6  and  C_26
REMARK    3  A    between atoms: O_6  and  C_27
REMARK    4  A    between atoms: N_7  and  C_15
REMARK    5  A    between atoms: N_8  and  C_23
REMARK    6  A    between atoms: N_8  and  C_24
REMARK    7  A    between atoms: N_9  and  C_22
REMARK    8  A    between atoms: C_10  and  C_12
REMARK    9  A    between atoms: C_11  and  C_13
REMARK   10  A    between atoms: C_15  and  C_19
REMARK   11  A    between atoms: C_25  and  C_26
REMARK                            x       y       z     vdW  Elec       q    Type
REMARK                         _______ _______ _______ _____ _____    ______ ____
ROOT
ATOM      1  O   UNL     1      13.519   6.578  20.569  0.00  0.00    -0.361 OA
ATOM      3  O   UNL     1      10.543   8.536  20.653  0.00  0.00    -0.273 OA
ATOM      7  N   UNL     1      12.741   9.229  20.301  0.00  0.00    -0.283 N 
ATOM     10  C   UNL     1      14.176   8.862  20.227  0.00  0.00    +0.135 C 
ATOM     11  C   UNL     1      14.356   7.404  19.761  0.00  0.00    +0.171 C 
ATOM     14  C   UNL     1      11.732   8.276  20.460  0.00  0.00    +0.242 C 
ATOM     16  C   UNL     1      12.160   6.829  20.305  0.00  0.00    +0.256 C 
ENDROOT
BRANCH  11  13
ATOM     13  C   UNL     1      15.768   6.876  19.899  0.00  0.00    -0.017 A 
ATOM     17  C   UNL     1      16.369   6.204  18.835  0.00  0.00    +0.008 A 
ATOM     18  C   UNL     1      16.468   7.063  21.091  0.00  0.00    +0.008 A 
ATOM     20  C   UNL     1      17.671   5.718  18.963  0.00  0.00    +0.023 A 
ATOM     21  C   UNL     1      17.770   6.577  21.219  0.00  0.00    +0.023 A 
ATOM     22  C   UNL     1      18.371   5.905  20.155  0.00  0.00    +0.033 A 
BRANCH  22   9
ATOM      5  O   UNL     1      20.971   7.369  20.537  0.00  0.00    -0.273 OA
ATOM      9  N   UNL     1      19.673   5.420  20.283  0.00  0.00    -0.284 N 
ATOM     25  C   UNL     1      20.855   6.150  20.463  0.00  0.00    +0.243 C 
ATOM     29  H   UNL     1      19.765   4.406  20.240  0.00  0.00    +0.155 HD
BRANCH  25  26
ATOM     26  C   UNL     1      22.071   5.255  20.559  0.00  0.00    +0.255 C 
BRANCH  26   6
ATOM      6  O   UNL     1      21.649   3.945  20.874  0.00  0.00    -0.374 OA
ATOM     27  C   UNL     1      22.265   3.462  22.064  0.00  0.00    +0.194 C 
ENDBRANCH  26   6
ENDBRANCH  25  26
ENDBRANCH  22   9
ENDBRANCH  11  13
BRANCH  10  12
ATOM     12  C   UNL     1      14.981   9.818  19.334  0.00  0.00    +0.181 C 
BRANCH  12   2
ATOM      2  O   UNL     1      14.619   9.576  17.989  0.00  0.00    -0.393 OA
ATOM     28  H   UNL     1      13.930  10.220  17.756  0.00  0.00    +0.209 HD
ENDBRANCH  12   2
ENDBRANCH  10  12
BRANCH   7  15
ATOM     15  C   UNL     1      12.399  10.640  20.457  0.00  0.00    +0.204 C 
BRANCH  15  19
ATOM      4  O   UNL     1      12.274  10.445  22.842  0.00  0.00    -0.274 OA
ATOM      8  N   UNL     1      13.441  12.265  22.002  0.00  0.00    -0.306 N 
ATOM     19  C   UNL     1      12.689  11.092  21.877  0.00  0.00    +0.232 C 
ATOM     23  C   UNL     1      13.801  12.830  23.299  0.00  0.00    +0.131 C 
ATOM     24  C   UNL     1      13.920  13.012  20.845  0.00  0.00    +0.131 C 
ENDBRANCH  15  19
ENDBRANCH   7  15
TORSDOF 8
ENDMDL
MODEL 2
REMARK VINA RESULT:      -5.7     26.665     29.825
REMARK  Name = 71693482
REMARK  11 active torsions:
REMARK  status: ('A' for Active; 'I' for Inactive)
REMARK    1  A    between atoms: O_2  and  C_12
REMARK    2  A    between atoms: O_6  and  C_26
REMARK    3  A    between atoms: O_6  and  C_27
REMARK    4  A    between atoms: N_7  and  C_15
REMARK    5  A    between atoms: N_8  and  C_23
REMARK    6  A    between atoms: N_8  and  C_24
REMARK    7  A    between atoms: N_9  and  C_22
REMARK    8  A    between atoms: C_10  and  C_12
REMARK    9  A    between atoms: C_11  and  C_13
REMARK   10  A    between atoms: C_15  and  C_19
REMARK   11  A    between atoms: C_25  and  C_26
REMARK                            x       y       z     vdW  Elec       q    Type
REMARK                         _______ _______ _______ _____ _____    ______ ____
ROOT
ATOM      1  O   UNL     1     -10.879   8.403  20.062  0.00  0.00    -0.361 OA
ATOM      3  O   UNL     1      -9.791   9.886  17.010  0.00  0.00    -0.273 OA
ATOM      7  N   UNL     1     -11.771   8.739  17.455  0.00  0.00    -0.283 N 
ATOM     10  C   UNL     1     -12.588   7.975  18.430  0.00  0.00    +0.135 C 
ATOM     11  C   UNL     1     -12.294   8.422  19.875  0.00  0.00    +0.171 C 
ATOM     14  C   UNL     1     -10.565   9.350  17.806  0.00  0.00    +0.242 C 
ATOM     16  C   UNL     1     -10.257   9.401  19.290  0.00  0.00    +0.256 C 
ENDROOT
BRANCH  11  13
ATOM     13  C   UNL     1     -12.894   7.526  20.938  0.00  0.00    -0.017 A 
ATOM     17  C   UNL     1     -12.377   6.248  21.147  0.00  0.00    +0.008 A 
ATOM     18  C   UNL     1     -13.965   7.980  21.708  0.00  0.00    +0.008 A 
ATOM     20  C   UNL     1     -12.930   5.423  22.126  0.00  0.00    +0.023 A 
ATOM     21  C   UNL     1     -14.518   7.155  22.688  0.00  0.00    +0.023 A 
ATOM     22  C   UNL     1     -14.000   5.877  22.897  0.00  0.00    +0.033 A 
BRANCH  22   9
ATOM      5  O   UNL     1     -15.990   3.632  22.666  0.00  0.00    -0.273 OA
ATOM      9  N   UNL     1     -14.553   5.052  23.877  0.00  0.00    -0.284 N 
ATOM     25  C   UNL     1     -15.478   4.013  23.714  0.00  0.00    +0.243 C 
ATOM     29  H   UNL     1     -14.235   5.234  24.828  0.00  0.00    +0.155 HD
BRANCH  25  26
ATOM     26  C   UNL     1     -15.834   3.351  25.027  0.00  0.00    +0.255 C 
BRANCH  26   6
ATOM      6  O   UNL     1     -16.069   1.978  24.796  0.00  0.00    -0.374 OA
ATOM     27  C   UNL     1     -16.744   1.365  25.890  0.00  0.00    +0.194 C 
ENDBRANCH  26   6
ENDBRANCH  25  26
ENDBRANCH  22   9
ENDBRANCH  11  13
BRANCH  10  12
ATOM     12  C   UNL     1     -14.092   8.063  18.132  0.00  0.00    +0.181 C 
BRANCH  12   2
ATOM      2  O   UNL     1     -14.529   9.370  18.450  0.00  0.00    -0.393 OA
ATOM     28  H   UNL     1     -14.174   9.966  17.769  0.00  0.00    +0.209 HD
ENDBRANCH  12   2
ENDBRANCH  10  12
BRANCH   7  15
ATOM     15  C   UNL     1     -12.119   8.641  16.040  0.00  0.00    +0.204 C 
BRANCH  15  19
ATOM      4  O   UNL     1     -13.112  10.809  16.283  0.00  0.00    -0.274 OA
ATOM      8  N   UNL     1     -12.370  10.231  14.163  0.00  0.00    -0.306 N 
ATOM     19  C   UNL     1     -12.582   9.992  15.525  0.00  0.00    +0.232 C 
ATOM     23  C   UNL     1     -12.761  11.480  13.516  0.00  0.00    +0.131 C 
ATOM     24  C   UNL     1     -11.741   9.249  13.287  0.00  0.00    +0.131 C 
ENDBRANCH  15  19
ENDBRANCH   7  15
TORSDOF 8
ENDMDL
MODEL 3
REMARK VINA RESULT:      -5.5     17.616     20.170
REMARK  Name = 71693482
REMARK  11 active torsions:
REMARK  status: ('A' for Active; 'I' for Inactive)
REMARK    1  A    between atoms: O_2  and  C_12
REMARK    2  A    between atoms: O_6  and  C_26
REMARK    3  A    between atoms: O_6  and  C_27
REMARK    4  A    between atoms: N_7  and  C_15
REMARK    5  A    between atoms: N_8  and  C_23
REMARK    6  A    between atoms: N_8  and  C_24
REMARK    7  A    between atoms: N_9  and  C_22
REMARK    8  A    between atoms: C_10  and  C_12
REMARK    9  A    between atoms: C_11  and  C_13
REMARK   10  A    between atoms: C_15  and  C_19
REMARK   11  A    between atoms: C_25  and  C_26
REMARK                            x       y       z     vdW  Elec       q    Type
REMARK                         _______ _______ _______ _____ _____    ______ ____
ROOT
ATOM      1  O   UNL     1      11.868   5.656  -0.036  0.00  0.00    -0.361 OA
ATOM      3  O   UNL     1      13.932   5.094  -2.885  0.00  0.00    -0.273 OA
ATOM      7  N   UNL     1      14.332   4.540  -0.656  0.00  0.00    -0.283 N 
ATOM     10  C   UNL     1      13.870   4.591   0.753  0.00  0.00    +0.135 C 
ATOM     11  C   UNL     1      12.332   4.624   0.834  0.00  0.00    +0.171 C 
ATOM     14  C   UNL     1      13.548   4.997  -1.718  0.00  0.00    +0.242 C 
ATOM     16  C   UNL     1      12.106   5.322  -1.382  0.00  0.00    +0.256 C 
ENDROOT
BRANCH  11  13
ATOM     13  C   UNL     1      11.789   4.930   2.214  0.00  0.00    -0.017 A 
ATOM     17  C   UNL     1      12.065   6.157   2.817  0.00  0.00    +0.008 A 
ATOM     18  C   UNL     1      11.012   3.983   2.883  0.00  0.00    +0.008 A 
ATOM     20  C   UNL     1      11.564   6.438   4.088  0.00  0.00    +0.023 A 
ATOM     21  C   UNL     1      10.511   4.264   4.154  0.00  0.00    +0.023 A 
ATOM     22  C   UNL     1      10.787   5.491   4.757  0.00  0.00    +0.033 A 
BRANCH  22   9
ATOM      5  O   UNL     1      12.207   6.314   7.278  0.00  0.00    -0.273 OA
ATOM      9  N   UNL     1      10.285   5.773   6.027  0.00  0.00    -0.284 N 
ATOM     25  C   UNL     1      10.994   6.157   7.173  0.00  0.00    +0.243 C 
ATOM     29  H   UNL     1       9.275   5.688   6.124  0.00  0.00    +0.155 HD
BRANCH  25  26
ATOM     26  C   UNL     1      10.086   6.373   8.364  0.00  0.00    +0.255 C 
BRANCH  26   6
ATOM      6  O   UNL     1      10.405   5.421   9.358  0.00  0.00    -0.374 OA
ATOM     27  C   UNL     1       9.255   4.700   9.789  0.00  0.00    +0.194 C 
ENDBRANCH  26   6
ENDBRANCH  25  26
ENDBRANCH  22   9
ENDBRANCH  11  13
BRANCH  10  12
ATOM     12  C   UNL     1      14.432   3.438   1.596  0.00  0.00    +0.181 C 
BRANCH  12   2
ATOM      2  O   UNL     1      15.384   3.971   2.495  0.00  0.00    -0.393 OA
ATOM     28  H   UNL     1      16.264   3.774   2.133  0.00  0.00    +0.209 HD
ENDBRANCH  12   2
ENDBRANCH  10  12
BRANCH   7  15
ATOM     15  C   UNL     1      15.736   4.227  -0.909  0.00  0.00    +0.204 C 
BRANCH  15  19
ATOM      4  O   UNL     1      16.517   6.138   0.307  0.00  0.00    -0.274 OA
ATOM      8  N   UNL     1      17.428   5.796  -1.798  0.00  0.00    -0.306 N 
ATOM     19  C   UNL     1      16.586   5.472  -0.728  0.00  0.00    +0.232 C 
ATOM     23  C   UNL     1      18.306   6.963  -1.778  0.00  0.00    +0.131 C 
ATOM     24  C   UNL     1      17.492   4.992  -3.013  0.00  0.00    +0.131 C 
ENDBRANCH  15  19
ENDBRANCH   7  15
TORSDOF 8
ENDMDL
MODEL 4
REMARK VINA RESULT:      -5.3     17.009     19.036
REMARK  Name = 71693482
REMARK  11 active torsions:
REMARK  status: ('A' for Active; 'I' for Inactive)
REMARK    1  A    between atoms: O_2  and  C_12
REMARK    2  A    between atoms: O_6  and  C_26
REMARK    3  A    between atoms: O_6  and  C_27
REMARK    4  A    between atoms: N_7  and  C_15
REMARK    5  A    between atoms: N_8  and  C_23
REMARK    6  A    between atoms: N_8  and  C_24
REMARK    7  A    between atoms: N_9  and  C_22
REMARK    8  A    between atoms: C_10  and  C_12
REMARK    9  A    between atoms: C_11  and  C_13
REMARK   10  A    between atoms: C_15  and  C_19
REMARK   11  A    between atoms: C_25  and  C_26
REMARK                            x       y       z     vdW  Elec       q    Type
REMARK                         _______ _______ _______ _____ _____    ______ ____
ROOT
ATOM      1  O   UNL     1       9.621   5.322   5.057  0.00  0.00    -0.361 OA
ATOM      3  O   UNL     1      10.659   6.264   8.332  0.00  0.00    -0.273 OA
ATOM      7  N   UNL     1      11.780   6.539   6.307  0.00  0.00    -0.283 N 
ATOM     10  C   UNL     1      11.801   6.306   4.842  0.00  0.00    +0.135 C 
ATOM     11  C   UNL     1      10.373   6.243   4.267  0.00  0.00    +0.171 C 
ATOM     14  C   UNL     1      10.679   6.208   7.101  0.00  0.00    +0.242 C 
ATOM     16  C   UNL     1       9.417   5.825   6.355  0.00  0.00    +0.256 C 
ENDROOT
BRANCH  11  13
ATOM     13  C   UNL     1      10.301   5.761   2.833  0.00  0.00    -0.017 A 
ATOM     17  C   UNL     1      10.649   4.447   2.521  0.00  0.00    +0.008 A 
ATOM     18  C   UNL     1       9.885   6.631   1.825  0.00  0.00    +0.008 A 
ATOM     20  C   UNL     1      10.581   4.003   1.200  0.00  0.00    +0.023 A 
ATOM     21  C   UNL     1       9.818   6.187   0.504  0.00  0.00    +0.023 A 
ATOM     22  C   UNL     1      10.166   4.872   0.192  0.00  0.00    +0.033 A 
BRANCH  22   9
ATOM      5  O   UNL     1      12.345   3.990  -1.686  0.00  0.00    -0.273 OA
ATOM      9  N   UNL     1      10.098   4.428  -1.128  0.00  0.00    -0.284 N 
ATOM     25  C   UNL     1      11.149   4.023  -1.961  0.00  0.00    +0.243 C 
ATOM     29  H   UNL     1       9.161   4.394  -1.528  0.00  0.00    +0.155 HD
BRANCH  25  26
ATOM     26  C   UNL     1      10.665   3.607  -3.333  0.00  0.00    +0.255 C 
BRANCH  26   6
ATOM      6  O   UNL     1       9.370   3.057  -3.212  0.00  0.00    -0.374 OA
ATOM     27  C   UNL     1       9.338   1.688  -3.605  0.00  0.00    +0.194 C 
ENDBRANCH  26   6
ENDBRANCH  25  26
ENDBRANCH  22   9
ENDBRANCH  11  13
BRANCH  10  12
ATOM     12  C   UNL     1      12.640   7.352   4.094  0.00  0.00    +0.181 C 
BRANCH  12   2
ATOM      2  O   UNL     1      13.720   6.686   3.470  0.00  0.00    -0.393 OA
ATOM     28  H   UNL     1      13.386   6.311   2.639  0.00  0.00    +0.209 HD
ENDBRANCH  12   2
ENDBRANCH  10  12
BRANCH   7  15
ATOM     15  C   UNL     1      13.033   6.899   6.965  0.00  0.00    +0.204 C 
BRANCH  15  19
ATOM      4  O   UNL     1      12.250   9.136   7.322  0.00  0.00    -0.274 OA
ATOM      8  N   UNL     1      14.448   8.897   6.620  0.00  0.00    -0.306 N 
ATOM     19  C   UNL     1      13.190   8.409   6.991  0.00  0.00    +0.232 C 
ATOM     23  C   UNL     1      14.757  10.324   6.592  0.00  0.00    +0.131 C 
ATOM     24  C   UNL     1      15.544   8.017   6.232  0.00  0.00    +0.131 C 
ENDBRANCH  15  19
ENDBRANCH   7  15
TORSDOF 8
ENDMDL
MODEL 5
REMARK VINA RESULT:      -5.3     28.023     30.422
REMARK  Name = 71693482
REMARK  11 active torsions:
REMARK  status: ('A' for Active; 'I' for Inactive)
REMARK    1  A    between atoms: O_2  and  C_12
REMARK    2  A    between atoms: O_6  and  C_26
REMARK    3  A    between atoms: O_6  and  C_27
REMARK    4  A    between atoms: N_7  and  C_15
REMARK    5  A    between atoms: N_8  and  C_23
REMARK    6  A    between atoms: N_8  and  C_24
REMARK    7  A    between atoms: N_9  and  C_22
REMARK    8  A    between atoms: C_10  and  C_12
REMARK    9  A    between atoms: C_11  and  C_13
REMARK   10  A    between atoms: C_15  and  C_19
REMARK   11  A    between atoms: C_25  and  C_26
REMARK                            x       y       z     vdW  Elec       q    Type
REMARK                         _______ _______ _______ _____ _____    ______ ____
ROOT
ATOM      1  O   UNL     1      -8.098  -9.324  16.262  0.00  0.00    -0.361 OA
ATOM      3  O   UNL     1     -11.179  -8.489  17.844  0.00  0.00    -0.273 OA
ATOM      7  N   UNL     1      -9.615 -10.108  18.450  0.00  0.00    -0.283 N 
ATOM     10  C   UNL     1      -8.343 -10.804  18.136  0.00  0.00    +0.135 C 
ATOM     11  C   UNL     1      -7.380  -9.885  17.361  0.00  0.00    +0.171 C 
ATOM     14  C   UNL     1     -10.075  -9.020  17.705  0.00  0.00    +0.242 C 
ATOM     16  C   UNL     1      -9.090  -8.434  16.713  0.00  0.00    +0.256 C 
ENDROOT
BRANCH  11  13
ATOM     13  C   UNL     1      -6.171 -10.593  16.786  0.00  0.00    -0.017 A 
ATOM     17  C   UNL     1      -6.341 -11.697  15.952  0.00  0.00    +0.008 A 
ATOM     18  C   UNL     1      -4.888 -10.140  17.092  0.00  0.00    +0.008 A 
ATOM     20  C   UNL     1      -5.226 -12.349  15.422  0.00  0.00    +0.023 A 
ATOM     21  C   UNL     1      -3.774 -10.791  16.562  0.00  0.00    +0.023 A 
ATOM     22  C   UNL     1      -3.943 -11.896  15.728  0.00  0.00    +0.033 A 
BRANCH  22   9
ATOM      5  O   UNL     1      -2.736 -11.771  12.975  0.00  0.00    -0.273 OA
ATOM      9  N   UNL     1      -2.829 -12.547  15.197  0.00  0.00    -0.284 N 
ATOM     25  C   UNL     1      -2.305 -12.450  13.902  0.00  0.00    +0.243 C 
ATOM     29  H   UNL     1      -2.341 -13.167  15.841  0.00  0.00    +0.155 HD
BRANCH  25  26
ATOM     26  C   UNL     1      -1.079 -13.318  13.714  0.00  0.00    +0.255 C 
BRANCH  26   6
ATOM      6  O   UNL     1      -1.480 -14.672  13.688  0.00  0.00    -0.374 OA
ATOM     27  C   UNL     1      -0.403 -15.536  13.339  0.00  0.00    +0.194 C 
ENDBRANCH  26   6
ENDBRANCH  25  26
ENDBRANCH  22   9
ENDBRANCH  11  13
BRANCH  10  12
ATOM     12  C   UNL     1      -7.659 -11.370  19.389  0.00  0.00    +0.181 C 
BRANCH  12   2
ATOM      2  O   UNL     1      -7.062 -10.297  20.089  0.00  0.00    -0.393 OA
ATOM     28  H   UNL     1      -6.905 -10.597  20.999  0.00  0.00    +0.209 HD
ENDBRANCH  12   2
ENDBRANCH  10  12
BRANCH   7  15
ATOM     15  C   UNL     1     -10.522 -10.730  19.410  0.00  0.00    +0.204 C 
BRANCH  15  19
ATOM      4  O   UNL     1     -11.750 -11.836  17.674  0.00  0.00    -0.274 OA
ATOM      8  N   UNL     1     -11.171 -13.114  19.522  0.00  0.00    -0.306 N 
ATOM     19  C   UNL     1     -11.205 -11.930  18.777  0.00  0.00    +0.232 C 
ATOM     23  C   UNL     1     -11.784 -14.353  19.050  0.00  0.00    +0.131 C 
ATOM     24  C   UNL     1     -10.521 -13.199  20.824  0.00  0.00    +0.131 C 
ENDBRANCH  15  19
ENDBRANCH   7  15
TORSDOF 8
ENDMDL
MODEL 6
REMARK VINA RESULT:      -5.2     17.482     19.395
REMARK  Name = 71693482
REMARK  11 active torsions:
REMARK  status: ('A' for Active; 'I' for Inactive)
REMARK    1  A    between atoms: O_2  and  C_12
REMARK    2  A    between atoms: O_6  and  C_26
REMARK    3  A    between atoms: O_6  and  C_27
REMARK    4  A    between atoms: N_7  and  C_15
REMARK    5  A    between atoms: N_8  and  C_23
REMARK    6  A    between atoms: N_8  and  C_24
REMARK    7  A    between atoms: N_9  and  C_22
REMARK    8  A    between atoms: C_10  and  C_12
REMARK    9  A    between atoms: C_11  and  C_13
REMARK   10  A    between atoms: C_15  and  C_19
REMARK   11  A    between atoms: C_25  and  C_26
REMARK                            x       y       z     vdW  Elec       q    Type
REMARK                         _______ _______ _______ _____ _____    ______ ____
ROOT
ATOM      1  O   UNL     1      10.486   4.288   4.438  0.00  0.00    -0.361 OA
ATOM      3  O   UNL     1      10.205   5.855   7.625  0.00  0.00    -0.273 OA
ATOM      7  N   UNL     1      11.180   6.675   5.672  0.00  0.00    -0.283 N 
ATOM     10  C   UNL     1      11.556   6.430   4.259  0.00  0.00    +0.135 C 
ATOM     11  C   UNL     1      10.592   5.431   3.590  0.00  0.00    +0.171 C 
ATOM     14  C   UNL     1      10.435   5.758   6.418  0.00  0.00    +0.242 C 
ATOM     16  C   UNL     1       9.824   4.612   5.636  0.00  0.00    +0.256 C 
ENDROOT
BRANCH  11  13
ATOM     13  C   UNL     1      11.050   4.937   2.234  0.00  0.00    -0.017 A 
ATOM     17  C   UNL     1      10.366   5.324   1.082  0.00  0.00    +0.008 A 
ATOM     18  C   UNL     1      12.158   4.095   2.137  0.00  0.00    +0.008 A 
ATOM     20  C   UNL     1      10.789   4.870  -0.167  0.00  0.00    +0.023 A 
ATOM     21  C   UNL     1      12.581   3.640   0.888  0.00  0.00    +0.023 A 
ATOM     22  C   UNL     1      11.897   4.027  -0.264  0.00  0.00    +0.033 A 
BRANCH  22   9
ATOM      5  O   UNL     1      10.504   2.285  -2.283  0.00  0.00    -0.273 OA
ATOM      9  N   UNL     1      12.320   3.573  -1.513  0.00  0.00    -0.284 N 
ATOM     25  C   UNL     1      11.626   2.762  -2.420  0.00  0.00    +0.243 C 
ATOM     29  H   UNL     1      13.251   3.877  -1.793  0.00  0.00    +0.155 HD
BRANCH  25  26
ATOM     26  C   UNL     1      12.428   2.489  -3.674  0.00  0.00    +0.255 C 
BRANCH  26   6
ATOM      6  O   UNL     1      12.759   3.721  -4.280  0.00  0.00    -0.374 OA
ATOM     27  C   UNL     1      11.683   4.231  -5.062  0.00  0.00    +0.194 C 
ENDBRANCH  26   6
ENDBRANCH  25  26
ENDBRANCH  22   9
ENDBRANCH  11  13
BRANCH  10  12
ATOM     12  C   UNL     1      11.644   7.727   3.442  0.00  0.00    +0.181 C 
BRANCH  12   2
ATOM      2  O   UNL     1      12.922   7.783   2.839  0.00  0.00    -0.393 OA
ATOM     28  H   UNL     1      12.905   7.187   2.072  0.00  0.00    +0.209 HD
ENDBRANCH  12   2
ENDBRANCH  10  12
BRANCH   7  15
ATOM     15  C   UNL     1      11.811   7.792   6.369  0.00  0.00    +0.204 C 
BRANCH  15  19
ATOM      4  O   UNL     1      13.638   6.444   7.138  0.00  0.00    -0.274 OA
ATOM      8  N   UNL     1      14.178   8.481   6.168  0.00  0.00    -0.306 N 
ATOM     19  C   UNL     1      13.283   7.496   6.600  0.00  0.00    +0.232 C 
ATOM     23  C   UNL     1      15.624   8.345   6.320  0.00  0.00    +0.131 C 
ATOM     24  C   UNL     1      13.734   9.716   5.535  0.00  0.00    +0.131 C 
ENDBRANCH  15  19
ENDBRANCH   7  15
TORSDOF 8
ENDMDL
MODEL 7
REMARK VINA RESULT:      -5.2     21.861     25.639
REMARK  Name = 71693482
REMARK  11 active torsions:
REMARK  status: ('A' for Active; 'I' for Inactive)
REMARK    1  A    between atoms: O_2  and  C_12
REMARK    2  A    between atoms: O_6  and  C_26
REMARK    3  A    between atoms: O_6  and  C_27
REMARK    4  A    between atoms: N_7  and  C_15
REMARK    5  A    between atoms: N_8  and  C_23
REMARK    6  A    between atoms: N_8  and  C_24
REMARK    7  A    between atoms: N_9  and  C_22
REMARK    8  A    between atoms: C_10  and  C_12
REMARK    9  A    between atoms: C_11  and  C_13
REMARK   10  A    between atoms: C_15  and  C_19
REMARK   11  A    between atoms: C_25  and  C_26
REMARK                            x       y       z     vdW  Elec       q    Type
REMARK                         _______ _______ _______ _____ _____    ______ ____
ROOT
ATOM      1  O   UNL     1      -1.868   9.404   3.591  0.00  0.00    -0.361 OA
ATOM      3  O   UNL     1       0.562  11.920   4.270  0.00  0.00    -0.273 OA
ATOM      7  N   UNL     1      -1.354  11.373   5.480  0.00  0.00    -0.283 N 
ATOM     10  C   UNL     1      -2.577  10.540   5.585  0.00  0.00    +0.135 C 
ATOM     11  C   UNL     1      -2.381   9.172   4.903  0.00  0.00    +0.171 C 
ATOM     14  C   UNL     1      -0.402  11.180   4.476  0.00  0.00    +0.242 C 
ATOM     16  C   UNL     1      -0.560   9.920   3.648  0.00  0.00    +0.256 C 
ENDROOT
BRANCH  11  13
ATOM     13  C   UNL     1      -3.654   8.367   4.746  0.00  0.00    -0.017 A 
ATOM     17  C   UNL     1      -4.762   8.930   4.114  0.00  0.00    +0.008 A 
ATOM     18  C   UNL     1      -3.717   7.062   5.234  0.00  0.00    +0.008 A 
ATOM     20  C   UNL     1      -5.934   8.187   3.969  0.00  0.00    +0.023 A 
ATOM     21  C   UNL     1      -4.889   6.319   5.089  0.00  0.00    +0.023 A 
ATOM     22  C   UNL     1      -5.998   6.882   4.457  0.00  0.00    +0.033 A 
BRANCH  22   9
ATOM      5  O   UNL     1      -8.227   6.350   6.405  0.00  0.00    -0.273 OA
ATOM      9  N   UNL     1      -7.169   6.139   4.311  0.00  0.00    -0.284 N 
ATOM     25  C   UNL     1      -8.182   5.925   5.255  0.00  0.00    +0.243 C 
ATOM     29  H   UNL     1      -7.297   5.703   3.399  0.00  0.00    +0.155 HD
BRANCH  25  26
ATOM     26  C   UNL     1      -9.297   5.058   4.712  0.00  0.00    +0.255 C 
BRANCH  26   6
ATOM      6  O   UNL     1      -9.368   5.231   3.312  0.00  0.00    -0.374 OA
ATOM     27  C   UNL     1     -10.691   5.536   2.882  0.00  0.00    +0.194 C 
ENDBRANCH  26   6
ENDBRANCH  25  26
ENDBRANCH  22   9
ENDBRANCH  11  13
BRANCH  10  12
ATOM     12  C   UNL     1      -3.040  10.359   7.037  0.00  0.00    +0.181 C 
BRANCH  12   2
ATOM      2  O   UNL     1      -2.082   9.568   7.711  0.00  0.00    -0.393 OA
ATOM     28  H   UNL     1      -1.217   9.990   7.581  0.00  0.00    +0.209 HD
ENDBRANCH  12   2
ENDBRANCH  10  12
BRANCH   7  15
ATOM     15  C   UNL     1      -1.269  12.577   6.301  0.00  0.00    +0.204 C 
BRANCH  15  19
ATOM      4  O   UNL     1       0.054  11.461   7.959  0.00  0.00    -0.274 OA
ATOM      8  N   UNL     1       0.766  13.567   7.297  0.00  0.00    -0.306 N 
ATOM     19  C   UNL     1      -0.098  12.468   7.262  0.00  0.00    +0.232 C 
ATOM     23  C   UNL     1       1.936  13.616   8.170  0.00  0.00    +0.131 C 
ATOM     24  C   UNL     1       0.564  14.746   6.464  0.00  0.00    +0.131 C 
ENDBRANCH  15  19
ENDBRANCH   7  15
TORSDOF 8
ENDMDL
MODEL 8
REMARK VINA RESULT:      -5.2     29.028     32.155
REMARK  Name = 71693482
REMARK  11 active torsions:
REMARK  status: ('A' for Active; 'I' for Inactive)
REMARK    1  A    between atoms: O_2  and  C_12
REMARK    2  A    between atoms: O_6  and  C_26
REMARK    3  A    between atoms: O_6  and  C_27
REMARK    4  A    between atoms: N_7  and  C_15
REMARK    5  A    between atoms: N_8  and  C_23
REMARK    6  A    between atoms: N_8  and  C_24
REMARK    7  A    between atoms: N_9  and  C_22
REMARK    8  A    between atoms: C_10  and  C_12
REMARK    9  A    between atoms: C_11  and  C_13
REMARK   10  A    between atoms: C_15  and  C_19
REMARK   11  A    between atoms: C_25  and  C_26
REMARK                            x       y       z     vdW  Elec       q    Type
REMARK                         _______ _______ _______ _____ _____    ______ ____
ROOT
ATOM      1  O   UNL     1     -11.384 -10.238  18.671  0.00  0.00    -0.361 OA
ATOM      3  O   UNL     1      -9.855 -12.914  20.458  0.00  0.00    -0.273 OA
ATOM      7  N   UNL     1      -9.025 -11.701  18.649  0.00  0.00    -0.283 N 
ATOM     10  C   UNL     1      -9.258 -10.646  17.632  0.00  0.00    +0.135 C 
ATOM     11  C   UNL     1     -10.231  -9.573  18.155  0.00  0.00    +0.171 C 
ATOM     14  C   UNL     1      -9.940 -11.971  19.669  0.00  0.00    +0.242 C 
ATOM     16  C   UNL     1     -11.065 -10.968  19.831  0.00  0.00    +0.256 C 
ENDROOT
BRANCH  11  13
ATOM     13  C   UNL     1     -10.714  -8.603  17.097  0.00  0.00    -0.017 A 
ATOM     17  C   UNL     1     -10.458  -7.239  17.232  0.00  0.00    +0.008 A 
ATOM     18  C   UNL     1     -11.416  -9.075  15.988  0.00  0.00    +0.008 A 
ATOM     20  C   UNL     1     -10.903  -6.346  16.257  0.00  0.00    +0.023 A 
ATOM     21  C   UNL     1     -11.861  -8.182  15.013  0.00  0.00    +0.023 A 
ATOM     22  C   UNL     1     -11.604  -6.817  15.147  0.00  0.00    +0.033 A 
BRANCH  22   9
ATOM      5  O   UNL     1     -14.386  -5.896  14.464  0.00  0.00    -0.273 OA
ATOM      9  N   UNL     1     -12.048  -5.925  14.172  0.00  0.00    -0.284 N 
ATOM     25  C   UNL     1     -13.363  -5.526  13.897  0.00  0.00    +0.243 C 
ATOM     29  H   UNL     1     -11.317  -5.514  13.593  0.00  0.00    +0.155 HD
BRANCH  25  26
ATOM     26  C   UNL     1     -13.434  -4.535  12.755  0.00  0.00    +0.255 C 
BRANCH  26   6
ATOM      6  O   UNL     1     -12.135  -4.043  12.498  0.00  0.00    -0.374 OA
ATOM     27  C   UNL     1     -11.976  -3.656  11.136  0.00  0.00    +0.194 C 
ENDBRANCH  26   6
ENDBRANCH  25  26
ENDBRANCH  22   9
ENDBRANCH  11  13
BRANCH  10  12
ATOM     12  C   UNL     1      -7.951 -10.001  17.147  0.00  0.00    +0.181 C 
BRANCH  12   2
ATOM      2  O   UNL     1      -7.458  -9.172  18.180  0.00  0.00    -0.393 OA
ATOM     28  H   UNL     1      -7.232  -8.316  17.779  0.00  0.00    +0.209 HD
ENDBRANCH  12   2
ENDBRANCH  10  12
BRANCH   7  15
ATOM     15  C   UNL     1      -7.928 -12.639  18.429  0.00  0.00    +0.204 C 
BRANCH  15  19
ATOM      4  O   UNL     1      -6.772 -11.477  20.177  0.00  0.00    -0.274 OA
ATOM      8  N   UNL     1      -5.462 -12.544  18.588  0.00  0.00    -0.306 N 
ATOM     19  C   UNL     1      -6.683 -12.161  19.155  0.00  0.00    +0.232 C 
ATOM     23  C   UNL     1      -4.176 -12.162  19.167  0.00  0.00    +0.131 C 
ATOM     24  C   UNL     1      -5.382 -13.353  17.378  0.00  0.00    +0.131 C 
ENDBRANCH  15  19
ENDBRANCH   7  15
TORSDOF 8
ENDMDL
MODEL 9
REMARK VINA RESULT:      -5.1      2.484      4.653
REMARK  Name = 71693482
REMARK  11 active torsions:
REMARK  status: ('A' for Active; 'I' for Inactive)
REMARK    1  A    between atoms: O_2  and  C_12
REMARK    2  A    between atoms: O_6  and  C_26
REMARK    3  A    between atoms: O_6  and  C_27
REMARK    4  A    between atoms: N_7  and  C_15
REMARK    5  A    between atoms: N_8  and  C_23
REMARK    6  A    between atoms: N_8  and  C_24
REMARK    7  A    between atoms: N_9  and  C_22
REMARK    8  A    between atoms: C_10  and  C_12
REMARK    9  A    between atoms: C_11  and  C_13
REMARK   10  A    between atoms: C_15  and  C_19
REMARK   11  A    between atoms: C_25  and  C_26
REMARK                            x       y       z     vdW  Elec       q    Type
REMARK                         _______ _______ _______ _____ _____    ______ ____
ROOT
ATOM      1  O   UNL     1      18.049   5.302  19.318  0.00  0.00    -0.361 OA
ATOM      3  O   UNL     1      14.797   6.756  19.302  0.00  0.00    -0.273 OA
ATOM      7  N   UNL     1      16.580   7.178  20.743  0.00  0.00    -0.283 N 
ATOM     10  C   UNL     1      17.965   6.845  21.156  0.00  0.00    +0.135 C 
ATOM     11  C   UNL     1      18.796   6.333  19.964  0.00  0.00    +0.171 C 
ATOM     14  C   UNL     1      15.980   6.612  19.616  0.00  0.00    +0.242 C 
ATOM     16  C   UNL     1      16.899   5.828  18.700  0.00  0.00    +0.256 C 
ENDROOT
BRANCH  11  13
ATOM     13  C   UNL     1      20.134   5.738  20.348  0.00  0.00    -0.017 A 
ATOM     17  C   UNL     1      20.247   4.368  20.584  0.00  0.00    +0.008 A 
ATOM     18  C   UNL     1      21.255   6.561  20.465  0.00  0.00    +0.008 A 
ATOM     20  C   UNL     1      21.480   3.820  20.936  0.00  0.00    +0.023 A 
ATOM     21  C   UNL     1      22.488   6.013  20.818  0.00  0.00    +0.023 A 
ATOM     22  C   UNL     1      22.601   4.643  21.054  0.00  0.00    +0.033 A 
BRANCH  22   9
ATOM      5  O   UNL     1      24.783   3.483  19.338  0.00  0.00    -0.273 OA
ATOM      9  N   UNL     1      23.834   4.095  21.406  0.00  0.00    -0.284 N 
ATOM     25  C   UNL     1      24.821   3.568  20.561  0.00  0.00    +0.243 C 
ATOM     29  H   UNL     1      24.035   4.081  22.404  0.00  0.00    +0.155 HD
BRANCH  25  26
ATOM     26  C   UNL     1      26.024   3.067  21.329  0.00  0.00    +0.255 C 
BRANCH  26   6
ATOM      6  O   UNL     1      25.577   2.276  22.411  0.00  0.00    -0.374 OA
ATOM     27  C   UNL     1      25.597   0.888  22.095  0.00  0.00    +0.194 C 
ENDBRANCH  26   6
ENDBRANCH  25  26
ENDBRANCH  22   9
ENDBRANCH  11  13
BRANCH  10  12
ATOM     12  C   UNL     1      18.672   8.023  21.842  0.00  0.00    +0.181 C 
BRANCH  12   2
ATOM      2  O   UNL     1      19.168   7.576  23.088  0.00  0.00    -0.393 OA
ATOM     28  H   UNL     1      19.705   6.784  22.917  0.00  0.00    +0.209 HD
ENDBRANCH  12   2
ENDBRANCH  10  12
BRANCH   7  15
ATOM     15  C   UNL     1      15.745   7.930  21.675  0.00  0.00    +0.204 C 
BRANCH  15  19
ATOM      4  O   UNL     1      16.123   9.985  20.501  0.00  0.00    -0.274 OA
ATOM      8  N   UNL     1      13.935   9.518  21.112  0.00  0.00    -0.306 N 
ATOM     19  C   UNL     1      15.304   9.236  21.039  0.00  0.00    +0.232 C 
ATOM     23  C   UNL     1      13.355  10.734  20.549  0.00  0.00    +0.131 C 
ATOM     24  C   UNL     1      12.986   8.617  21.754  0.00  0.00    +0.131 C 
ENDBRANCH  15  19
ENDBRANCH   7  15
TORSDOF 8
ENDMDL
MODEL 10
REMARK VINA RESULT:      -5.1     26.756     29.970
REMARK  Name = 71693482
REMARK  11 active torsions:
REMARK  status: ('A' for Active; 'I' for Inactive)
REMARK    1  A    between atoms: O_2  and  C_12
REMARK    2  A    between atoms: O_6  and  C_26
REMARK    3  A    between atoms: O_6  and  C_27
REMARK    4  A    between atoms: N_7  and  C_15
REMARK    5  A    between atoms: N_8  and  C_23
REMARK    6  A    between atoms: N_8  and  C_24
REMARK    7  A    between atoms: N_9  and  C_22
REMARK    8  A    between atoms: C_10  and  C_12
REMARK    9  A    between atoms: C_11  and  C_13
REMARK   10  A    between atoms: C_15  and  C_19
REMARK   11  A    between atoms: C_25  and  C_26
REMARK                            x       y       z     vdW  Elec       q    Type
REMARK                         _______ _______ _______ _____ _____    ______ ____
ROOT
ATOM      1  O   UNL     1      -2.377  -9.950  12.891  0.00  0.00    -0.361 OA
ATOM      3  O   UNL     1      -1.877 -10.875  16.295  0.00  0.00    -0.273 OA
ATOM      7  N   UNL     1      -3.694 -11.329  14.907  0.00  0.00    -0.283 N 
ATOM     10  C   UNL     1      -4.338 -11.151  13.583  0.00  0.00    +0.135 C 
ATOM     11  C   UNL     1      -3.287 -10.967  12.472  0.00  0.00    +0.171 C 
ATOM     14  C   UNL     1      -2.406 -10.864  15.182  0.00  0.00    +0.242 C 
ATOM     16  C   UNL     1      -1.608 -10.385  13.985  0.00  0.00    +0.256 C 
ENDROOT
BRANCH  11  13
ATOM     13  C   UNL     1      -3.859 -10.530  11.140  0.00  0.00    -0.017 A 
ATOM     17  C   UNL     1      -4.413  -9.257  11.003  0.00  0.00    +0.008 A 
ATOM     18  C   UNL     1      -3.832 -11.400  10.050  0.00  0.00    +0.008 A 
ATOM     20  C   UNL     1      -4.940  -8.855   9.775  0.00  0.00    +0.023 A 
ATOM     21  C   UNL     1      -4.358 -10.997   8.823  0.00  0.00    +0.023 A 
ATOM     22  C   UNL     1      -4.912  -9.725   8.685  0.00  0.00    +0.033 A 
BRANCH  22   9
ATOM      5  O   UNL     1      -7.752  -9.696   7.692  0.00  0.00    -0.273 OA
ATOM      9  N   UNL     1      -5.438  -9.322   7.458  0.00  0.00    -0.284 N 
ATOM     25  C   UNL     1      -6.777  -9.326   7.046  0.00  0.00    +0.243 C 
ATOM     29  H   UNL     1      -4.755  -8.981   6.783  0.00  0.00    +0.155 HD
BRANCH  25  26
ATOM     26  C   UNL     1      -6.944  -8.809   5.634  0.00  0.00    +0.255 C 
BRANCH  26   6
ATOM      6  O   UNL     1      -7.875  -7.746   5.644  0.00  0.00    -0.374 OA
ATOM     27  C   UNL     1      -8.793  -7.836   4.560  0.00  0.00    +0.194 C 
ENDBRANCH  26   6
ENDBRANCH  25  26
ENDBRANCH  22   9
ENDBRANCH  11  13
BRANCH  10  12
ATOM     12  C   UNL     1      -5.297 -12.299  13.237  0.00  0.00    +0.181 C 
BRANCH  12   2
ATOM      2  O   UNL     1      -4.524 -13.447  12.949  0.00  0.00    -0.393 OA
ATOM     28  H   UNL     1      -4.946 -13.899  12.199  0.00  0.00    +0.209 HD
ENDBRANCH  12   2
ENDBRANCH  10  12
BRANCH   7  15
ATOM     15  C   UNL     1      -4.522 -11.788  16.019  0.00  0.00    +0.204 C 
BRANCH  15  19
ATOM      4  O   UNL     1      -5.008  -9.529  16.654  0.00  0.00    -0.274 OA
ATOM      8  N   UNL     1      -6.780 -11.025  16.681  0.00  0.00    -0.306 N 
ATOM     19  C   UNL     1      -5.442 -10.670  16.478  0.00  0.00    +0.232 C 
ATOM     23  C   UNL     1      -7.787 -10.064  17.123  0.00  0.00    +0.131 C 
ATOM     24  C   UNL     1      -7.268 -12.382  16.466  0.00  0.00    +0.131 C 
ENDBRANCH  15  19
ENDBRANCH   7  15
TORSDOF 8
ENDMDL
