MODEL 1
REMARK VINA RESULT:      -6.4      0.000      0.000
REMARK  Name = 25389078
REMARK  7 active torsions:
REMARK  status: ('A' for Active; 'I' for Inactive)
REMARK    1  A    between atoms: S_1  and  N_6
REMARK    2  A    between atoms: S_1  and  C_25
REMARK    3  A    between atoms: N_5  and  C_24
REMARK    4  A    between atoms: N_6  and  C_16
REMARK    5  A    between atoms: C_9  and  C_15
REMARK    6  A    between atoms: C_10  and  C_16
REMARK    7  A    between atoms: C_18  and  C_19
REMARK                            x       y       z     vdW  Elec       q    Type
REMARK                         _______ _______ _______ _____ _____    ______ ____
ROOT
ATOM      4  N   UNL     1      -6.307 -10.424  17.609  0.00  0.00    -0.297 NA
ATOM      8  C   UNL     1      -4.306 -12.041  17.203  0.00  0.00    +0.002 C 
ATOM      9  C   UNL     1      -4.039 -10.665  16.532  0.00  0.00    +0.055 C 
ATOM     10  C   UNL     1      -6.805 -11.730  17.099  0.00  0.00    +0.072 C 
ATOM     11  C   UNL     1      -5.627 -12.625  16.658  0.00  0.00    +0.024 C 
ATOM     12  C   UNL     1      -5.349  -9.833  16.643  0.00  0.00    +0.094 C 
ATOM     13  C   UNL     1      -4.517 -11.768  18.707  0.00  0.00    +0.019 C 
ATOM     14  C   UNL     1      -5.587 -10.677  18.880  0.00  0.00    +0.085 C 
ENDROOT
BRANCH   9  15
ATOM      5  N   UNL     1      -2.136 -10.485  14.863  0.00  0.00    -0.271 N 
ATOM      7  N   UNL     1      -1.833 -10.504  13.553  0.00  0.00    -0.176 NA
ATOM     15  C   UNL     1      -3.465 -10.652  15.123  0.00  0.00    +0.044 A 
ATOM     17  C   UNL     1      -4.072 -10.789  13.899  0.00  0.00    +0.048 A 
ATOM     19  C   UNL     1      -3.020 -10.691  12.969  0.00  0.00    +0.066 A 
ATOM     24  C   UNL     1      -1.079 -10.297  15.829  0.00  0.00    +0.172 C 
BRANCH  19  18
ATOM     18  C   UNL     1      -3.110 -10.773  11.462  0.00  0.00    +0.040 C 
ATOM     20  C   UNL     1      -4.560 -10.923  10.966  0.00  0.00    +0.010 C 
ATOM     21  C   UNL     1      -2.540  -9.547  10.719  0.00  0.00    +0.010 C 
ATOM     22  C   UNL     1      -4.607 -10.134   9.665  0.00  0.00    +0.001 C 
ATOM     23  C   UNL     1      -3.712  -8.941   9.956  0.00  0.00    +0.001 C 
ENDBRANCH  19  18
ENDBRANCH   9  15
BRANCH  10  16
ATOM     16  C   UNL     1      -7.844 -11.565  15.988  0.00  0.00    +0.124 C 
BRANCH  16   6
ATOM      6  N   UNL     1      -9.049 -10.927  16.544  0.00  0.00    -0.193 NA
ATOM     26  H   UNL     1      -9.207 -11.145  17.536  0.00  0.00    +0.148 HD
BRANCH   6   1
ATOM      1  S   UNL     1      -9.467  -9.350  16.040  0.00  0.00    +0.027 S 
ATOM      2  O   UNL     1      -9.164  -9.188  14.631  0.00  0.00    -0.158 OA
ATOM      3  O   UNL     1      -8.965  -8.405  17.019  0.00  0.00    -0.158 OA
ATOM     25  C   UNL     1     -11.236  -9.410  16.217  0.00  0.00    +0.214 C 
ENDBRANCH   6   1
ENDBRANCH  16   6
ENDBRANCH  10  16
TORSDOF 5
ENDMDL
MODEL 2
REMARK VINA RESULT:      -5.9      3.372      5.056
REMARK  Name = 25389078
REMARK  7 active torsions:
REMARK  status: ('A' for Active; 'I' for Inactive)
REMARK    1  A    between atoms: S_1  and  N_6
REMARK    2  A    between atoms: S_1  and  C_25
REMARK    3  A    between atoms: N_5  and  C_24
REMARK    4  A    between atoms: N_6  and  C_16
REMARK    5  A    between atoms: C_9  and  C_15
REMARK    6  A    between atoms: C_10  and  C_16
REMARK    7  A    between atoms: C_18  and  C_19
REMARK                            x       y       z     vdW  Elec       q    Type
REMARK                         _______ _______ _______ _____ _____    ______ ____
ROOT
ATOM      4  N   UNL     1      -6.097 -11.855  17.212  0.00  0.00    -0.297 NA
ATOM      8  C   UNL     1      -7.029  -9.536  16.482  0.00  0.00    +0.002 C 
ATOM      9  C   UNL     1      -7.398 -10.624  15.436  0.00  0.00    +0.055 C 
ATOM     10  C   UNL     1      -5.022 -10.831  17.283  0.00  0.00    +0.072 C 
ATOM     11  C   UNL     1      -5.497  -9.500  16.661  0.00  0.00    +0.024 C 
ATOM     12  C   UNL     1      -6.643 -11.924  15.834  0.00  0.00    +0.094 C 
ATOM     13  C   UNL     1      -7.633  -9.990  17.828  0.00  0.00    +0.019 C 
ATOM     14  C   UNL     1      -7.189 -11.433  18.122  0.00  0.00    +0.085 C 
ENDROOT
BRANCH   9  15
ATOM      5  N   UNL     1      -8.255  -9.824  13.185  0.00  0.00    -0.271 N 
ATOM      7  N   UNL     1      -7.903  -9.589  11.909  0.00  0.00    -0.176 NA
ATOM     15  C   UNL     1      -7.233 -10.288  13.961  0.00  0.00    +0.044 A 
ATOM     17  C   UNL     1      -6.138 -10.361  13.136  0.00  0.00    +0.048 A 
ATOM     19  C   UNL     1      -6.609  -9.917  11.885  0.00  0.00    +0.066 A 
ATOM     24  C   UNL     1      -9.618  -9.579  13.598  0.00  0.00    +0.172 C 
BRANCH  19  18
ATOM     18  C   UNL     1      -5.825  -9.789  10.598  0.00  0.00    +0.040 C 
ATOM     20  C   UNL     1      -4.941  -8.529  10.570  0.00  0.00    +0.010 C 
ATOM     21  C   UNL     1      -4.878 -10.971  10.306  0.00  0.00    +0.010 C 
ATOM     22  C   UNL     1      -3.690  -8.952   9.813  0.00  0.00    +0.001 C 
ATOM     23  C   UNL     1      -3.472 -10.380  10.282  0.00  0.00    +0.001 C 
ENDBRANCH  19  18
ENDBRANCH   9  15
BRANCH  10  16
ATOM     16  C   UNL     1      -3.711 -11.316  16.662  0.00  0.00    +0.124 C 
BRANCH  16   6
ATOM      6  N   UNL     1      -3.343 -10.424  15.550  0.00  0.00    -0.193 NA
ATOM     26  H   UNL     1      -3.642  -9.450  15.689  0.00  0.00    +0.148 HD
BRANCH   6   1
ATOM      1  S   UNL     1      -1.847 -10.649  14.759  0.00  0.00    +0.027 S 
ATOM      2  O   UNL     1      -0.759 -10.405  15.686  0.00  0.00    -0.158 OA
ATOM      3  O   UNL     1      -1.896  -9.971  13.478  0.00  0.00    -0.158 OA
ATOM     25  C   UNL     1      -1.909 -12.398  14.437  0.00  0.00    +0.214 C 
ENDBRANCH   6   1
ENDBRANCH  16   6
ENDBRANCH  10  16
TORSDOF 5
ENDMDL
MODEL 3
REMARK VINA RESULT:      -5.9     26.250     28.457
REMARK  Name = 25389078
REMARK  7 active torsions:
REMARK  status: ('A' for Active; 'I' for Inactive)
REMARK    1  A    between atoms: S_1  and  N_6
REMARK    2  A    between atoms: S_1  and  C_25
REMARK    3  A    between atoms: N_5  and  C_24
REMARK    4  A    between atoms: N_6  and  C_16
REMARK    5  A    between atoms: C_9  and  C_15
REMARK    6  A    between atoms: C_10  and  C_16
REMARK    7  A    between atoms: C_18  and  C_19
REMARK                            x       y       z     vdW  Elec       q    Type
REMARK                         _______ _______ _______ _____ _____    ______ ____
ROOT
ATOM      4  N   UNL     1      13.159   7.813  21.475  0.00  0.00    -0.297 NA
ATOM      8  C   UNL     1      11.270   8.927  20.070  0.00  0.00    +0.002 C 
ATOM      9  C   UNL     1      12.295   8.222  19.140  0.00  0.00    +0.055 C 
ATOM     10  C   UNL     1      12.972   9.225  21.904  0.00  0.00    +0.072 C 
ATOM     11  C   UNL     1      12.006   9.960  20.950  0.00  0.00    +0.024 C 
ATOM     12  C   UNL     1      13.486   7.761  20.029  0.00  0.00    +0.094 C 
ATOM     13  C   UNL     1      10.708   7.844  21.016  0.00  0.00    +0.019 C 
ATOM     14  C   UNL     1      11.876   7.100  21.686  0.00  0.00    +0.085 C 
ENDROOT
BRANCH   9  15
ATOM      5  N   UNL     1      11.996   9.061  16.764  0.00  0.00    -0.271 N 
ATOM      7  N   UNL     1      12.585   9.750  15.772  0.00  0.00    -0.176 NA
ATOM     15  C   UNL     1      12.757   8.958  17.891  0.00  0.00    +0.044 A 
ATOM     17  C   UNL     1      13.926   9.626  17.617  0.00  0.00    +0.048 A 
ATOM     19  C   UNL     1      13.764  10.093  16.299  0.00  0.00    +0.066 A 
ATOM     24  C   UNL     1      10.674   8.516  16.555  0.00  0.00    +0.172 C 
BRANCH  19  18
ATOM     18  C   UNL     1      14.746  10.900  15.480  0.00  0.00    +0.040 C 
ATOM     20  C   UNL     1      14.049  11.822  14.464  0.00  0.00    +0.010 C 
ATOM     21  C   UNL     1      15.670  11.816  16.310  0.00  0.00    +0.010 C 
ATOM     22  C   UNL     1      14.917  13.071  14.415  0.00  0.00    +0.001 C 
ATOM     23  C   UNL     1      15.356  13.239  15.860  0.00  0.00    +0.001 C 
ENDBRANCH  19  18
ENDBRANCH   9  15
BRANCH  10  16
ATOM     16  C   UNL     1      14.300   9.969  22.057  0.00  0.00    +0.124 C 
BRANCH  16   6
ATOM      6  N   UNL     1      14.584  10.161  23.488  0.00  0.00    -0.193 NA
ATOM     26  H   UNL     1      15.339   9.558  23.841  0.00  0.00    +0.148 HD
BRANCH   6   1
ATOM      1  S   UNL     1      14.501  11.732  24.153  0.00  0.00    +0.027 S 
ATOM      2  O   UNL     1      14.804  12.715  23.130  0.00  0.00    -0.158 OA
ATOM      3  O   UNL     1      15.210  11.736  25.418  0.00  0.00    -0.158 OA
ATOM     25  C   UNL     1      12.763  11.840  24.517  0.00  0.00    +0.214 C 
ENDBRANCH   6   1
ENDBRANCH  16   6
ENDBRANCH  10  16
TORSDOF 5
ENDMDL
MODEL 4
REMARK VINA RESULT:      -5.8     18.986     21.751
REMARK  Name = 25389078
REMARK  7 active torsions:
REMARK  status: ('A' for Active; 'I' for Inactive)
REMARK    1  A    between atoms: S_1  and  N_6
REMARK    2  A    between atoms: S_1  and  C_25
REMARK    3  A    between atoms: N_5  and  C_24
REMARK    4  A    between atoms: N_6  and  C_16
REMARK    5  A    between atoms: C_9  and  C_15
REMARK    6  A    between atoms: C_10  and  C_16
REMARK    7  A    between atoms: C_18  and  C_19
REMARK                            x       y       z     vdW  Elec       q    Type
REMARK                         _______ _______ _______ _____ _____    ______ ____
ROOT
ATOM      4  N   UNL     1      -9.783  10.204  17.305  0.00  0.00    -0.297 NA
ATOM      8  C   UNL     1     -12.045  11.104  18.229  0.00  0.00    +0.002 C 
ATOM      9  C   UNL     1     -11.312  10.264  19.310  0.00  0.00    +0.055 C 
ATOM     10  C   UNL     1     -10.879   9.902  16.346  0.00  0.00    +0.072 C 
ATOM     11  C   UNL     1     -12.252  10.241  16.966  0.00  0.00    +0.024 C 
ATOM     12  C   UNL     1     -10.083   9.600  18.626  0.00  0.00    +0.094 C 
ATOM     13  C   UNL     1     -11.095  12.256  17.840  0.00  0.00    +0.019 C 
ATOM     14  C   UNL     1      -9.719  11.676  17.472  0.00  0.00    +0.085 C 
ENDROOT
BRANCH   9  15
ATOM      5  N   UNL     1     -12.653   9.562  21.348  0.00  0.00    -0.271 N 
ATOM      7  N   UNL     1     -13.340   8.547  21.900  0.00  0.00    -0.176 NA
ATOM     15  C   UNL     1     -12.128   9.269  20.123  0.00  0.00    +0.044 A 
ATOM     17  C   UNL     1     -12.498   7.973  19.856  0.00  0.00    +0.048 A 
ATOM     19  C   UNL     1     -13.242   7.580  20.985  0.00  0.00    +0.066 A 
ATOM     24  C   UNL     1     -12.536  10.809  22.067  0.00  0.00    +0.172 C 
BRANCH  19  18
ATOM     18  C   UNL     1     -13.900   6.241  21.234  0.00  0.00    +0.040 C 
ATOM     20  C   UNL     1     -13.191   5.432  22.335  0.00  0.00    +0.010 C 
ATOM     21  C   UNL     1     -15.379   6.325  21.664  0.00  0.00    +0.010 C 
ATOM     22  C   UNL     1     -14.312   4.697  23.057  0.00  0.00    +0.001 C 
ATOM     23  C   UNL     1     -15.441   5.713  23.058  0.00  0.00    +0.001 C 
ENDBRANCH  19  18
ENDBRANCH   9  15
BRANCH  10  16
ATOM     16  C   UNL     1     -10.824   8.462  15.833  0.00  0.00    +0.124 C 
BRANCH  16   6
ATOM      6  N   UNL     1     -12.113   8.122  15.207  0.00  0.00    -0.193 NA
ATOM     26  H   UNL     1     -12.906   8.658  15.583  0.00  0.00    +0.148 HD
BRANCH   6   1
ATOM      1  S   UNL     1     -12.163   7.773  13.536  0.00  0.00    +0.027 S 
ATOM      2  O   UNL     1     -12.427   8.986  12.788  0.00  0.00    -0.158 OA
ATOM      3  O   UNL     1     -12.975   6.588  13.336  0.00  0.00    -0.158 OA
ATOM     25  C   UNL     1     -10.469   7.311  13.249  0.00  0.00    +0.214 C 
ENDBRANCH   6   1
ENDBRANCH  16   6
ENDBRANCH  10  16
TORSDOF 5
ENDMDL
MODEL 5
REMARK VINA RESULT:      -5.7     24.832     26.516
REMARK  Name = 25389078
REMARK  7 active torsions:
REMARK  status: ('A' for Active; 'I' for Inactive)
REMARK    1  A    between atoms: S_1  and  N_6
REMARK    2  A    between atoms: S_1  and  C_25
REMARK    3  A    between atoms: N_5  and  C_24
REMARK    4  A    between atoms: N_6  and  C_16
REMARK    5  A    between atoms: C_9  and  C_15
REMARK    6  A    between atoms: C_10  and  C_16
REMARK    7  A    between atoms: C_18  and  C_19
REMARK                            x       y       z     vdW  Elec       q    Type
REMARK                         _______ _______ _______ _____ _____    ______ ____
ROOT
ATOM      4  N   UNL     1      10.426   6.271   7.579  0.00  0.00    -0.297 NA
ATOM      8  C   UNL     1       9.602   7.645   5.527  0.00  0.00    +0.002 C 
ATOM      9  C   UNL     1       9.531   6.123   5.226  0.00  0.00    +0.055 C 
ATOM     10  C   UNL     1      11.415   7.332   7.248  0.00  0.00    +0.072 C 
ATOM     11  C   UNL     1      11.048   8.020   5.917  0.00  0.00    +0.024 C 
ATOM     12  C   UNL     1      10.221   5.384   6.408  0.00  0.00    +0.094 C 
ATOM     13  C   UNL     1       8.718   7.896   6.768  0.00  0.00    +0.019 C 
ATOM     14  C   UNL     1       9.137   6.933   7.891  0.00  0.00    +0.085 C 
ENDROOT
BRANCH   9  15
ATOM      5  N   UNL     1       9.779   6.300   2.707  0.00  0.00    -0.271 N 
ATOM      7  N   UNL     1      10.299   5.702   1.621  0.00  0.00    -0.176 NA
ATOM     15  C   UNL     1      10.023   5.634   3.872  0.00  0.00    +0.044 A 
ATOM     17  C   UNL     1      10.753   4.524   3.524  0.00  0.00    +0.048 A 
ATOM     19  C   UNL     1      10.893   4.618   2.126  0.00  0.00    +0.066 A 
ATOM     24  C   UNL     1       9.042   7.533   2.548  0.00  0.00    +0.172 C 
BRANCH  19  18
ATOM     18  C   UNL     1      11.614   3.658   1.206  0.00  0.00    +0.040 C 
ATOM     20  C   UNL     1      11.858   4.255  -0.192  0.00  0.00    +0.010 C 
ATOM     21  C   UNL     1      12.998   3.203   1.714  0.00  0.00    +0.010 C 
ATOM     22  C   UNL     1      13.209   3.698  -0.619  0.00  0.00    +0.001 C 
ATOM     23  C   UNL     1      14.002   3.693   0.677  0.00  0.00    +0.001 C 
ENDBRANCH  19  18
ENDBRANCH   9  15
BRANCH  10  16
ATOM     16  C   UNL     1      12.853   6.809   7.244  0.00  0.00    +0.124 C 
BRANCH  16   6
ATOM      6  N   UNL     1      13.377   6.849   5.869  0.00  0.00    -0.193 NA
ATOM     26  H   UNL     1      12.644   6.819   5.149  0.00  0.00    +0.148 HD
BRANCH   6   1
ATOM      1  S   UNL     1      14.737   7.824   5.522  0.00  0.00    +0.027 S 
ATOM      2  O   UNL     1      15.712   7.703   6.588  0.00  0.00    -0.158 OA
ATOM      3  O   UNL     1      14.271   9.127   5.088  0.00  0.00    -0.158 OA
ATOM     25  C   UNL     1      15.382   6.986   4.092  0.00  0.00    +0.214 C 
ENDBRANCH   6   1
ENDBRANCH  16   6
ENDBRANCH  10  16
TORSDOF 5
ENDMDL
MODEL 6
REMARK VINA RESULT:      -5.7     21.269     23.902
REMARK  Name = 25389078
REMARK  7 active torsions:
REMARK  status: ('A' for Active; 'I' for Inactive)
REMARK    1  A    between atoms: S_1  and  N_6
REMARK    2  A    between atoms: S_1  and  C_25
REMARK    3  A    between atoms: N_5  and  C_24
REMARK    4  A    between atoms: N_6  and  C_16
REMARK    5  A    between atoms: C_9  and  C_15
REMARK    6  A    between atoms: C_10  and  C_16
REMARK    7  A    between atoms: C_18  and  C_19
REMARK                            x       y       z     vdW  Elec       q    Type
REMARK                         _______ _______ _______ _____ _____    ______ ____
ROOT
ATOM      4  N   UNL     1     -12.743   9.771  18.893  0.00  0.00    -0.297 NA
ATOM      8  C   UNL     1     -13.250   8.023  20.754  0.00  0.00    +0.002 C 
ATOM      9  C   UNL     1     -13.724   9.436  21.192  0.00  0.00    +0.055 C 
ATOM     10  C   UNL     1     -11.525   8.969  19.180  0.00  0.00    +0.072 C 
ATOM     11  C   UNL     1     -11.744   8.073  20.418  0.00  0.00    +0.024 C 
ATOM     12  C   UNL     1     -13.210  10.447  20.128  0.00  0.00    +0.094 C 
ATOM     13  C   UNL     1     -13.996   7.688  19.445  0.00  0.00    +0.019 C 
ATOM     14  C   UNL     1     -13.806   8.840  18.444  0.00  0.00    +0.085 C 
ENDROOT
BRANCH   9  15
ATOM      5  N   UNL     1     -14.243   9.623  23.669  0.00  0.00    -0.271 N 
ATOM      7  N   UNL     1     -13.795  10.109  24.840  0.00  0.00    -0.176 NA
ATOM     15  C   UNL     1     -13.421   9.888  22.613  0.00  0.00    +0.044 A 
ATOM     17  C   UNL     1     -12.364  10.597  23.128  0.00  0.00    +0.048 A 
ATOM     19  C   UNL     1     -12.647  10.703  24.503  0.00  0.00    +0.066 A 
ATOM     24  C   UNL     1     -15.493   8.901  23.637  0.00  0.00    +0.172 C 
BRANCH  19  18
ATOM     18  C   UNL     1     -11.816  11.387  25.566  0.00  0.00    +0.040 C 
ATOM     20  C   UNL     1     -12.676  11.969  26.702  0.00  0.00    +0.010 C 
ATOM     21  C   UNL     1     -10.779  10.474  26.252  0.00  0.00    +0.010 C 
ATOM     22  C   UNL     1     -11.837  11.778  27.958  0.00  0.00    +0.001 C 
ATOM     23  C   UNL     1     -11.172  10.432  27.724  0.00  0.00    +0.001 C 
ENDBRANCH  19  18
ENDBRANCH   9  15
BRANCH  10  16
ATOM     16  C   UNL     1     -10.273   9.838  19.320  0.00  0.00    +0.124 C 
BRANCH  16   6
ATOM      6  N   UNL     1      -9.786  10.203  17.979  0.00  0.00    -0.193 NA
ATOM     26  H   UNL     1      -9.878   9.446  17.289  0.00  0.00    +0.148 HD
BRANCH   6   1
ATOM      1  S   UNL     1     -10.044  11.789  17.400  0.00  0.00    +0.027 S 
ATOM      2  O   UNL     1      -8.830  12.291  16.787  0.00  0.00    -0.158 OA
ATOM      3  O   UNL     1     -10.724  12.551  18.430  0.00  0.00    -0.158 OA
ATOM     25  C   UNL     1     -11.222  11.475  16.105  0.00  0.00    +0.214 C 
ENDBRANCH   6   1
ENDBRANCH  16   6
ENDBRANCH  10  16
TORSDOF 5
ENDMDL
MODEL 7
REMARK VINA RESULT:      -5.6     24.514     25.865
REMARK  Name = 25389078
REMARK  7 active torsions:
REMARK  status: ('A' for Active; 'I' for Inactive)
REMARK    1  A    between atoms: S_1  and  N_6
REMARK    2  A    between atoms: S_1  and  C_25
REMARK    3  A    between atoms: N_5  and  C_24
REMARK    4  A    between atoms: N_6  and  C_16
REMARK    5  A    between atoms: C_9  and  C_15
REMARK    6  A    between atoms: C_10  and  C_16
REMARK    7  A    between atoms: C_18  and  C_19
REMARK                            x       y       z     vdW  Elec       q    Type
REMARK                         _______ _______ _______ _____ _____    ______ ____
ROOT
ATOM      4  N   UNL     1       9.267   8.936   6.249  0.00  0.00    -0.297 NA
ATOM      8  C   UNL     1       9.210   6.334   6.308  0.00  0.00    +0.002 C 
ATOM      9  C   UNL     1      10.568   6.835   5.745  0.00  0.00    +0.055 C 
ATOM     10  C   UNL     1       8.017   8.441   5.612  0.00  0.00    +0.072 C 
ATOM     11  C   UNL     1       8.060   6.907   5.452  0.00  0.00    +0.024 C 
ATOM     12  C   UNL     1      10.450   8.374   5.553  0.00  0.00    +0.094 C 
ATOM     13  C   UNL     1       9.065   6.935   7.723  0.00  0.00    +0.019 C 
ATOM     14  C   UNL     1       9.283   8.456   7.652  0.00  0.00    +0.085 C 
ENDROOT
BRANCH   9  15
ATOM      5  N   UNL     1      12.281   6.548   3.895  0.00  0.00    -0.271 N 
ATOM      7  N   UNL     1      12.613   5.802   2.827  0.00  0.00    -0.176 NA
ATOM     15  C   UNL     1      11.137   6.141   4.517  0.00  0.00    +0.044 A 
ATOM     17  C   UNL     1      10.690   5.054   3.806  0.00  0.00    +0.048 A 
ATOM     19  C   UNL     1      11.638   4.891   2.778  0.00  0.00    +0.066 A 
ATOM     24  C   UNL     1      13.124   7.661   4.268  0.00  0.00    +0.172 C 
BRANCH  19  18
ATOM     18  C   UNL     1      11.648   3.839   1.691  0.00  0.00    +0.040 C 
ATOM     20  C   UNL     1      11.239   4.406   0.319  0.00  0.00    +0.010 C 
ATOM     21  C   UNL     1      13.015   3.159   1.472  0.00  0.00    +0.010 C 
ATOM     22  C   UNL     1      12.092   3.643  -0.683  0.00  0.00    +0.001 C 
ATOM     23  C   UNL     1      13.419   3.493   0.040  0.00  0.00    +0.001 C 
ENDBRANCH  19  18
ENDBRANCH   9  15
BRANCH  10  16
ATOM     16  C   UNL     1       7.720   9.146   4.287  0.00  0.00    +0.124 C 
BRANCH  16   6
ATOM      6  N   UNL     1       6.342   9.664   4.314  0.00  0.00    -0.193 NA
ATOM     26  H   UNL     1       6.081  10.089   5.213  0.00  0.00    +0.148 HD
BRANCH   6   1
ATOM      1  S   UNL     1       5.701  10.402   2.914  0.00  0.00    +0.027 S 
ATOM      2  O   UNL     1       5.931  11.833   2.964  0.00  0.00    -0.158 OA
ATOM      3  O   UNL     1       4.370   9.874   2.682  0.00  0.00    -0.158 OA
ATOM     25  C   UNL     1       6.769   9.719   1.667  0.00  0.00    +0.214 C 
ENDBRANCH   6   1
ENDBRANCH  16   6
ENDBRANCH  10  16
TORSDOF 5
ENDMDL
MODEL 8
REMARK VINA RESULT:      -5.6     19.369     20.447
REMARK  Name = 25389078
REMARK  7 active torsions:
REMARK  status: ('A' for Active; 'I' for Inactive)
REMARK    1  A    between atoms: S_1  and  N_6
REMARK    2  A    between atoms: S_1  and  C_25
REMARK    3  A    between atoms: N_5  and  C_24
REMARK    4  A    between atoms: N_6  and  C_16
REMARK    5  A    between atoms: C_9  and  C_15
REMARK    6  A    between atoms: C_10  and  C_16
REMARK    7  A    between atoms: C_18  and  C_19
REMARK                            x       y       z     vdW  Elec       q    Type
REMARK                         _______ _______ _______ _____ _____    ______ ____
ROOT
ATOM      4  N   UNL     1     -12.171   9.411  19.894  0.00  0.00    -0.297 NA
ATOM      8  C   UNL     1     -10.984   8.265  17.879  0.00  0.00    +0.002 C 
ATOM      9  C   UNL     1     -12.179   9.128  17.387  0.00  0.00    +0.055 C 
ATOM     10  C   UNL     1     -12.004   7.958  20.163  0.00  0.00    +0.072 C 
ATOM     11  C   UNL     1     -11.493   7.228  18.903  0.00  0.00    +0.024 C 
ATOM     12  C   UNL     1     -12.951   9.611  18.648  0.00  0.00    +0.094 C 
ATOM     13  C   UNL     1     -10.029   9.215  18.633  0.00  0.00    +0.019 C 
ATOM     14  C   UNL     1     -10.823   9.995  19.694  0.00  0.00    +0.085 C 
ENDROOT
BRANCH   9  15
ATOM      5  N   UNL     1     -12.718   8.325  15.041  0.00  0.00    -0.271 N 
ATOM      7  N   UNL     1     -13.684   7.799  14.268  0.00  0.00    -0.176 NA
ATOM     15  C   UNL     1     -13.104   8.540  16.332  0.00  0.00    +0.044 A 
ATOM     17  C   UNL     1     -14.412   8.127  16.407  0.00  0.00    +0.048 A 
ATOM     19  C   UNL     1     -14.715   7.680  15.107  0.00  0.00    +0.066 A 
ATOM     24  C   UNL     1     -11.424   8.602  14.463  0.00  0.00    +0.172 C 
BRANCH  19  18
ATOM     18  C   UNL     1     -16.026   7.112  14.611  0.00  0.00    +0.040 C 
ATOM     20  C   UNL     1     -15.830   6.040  13.523  0.00  0.00    +0.010 C 
ATOM     21  C   UNL     1     -16.888   6.445  15.703  0.00  0.00    +0.010 C 
ATOM     22  C   UNL     1     -16.935   5.026  13.776  0.00  0.00    +0.001 C 
ATOM     23  C   UNL     1     -17.020   4.983  15.292  0.00  0.00    +0.001 C 
ENDBRANCH  19  18
ENDBRANCH   9  15
BRANCH  10  16
ATOM     16  C   UNL     1     -13.277   7.317  20.717  0.00  0.00    +0.124 C 
BRANCH  16   6
ATOM      6  N   UNL     1     -12.919   6.109  21.478  0.00  0.00    -0.193 NA
ATOM     26  H   UNL     1     -11.968   6.136  21.867  0.00  0.00    +0.148 HD
BRANCH   6   1
ATOM      1  S   UNL     1     -14.106   5.343  22.437  0.00  0.00    +0.027 S 
ATOM      2  O   UNL     1     -13.487   4.759  23.611  0.00  0.00    -0.158 OA
ATOM      3  O   UNL     1     -14.955   4.547  21.572  0.00  0.00    -0.158 OA
ATOM     25  C   UNL     1     -15.057   6.752  22.964  0.00  0.00    +0.214 C 
ENDBRANCH   6   1
ENDBRANCH  16   6
ENDBRANCH  10  16
TORSDOF 5
ENDMDL
MODEL 9
REMARK VINA RESULT:      -5.5     21.443     23.575
REMARK  Name = 25389078
REMARK  7 active torsions:
REMARK  status: ('A' for Active; 'I' for Inactive)
REMARK    1  A    between atoms: S_1  and  N_6
REMARK    2  A    between atoms: S_1  and  C_25
REMARK    3  A    between atoms: N_5  and  C_24
REMARK    4  A    between atoms: N_6  and  C_16
REMARK    5  A    between atoms: C_9  and  C_15
REMARK    6  A    between atoms: C_10  and  C_16
REMARK    7  A    between atoms: C_18  and  C_19
REMARK                            x       y       z     vdW  Elec       q    Type
REMARK                         _______ _______ _______ _____ _____    ______ ____
ROOT
ATOM      4  N   UNL     1      -3.238  10.849   5.930  0.00  0.00    -0.297 NA
ATOM      8  C   UNL     1      -1.462   9.102   5.175  0.00  0.00    +0.002 C 
ATOM      9  C   UNL     1      -1.453  10.331   4.225  0.00  0.00    +0.055 C 
ATOM     10  C   UNL     1      -3.857   9.500   5.848  0.00  0.00    +0.072 C 
ATOM     11  C   UNL     1      -2.879   8.492   5.207  0.00  0.00    +0.024 C 
ATOM     12  C   UNL     1      -2.664  11.226   4.615  0.00  0.00    +0.094 C 
ATOM     13  C   UNL     1      -1.165   9.633   6.594  0.00  0.00    +0.019 C 
ATOM     14  C   UNL     1      -2.133  10.784   6.917  0.00  0.00    +0.085 C 
ENDROOT
BRANCH   9  15
ATOM      5  N   UNL     1      -0.231  10.224   2.004  0.00  0.00    -0.271 N 
ATOM      7  N   UNL     1      -0.376   9.955   0.695  0.00  0.00    -0.176 NA
ATOM     15  C   UNL     1      -1.379  10.080   2.726  0.00  0.00    +0.044 A 
ATOM     17  C   UNL     1      -2.342   9.689   1.828  0.00  0.00    +0.048 A 
ATOM     19  C   UNL     1      -1.668   9.629   0.593  0.00  0.00    +0.066 A 
ATOM     24  C   UNL     1       1.065  10.624   2.502  0.00  0.00    +0.172 C 
BRANCH  19  18
ATOM     18  C   UNL     1      -2.243   9.249  -0.753  0.00  0.00    +0.040 C 
ATOM     20  C   UNL     1      -3.695   9.729  -0.930  0.00  0.00    +0.010 C 
ATOM     21  C   UNL     1      -1.467   9.813  -1.962  0.00  0.00    +0.010 C 
ATOM     22  C   UNL     1      -3.802  10.103  -2.401  0.00  0.00    +0.001 C 
ATOM     23  C   UNL     1      -2.446  10.721  -2.696  0.00  0.00    +0.001 C 
ENDBRANCH  19  18
ENDBRANCH   9  15
BRANCH  10  16
ATOM     16  C   UNL     1      -5.208   9.520   5.131  0.00  0.00    +0.124 C 
BRANCH  16   6
ATOM      6  N   UNL     1      -5.386   8.255   4.398  0.00  0.00    -0.193 NA
ATOM     26  H   UNL     1      -4.684   7.542   4.635  0.00  0.00    +0.148 HD
BRANCH   6   1
ATOM      1  S   UNL     1      -6.965   7.687   4.085  0.00  0.00    +0.027 S 
ATOM      2  O   UNL     1      -6.975   6.237   4.089  0.00  0.00    -0.158 OA
ATOM      3  O   UNL     1      -7.508   8.429   2.963  0.00  0.00    -0.158 OA
ATOM     25  C   UNL     1      -7.808   8.245   5.548  0.00  0.00    +0.214 C 
ENDBRANCH   6   1
ENDBRANCH  16   6
ENDBRANCH  10  16
TORSDOF 5
ENDMDL
MODEL 10
REMARK VINA RESULT:      -5.5     24.392     27.401
REMARK  Name = 25389078
REMARK  7 active torsions:
REMARK  status: ('A' for Active; 'I' for Inactive)
REMARK    1  A    between atoms: S_1  and  N_6
REMARK    2  A    between atoms: S_1  and  C_25
REMARK    3  A    between atoms: N_5  and  C_24
REMARK    4  A    between atoms: N_6  and  C_16
REMARK    5  A    between atoms: C_9  and  C_15
REMARK    6  A    between atoms: C_10  and  C_16
REMARK    7  A    between atoms: C_18  and  C_19
REMARK                            x       y       z     vdW  Elec       q    Type
REMARK                         _______ _______ _______ _____ _____    ______ ____
ROOT
ATOM      4  N   UNL     1      13.328   9.355   6.099  0.00  0.00    -0.297 NA
ATOM      8  C   UNL     1      15.195   7.655   5.465  0.00  0.00    +0.002 C 
ATOM      9  C   UNL     1      14.454   8.149   4.192  0.00  0.00    +0.055 C 
ATOM     10  C   UNL     1      13.210   8.135   6.940  0.00  0.00    +0.072 C 
ATOM     11  C   UNL     1      14.173   7.036   6.442  0.00  0.00    +0.024 C 
ATOM     12  C   UNL     1      13.237   8.994   4.663  0.00  0.00    +0.094 C 
ATOM     13  C   UNL     1      15.780   8.907   6.153  0.00  0.00    +0.019 C 
ATOM     14  C   UNL     1      14.665   9.948   6.343  0.00  0.00    +0.085 C 
ENDROOT
BRANCH   9  15
ATOM      5  N   UNL     1      14.828   6.870   2.032  0.00  0.00    -0.271 N 
ATOM      7  N   UNL     1      14.314   5.925   1.226  0.00  0.00    -0.176 NA
ATOM     15  C   UNL     1      14.071   7.119   3.139  0.00  0.00    +0.044 A 
ATOM     17  C   UNL     1      12.987   6.280   3.050  0.00  0.00    +0.048 A 
ATOM     19  C   UNL     1      13.190   5.568   1.853  0.00  0.00    +0.066 A 
ATOM     24  C   UNL     1      16.073   7.505   1.670  0.00  0.00    +0.172 C 
BRANCH  19  18
ATOM     18  C   UNL     1      12.302   4.501   1.253  0.00  0.00    +0.040 C 
ATOM     20  C   UNL     1      11.516   5.007   0.030  0.00  0.00    +0.010 C 
ATOM     21  C   UNL     1      13.051   3.239   0.776  0.00  0.00    +0.010 C 
ATOM     22  C   UNL     1      11.448   3.810  -0.908  0.00  0.00    +0.001 C 
ATOM     23  C   UNL     1      12.807   3.155  -0.727  0.00  0.00    +0.001 C 
ENDBRANCH  19  18
ENDBRANCH   9  15
BRANCH  10  16
ATOM     16  C   UNL     1      11.769   7.630   7.038  0.00  0.00    +0.124 C 
BRANCH  16   6
ATOM      6  N   UNL     1      11.779   6.214   7.440  0.00  0.00    -0.193 NA
ATOM     26  H   UNL     1      12.670   5.911   7.853  0.00  0.00    +0.148 HD
BRANCH   6   1
ATOM      1  S   UNL     1      10.365   5.526   8.107  0.00  0.00    +0.027 S 
ATOM      2  O   UNL     1      10.579   5.226   9.509  0.00  0.00    -0.158 OA
ATOM      3  O   UNL     1       9.874   4.509   7.197  0.00  0.00    -0.158 OA
ATOM     25  C   UNL     1       9.252   6.910   8.008  0.00  0.00    +0.214 C 
ENDBRANCH   6   1
ENDBRANCH  16   6
ENDBRANCH  10  16
TORSDOF 5
ENDMDL
