REMARK  Name = 75536845
REMARK  7 active torsions:
REMARK  status: ('A' for Active; 'I' for Inactive)
REMARK    1  A    between atoms: O_2  and  C_8
REMARK    2  A    between atoms: O_3  and  C_11
REMARK    3  A    between atoms: N_5  and  C_7
REMARK    4  A    between atoms: N_6  and  C_13
REMARK    5  A    between atoms: C_9  and  C_11
REMARK    6  A    between atoms: C_13  and  C_14
REMARK    7  A    between atoms: C_13  and  C_15
REMARK                            x       y       z     vdW  Elec       q    Type
REMARK                         _______ _______ _______ _____ _____    ______ ____
ROOT
ATOM      1  O   UNL     1       2.746  -0.130  -1.190  0.00  0.00    -0.370 OA
ATOM      7  C   UNL     1       0.905   1.096  -0.356  0.00  0.00    +0.131 C 
ATOM      8  C   UNL     1       1.781   0.723   0.823  0.00  0.00    +0.168 C 
ATOM      9  C   UNL     1       2.812  -0.243   0.243  0.00  0.00    +0.174 C 
ATOM     10  C   UNL     1       1.848   0.932  -1.532  0.00  0.00    +0.185 C 
ENDROOT
BRANCH   7   5
ATOM      4  O   UNL     1      -1.741   1.558   0.697  0.00  0.00    -0.253 OA
ATOM      5  N   UNL     1      -0.241   0.230  -0.475  0.00  0.00    -0.292 N 
ATOM      6  N   UNL     1      -2.414  -0.475  -0.195  0.00  0.00    -0.297 N 
ATOM     12  C   UNL     1      -1.489   0.532   0.068  0.00  0.00    +0.300 C 
ATOM     16  H   UNL     1      -0.121  -0.673  -0.925  0.00  0.00    +0.151 HD
ATOM     18  H   UNL     1      -2.130  -1.248  -0.789  0.00  0.00    +0.150 HD
BRANCH   6  13
ATOM     13  C   UNL     1      -3.785  -0.415   0.255  0.00  0.00    +0.068 C 
ATOM     14  C   UNL     1      -4.310  -1.816   0.542  0.00  0.00    +0.027 C 
ATOM     15  C   UNL     1      -4.653   0.300  -0.772  0.00  0.00    +0.027 C 
ENDBRANCH   6  13
ENDBRANCH   7   5
BRANCH   8   2
ATOM      2  O   UNL     1       2.444   1.907   1.268  0.00  0.00    -0.387 OA
ATOM     17  H   UNL     1       3.031   1.652   2.000  0.00  0.00    +0.210 HD
ENDBRANCH   8   2
BRANCH   9  11
ATOM     11  C   UNL     1       2.547  -1.696   0.610  0.00  0.00    +0.190 C 
BRANCH  11   3
ATOM      3  O   UNL     1       3.549  -2.505   0.016  0.00  0.00    -0.392 OA
ATOM     19  H   UNL     1       3.360  -3.425   0.267  0.00  0.00    +0.210 HD
ENDBRANCH  11   3
ENDBRANCH   9  11
TORSDOF 5
