MODEL 1
REMARK VINA RESULT:      -8.0      0.000      0.000
REMARK  Name = 26762363
REMARK  10 active torsions:
REMARK  status: ('A' for Active; 'I' for Inactive)
REMARK    1  A    between atoms: N_6  and  C_12
REMARK    2  A    between atoms: N_7  and  C_24
REMARK    3  A    between atoms: N_8  and  C_27
REMARK    4  A    between atoms: N_8  and  C_31
REMARK    5  A    between atoms: N_8  and  C_32
REMARK    6  A    between atoms: C_11  and  C_17
REMARK    7  A    between atoms: C_17  and  C_18
REMARK    8  A    between atoms: C_18  and  C_20
REMARK    9  A    between atoms: C_19  and  C_21
REMARK   10  A    between atoms: C_24  and  C_28
REMARK                            x       y       z     vdW  Elec       q    Type
REMARK                         _______ _______ _______ _____ _____    ______ ____
ROOT
ATOM      1  O   UNL     1      11.517   9.180  17.668  0.00  0.00    -0.274 OA
ATOM      4  N   UNL     1      13.190   7.552  20.326  0.00  0.00    -0.285 NA
ATOM      5  N   UNL     1      13.614   8.247  17.715  0.00  0.00    -0.313 N 
ATOM     10  C   UNL     1      12.014   7.652  19.456  0.00  0.00    +0.145 C 
ATOM     11  C   UNL     1      14.243   6.783  19.660  0.00  0.00    +0.075 C 
ATOM     12  C   UNL     1      11.365   7.764  21.774  0.00  0.00    +0.089 C 
ATOM     13  C   UNL     1      10.974   8.267  20.379  0.00  0.00    +0.052 C 
ATOM     14  C   UNL     1      12.673   6.991  21.574  0.00  0.00    +0.107 C 
ATOM     15  C   UNL     1      14.697   7.611  18.449  0.00  0.00    +0.123 C 
ATOM     16  C   UNL     1      12.348   8.466  18.227  0.00  0.00    +0.230 C 
ATOM     35  H   UNL     1      13.854   8.716  16.847  0.00  0.00    +0.149 HD
ENDROOT
BRANCH  12   6
ATOM      2  O   UNL     1      11.683  10.538  21.104  0.00  0.00    -0.270 OA
ATOM      6  N   UNL     1      11.524   8.860  22.697  0.00  0.00    -0.307 N 
ATOM     19  C   UNL     1      11.672  10.174  22.276  0.00  0.00    +0.244 C 
ATOM     36  H   UNL     1      11.636   8.621  23.676  0.00  0.00    +0.149 HD
BRANCH  19  21
ATOM     21  C   UNL     1      11.851  11.184  23.351  0.00  0.00    +0.037 A 
ATOM     22  C   UNL     1      10.796  11.477  24.215  0.00  0.00    +0.015 A 
ATOM     23  C   UNL     1      13.075  11.839  23.496  0.00  0.00    +0.015 A 
ATOM     25  C   UNL     1      10.964  12.426  25.225  0.00  0.00    +0.024 A 
ATOM     26  C   UNL     1      13.242  12.787  24.504  0.00  0.00    +0.024 A 
ATOM     27  C   UNL     1      12.187  13.082  25.369  0.00  0.00    +0.029 A 
BRANCH  27   8
ATOM      8  N   UNL     1      12.358  14.040  26.388  0.00  0.00    -0.336 N 
ATOM     31  C   UNL     1      13.600  14.106  27.133  0.00  0.00    +0.129 C 
ATOM     32  C   UNL     1      11.297  14.977  26.701  0.00  0.00    +0.129 C 
ENDBRANCH  27   8
ENDBRANCH  19  21
ENDBRANCH  12   6
BRANCH  11  17
ATOM     17  C   UNL     1      15.443   6.501  20.567  0.00  0.00    +0.029 C 
BRANCH  17  18
ATOM     18  C   UNL     1      16.736   6.448  19.765  0.00  0.00    +0.097 C 
BRANCH  18  20
ATOM      3  O   UNL     1      17.829   7.713  21.516  0.00  0.00    -0.276 OA
ATOM      7  N   UNL     1      19.118   6.409  20.094  0.00  0.00    -0.311 N 
ATOM     20  C   UNL     1      17.927   6.939  20.568  0.00  0.00    +0.213 C 
ATOM     37  H   UNL     1      19.111   5.750  19.321  0.00  0.00    +0.149 HD
BRANCH   7  24
ATOM     24  C   UNL     1      20.395   6.725  20.690  0.00  0.00    +0.141 C 
BRANCH  24  28
ATOM      9  N   UNL     1      22.061   4.551  23.298  0.00  0.00    -0.263 NA
ATOM     28  C   UNL     1      21.020   5.528  21.346  0.00  0.00    -0.012 A 
ATOM     29  C   UNL     1      21.152   4.323  20.664  0.00  0.00    +0.008 A 
ATOM     30  C   UNL     1      21.487   5.589  22.650  0.00  0.00    +0.115 A 
ATOM     33  C   UNL     1      21.736   3.232  21.297  0.00  0.00    +0.020 A 
ATOM     34  C   UNL     1      22.170   3.396  22.603  0.00  0.00    +0.111 A 
ENDBRANCH  24  28
ENDBRANCH   7  24
ENDBRANCH  18  20
ENDBRANCH  17  18
ENDBRANCH  11  17
TORSDOF 8
ENDMDL
MODEL 2
REMARK VINA RESULT:      -7.9     27.047     29.997
REMARK  Name = 26762363
REMARK  10 active torsions:
REMARK  status: ('A' for Active; 'I' for Inactive)
REMARK    1  A    between atoms: N_6  and  C_12
REMARK    2  A    between atoms: N_7  and  C_24
REMARK    3  A    between atoms: N_8  and  C_27
REMARK    4  A    between atoms: N_8  and  C_31
REMARK    5  A    between atoms: N_8  and  C_32
REMARK    6  A    between atoms: C_11  and  C_17
REMARK    7  A    between atoms: C_17  and  C_18
REMARK    8  A    between atoms: C_18  and  C_20
REMARK    9  A    between atoms: C_19  and  C_21
REMARK   10  A    between atoms: C_24  and  C_28
REMARK                            x       y       z     vdW  Elec       q    Type
REMARK                         _______ _______ _______ _____ _____    ______ ____
ROOT
ATOM      1  O   UNL     1      -7.957 -14.522  17.162  0.00  0.00    -0.274 OA
ATOM      4  N   UNL     1      -6.262 -11.425  17.380  0.00  0.00    -0.285 NA
ATOM      5  N   UNL     1      -5.906 -13.922  16.323  0.00  0.00    -0.313 N 
ATOM     10  C   UNL     1      -6.926 -12.543  18.057  0.00  0.00    +0.145 C 
ATOM     11  C   UNL     1      -4.868 -11.766  17.095  0.00  0.00    +0.075 C 
ATOM     12  C   UNL     1      -7.943 -10.451  18.682  0.00  0.00    +0.089 C 
ATOM     13  C   UNL     1      -8.258 -11.936  18.466  0.00  0.00    +0.052 C 
ATOM     14  C   UNL     1      -6.478 -10.283  18.267  0.00  0.00    +0.107 C 
ATOM     15  C   UNL     1      -4.892 -12.911  16.071  0.00  0.00    +0.123 C 
ATOM     16  C   UNL     1      -7.016 -13.731  17.126  0.00  0.00    +0.230 C 
ATOM     35  H   UNL     1      -5.892 -14.750  15.736  0.00  0.00    +0.149 HD
ENDROOT
BRANCH  12   6
ATOM      2  O   UNL     1     -10.689  -9.841  19.260  0.00  0.00    -0.270 OA
ATOM      6  N   UNL     1      -8.822  -9.614  17.903  0.00  0.00    -0.307 N 
ATOM     19  C   UNL     1     -10.140  -9.376  18.264  0.00  0.00    +0.244 C 
ATOM     36  H   UNL     1      -8.469  -9.286  17.010  0.00  0.00    +0.149 HD
BRANCH  19  21
ATOM     21  C   UNL     1     -10.921  -8.512  17.342  0.00  0.00    +0.037 A 
ATOM     22  C   UNL     1     -12.262  -8.799  17.086  0.00  0.00    +0.015 A 
ATOM     23  C   UNL     1     -10.314  -7.415  16.732  0.00  0.00    +0.015 A 
ATOM     25  C   UNL     1     -12.996  -7.989  16.219  0.00  0.00    +0.024 A 
ATOM     26  C   UNL     1     -11.047  -6.605  15.865  0.00  0.00    +0.024 A 
ATOM     27  C   UNL     1     -12.388  -6.892  15.608  0.00  0.00    +0.029 A 
BRANCH  27   8
ATOM      8  N   UNL     1     -13.129  -6.072  14.733  0.00  0.00    -0.336 N 
ATOM     31  C   UNL     1     -14.563  -6.242  14.604  0.00  0.00    +0.129 C 
ATOM     32  C   UNL     1     -12.468  -5.043  13.955  0.00  0.00    +0.129 C 
ENDBRANCH  27   8
ENDBRANCH  19  21
ENDBRANCH  12   6
BRANCH  11  17
ATOM     17  C   UNL     1      -4.065 -10.591  16.532  0.00  0.00    +0.029 C 
BRANCH  17  18
ATOM     18  C   UNL     1      -2.577 -10.911  16.493  0.00  0.00    +0.097 C 
BRANCH  18  20
ATOM      3  O   UNL     1      -1.090  -9.670  15.040  0.00  0.00    -0.276 OA
ATOM      7  N   UNL     1      -2.463 -11.301  14.122  0.00  0.00    -0.311 N 
ATOM     20  C   UNL     1      -1.948 -10.540  15.162  0.00  0.00    +0.213 C 
ATOM     37  H   UNL     1      -3.150 -12.024  14.312  0.00  0.00    +0.149 HD
BRANCH   7  24
ATOM     24  C   UNL     1      -2.026 -11.136  12.756  0.00  0.00    +0.141 C 
BRANCH  24  28
ATOM      9  N   UNL     1      -5.267  -9.527  11.657  0.00  0.00    -0.263 NA
ATOM     28  C   UNL     1      -3.010 -10.346  11.943  0.00  0.00    -0.012 A 
ATOM     29  C   UNL     1      -2.625  -9.718  10.763  0.00  0.00    +0.008 A 
ATOM     30  C   UNL     1      -4.331 -10.222  12.342  0.00  0.00    +0.115 A 
ATOM     33  C   UNL     1      -3.559  -8.994  10.030  0.00  0.00    +0.020 A 
ATOM     34  C   UNL     1      -4.855  -8.930  10.516  0.00  0.00    +0.111 A 
ENDBRANCH  24  28
ENDBRANCH   7  24
ENDBRANCH  18  20
ENDBRANCH  17  18
ENDBRANCH  11  17
TORSDOF 8
ENDMDL
MODEL 3
REMARK VINA RESULT:      -7.7     28.512     30.631
REMARK  Name = 26762363
REMARK  10 active torsions:
REMARK  status: ('A' for Active; 'I' for Inactive)
REMARK    1  A    between atoms: N_6  and  C_12
REMARK    2  A    between atoms: N_7  and  C_24
REMARK    3  A    between atoms: N_8  and  C_27
REMARK    4  A    between atoms: N_8  and  C_31
REMARK    5  A    between atoms: N_8  and  C_32
REMARK    6  A    between atoms: C_11  and  C_17
REMARK    7  A    between atoms: C_17  and  C_18
REMARK    8  A    between atoms: C_18  and  C_20
REMARK    9  A    between atoms: C_19  and  C_21
REMARK   10  A    between atoms: C_24  and  C_28
REMARK                            x       y       z     vdW  Elec       q    Type
REMARK                         _______ _______ _______ _____ _____    ______ ____
ROOT
ATOM      1  O   UNL     1      -8.568 -14.940  17.656  0.00  0.00    -0.274 OA
ATOM      4  N   UNL     1      -6.852 -11.916  18.305  0.00  0.00    -0.285 NA
ATOM      5  N   UNL     1      -6.380 -14.387  17.234  0.00  0.00    -0.313 N 
ATOM     10  C   UNL     1      -7.663 -13.031  18.802  0.00  0.00    +0.145 C 
ATOM     11  C   UNL     1      -5.440 -12.298  18.270  0.00  0.00    +0.075 C 
ATOM     12  C   UNL     1      -8.717 -10.925  19.311  0.00  0.00    +0.089 C 
ATOM     13  C   UNL     1      -9.030 -12.389  18.982  0.00  0.00    +0.052 C 
ATOM     14  C   UNL     1      -7.196 -10.796  19.181  0.00  0.00    +0.107 C 
ATOM     15  C   UNL     1      -5.307 -13.406  17.214  0.00  0.00    +0.123 C 
ATOM     16  C   UNL     1      -7.613 -14.183  17.825  0.00  0.00    +0.230 C 
ATOM     35  H   UNL     1      -6.282 -15.196  16.628  0.00  0.00    +0.149 HD
ENDROOT
BRANCH  12   6
ATOM      2  O   UNL     1     -11.376  -9.894  19.638  0.00  0.00    -0.270 OA
ATOM      6  N   UNL     1      -9.410 -10.031  18.417  0.00  0.00    -0.307 N 
ATOM     19  C   UNL     1     -10.701  -9.585  18.661  0.00  0.00    +0.244 C 
ATOM     36  H   UNL     1      -8.955  -9.822  17.534  0.00  0.00    +0.149 HD
BRANCH  19  21
ATOM     21  C   UNL     1     -11.284  -8.688  17.630  0.00  0.00    +0.037 A 
ATOM     22  C   UNL     1     -10.542  -7.613  17.140  0.00  0.00    +0.015 A 
ATOM     23  C   UNL     1     -12.574  -8.922  17.151  0.00  0.00    +0.015 A 
ATOM     25  C   UNL     1     -11.090  -6.771  16.172  0.00  0.00    +0.024 A 
ATOM     26  C   UNL     1     -13.121  -8.079  16.185  0.00  0.00    +0.024 A 
ATOM     27  C   UNL     1     -12.380  -7.003  15.695  0.00  0.00    +0.029 A 
BRANCH  27   8
ATOM      8  N   UNL     1     -12.934  -6.153  14.717  0.00  0.00    -0.336 N 
ATOM     31  C   UNL     1     -12.085  -5.258  13.955  0.00  0.00    +0.129 C 
ATOM     32  C   UNL     1     -14.360  -6.166  14.455  0.00  0.00    +0.129 C 
ENDBRANCH  27   8
ENDBRANCH  19  21
ENDBRANCH  12   6
BRANCH  11  17
ATOM     17  C   UNL     1      -4.513 -11.134  17.911  0.00  0.00    +0.029 C 
BRANCH  17  18
ATOM     18  C   UNL     1      -4.158 -11.151  16.430  0.00  0.00    +0.097 C 
BRANCH  18  20
ATOM      3  O   UNL     1      -5.771  -9.376  16.101  0.00  0.00    -0.276 OA
ATOM      7  N   UNL     1      -5.043 -10.595  14.264  0.00  0.00    -0.311 N 
ATOM     20  C   UNL     1      -5.081 -10.267  15.612  0.00  0.00    +0.213 C 
ATOM     37  H   UNL     1      -4.421 -11.327  13.936  0.00  0.00    +0.149 HD
BRANCH   7  24
ATOM     24  C   UNL     1      -5.834  -9.898  13.278  0.00  0.00    +0.141 C 
BRANCH  24  28
ATOM      9  N   UNL     1      -4.884  -8.444   9.919  0.00  0.00    -0.263 NA
ATOM     28  C   UNL     1      -5.051  -9.612  12.029  0.00  0.00    -0.012 A 
ATOM     29  C   UNL     1      -3.818 -10.213  11.802  0.00  0.00    +0.008 A 
ATOM     30  C   UNL     1      -5.536  -8.744  11.064  0.00  0.00    +0.115 A 
ATOM     33  C   UNL     1      -3.116  -9.930  10.636  0.00  0.00    +0.020 A 
ATOM     34  C   UNL     1      -3.687  -9.047   9.734  0.00  0.00    +0.111 A 
ENDBRANCH  24  28
ENDBRANCH   7  24
ENDBRANCH  18  20
ENDBRANCH  17  18
ENDBRANCH  11  17
TORSDOF 8
ENDMDL
MODEL 4
REMARK VINA RESULT:      -7.6      5.119     10.254
REMARK  Name = 26762363
REMARK  10 active torsions:
REMARK  status: ('A' for Active; 'I' for Inactive)
REMARK    1  A    between atoms: N_6  and  C_12
REMARK    2  A    between atoms: N_7  and  C_24
REMARK    3  A    between atoms: N_8  and  C_27
REMARK    4  A    between atoms: N_8  and  C_31
REMARK    5  A    between atoms: N_8  and  C_32
REMARK    6  A    between atoms: C_11  and  C_17
REMARK    7  A    between atoms: C_17  and  C_18
REMARK    8  A    between atoms: C_18  and  C_20
REMARK    9  A    between atoms: C_19  and  C_21
REMARK   10  A    between atoms: C_24  and  C_28
REMARK                            x       y       z     vdW  Elec       q    Type
REMARK                         _______ _______ _______ _____ _____    ______ ____
ROOT
ATOM      1  O   UNL     1      23.318   6.874  25.824  0.00  0.00    -0.274 OA
ATOM      4  N   UNL     1      22.463   3.944  24.036  0.00  0.00    -0.285 NA
ATOM      5  N   UNL     1      23.140   4.710  26.572  0.00  0.00    -0.313 N 
ATOM     10  C   UNL     1      23.322   5.124  24.175  0.00  0.00    +0.145 C 
ATOM     11  C   UNL     1      22.960   2.858  24.882  0.00  0.00    +0.075 C 
ATOM     12  C   UNL     1      22.286   5.083  22.001  0.00  0.00    +0.089 C 
ATOM     13  C   UNL     1      22.800   6.042  23.082  0.00  0.00    +0.052 C 
ATOM     14  C   UNL     1      22.438   3.680  22.597  0.00  0.00    +0.107 C 
ATOM     15  C   UNL     1      22.792   3.318  26.338  0.00  0.00    +0.123 C 
ATOM     16  C   UNL     1      23.222   5.672  25.581  0.00  0.00    +0.230 C 
ATOM     35  H   UNL     1      23.147   5.032  27.535  0.00  0.00    +0.149 HD
ENDROOT
BRANCH  12   6
ATOM      2  O   UNL     1      21.368   7.137  20.217  0.00  0.00    -0.270 OA
ATOM      6  N   UNL     1      20.917   5.375  21.655  0.00  0.00    -0.307 N 
ATOM     19  C   UNL     1      20.569   6.392  20.779  0.00  0.00    +0.244 C 
ATOM     36  H   UNL     1      20.199   4.873  22.167  0.00  0.00    +0.149 HD
BRANCH  19  21
ATOM     21  C   UNL     1      19.114   6.582  20.547  0.00  0.00    +0.037 A 
ATOM     22  C   UNL     1      18.455   5.809  19.591  0.00  0.00    +0.015 A 
ATOM     23  C   UNL     1      18.408   7.532  21.284  0.00  0.00    +0.015 A 
ATOM     25  C   UNL     1      17.088   5.986  19.372  0.00  0.00    +0.024 A 
ATOM     26  C   UNL     1      17.042   7.709  21.065  0.00  0.00    +0.024 A 
ATOM     27  C   UNL     1      16.382   6.938  20.108  0.00  0.00    +0.029 A 
BRANCH  27   8
ATOM      8  N   UNL     1      15.001   7.117  19.889  0.00  0.00    -0.336 N 
ATOM     31  C   UNL     1      14.060   6.985  20.983  0.00  0.00    +0.129 C 
ATOM     32  C   UNL     1      14.504   7.443  18.566  0.00  0.00    +0.129 C 
ENDBRANCH  27   8
ENDBRANCH  19  21
ENDBRANCH  12   6
BRANCH  11  17
ATOM     17  C   UNL     1      22.209   1.541  24.671  0.00  0.00    +0.029 C 
BRANCH  17  18
ATOM     18  C   UNL     1      22.959   0.374  25.299  0.00  0.00    +0.097 C 
BRANCH  18  20
ATOM      3  O   UNL     1      22.429  -1.903  25.927  0.00  0.00    -0.276 OA
ATOM      7  N   UNL     1      20.703  -0.372  25.666  0.00  0.00    -0.311 N 
ATOM     20  C   UNL     1      22.032  -0.770  25.666  0.00  0.00    +0.213 C 
ATOM     37  H   UNL     1      20.460   0.594  25.469  0.00  0.00    +0.149 HD
BRANCH   7  24
ATOM     24  C   UNL     1      19.626  -1.280  25.983  0.00  0.00    +0.141 C 
BRANCH  24  28
ATOM      9  N   UNL     1      17.136  -1.224  23.137  0.00  0.00    -0.263 NA
ATOM     28  C   UNL     1      18.866  -1.700  24.758  0.00  0.00    -0.012 A 
ATOM     29  C   UNL     1      19.149  -2.900  24.114  0.00  0.00    +0.008 A 
ATOM     30  C   UNL     1      17.858  -0.905  24.235  0.00  0.00    +0.115 A 
ATOM     33  C   UNL     1      18.428  -3.262  22.983  0.00  0.00    +0.020 A 
ATOM     34  C   UNL     1      17.441  -2.398  22.538  0.00  0.00    +0.111 A 
ENDBRANCH  24  28
ENDBRANCH   7  24
ENDBRANCH  18  20
ENDBRANCH  17  18
ENDBRANCH  11  17
TORSDOF 8
ENDMDL
MODEL 5
REMARK VINA RESULT:      -7.5     15.962     20.649
REMARK  Name = 26762363
REMARK  10 active torsions:
REMARK  status: ('A' for Active; 'I' for Inactive)
REMARK    1  A    between atoms: N_6  and  C_12
REMARK    2  A    between atoms: N_7  and  C_24
REMARK    3  A    between atoms: N_8  and  C_27
REMARK    4  A    between atoms: N_8  and  C_31
REMARK    5  A    between atoms: N_8  and  C_32
REMARK    6  A    between atoms: C_11  and  C_17
REMARK    7  A    between atoms: C_17  and  C_18
REMARK    8  A    between atoms: C_18  and  C_20
REMARK    9  A    between atoms: C_19  and  C_21
REMARK   10  A    between atoms: C_24  and  C_28
REMARK                            x       y       z     vdW  Elec       q    Type
REMARK                         _______ _______ _______ _____ _____    ______ ____
ROOT
ATOM      1  O   UNL     1      11.021  11.131   6.110  0.00  0.00    -0.274 OA
ATOM      4  N   UNL     1      11.362   7.656   6.669  0.00  0.00    -0.285 NA
ATOM      5  N   UNL     1       9.611   9.687   7.205  0.00  0.00    -0.313 N 
ATOM     10  C   UNL     1      11.916   9.007   6.791  0.00  0.00    +0.145 C 
ATOM     11  C   UNL     1      10.446   7.386   7.779  0.00  0.00    +0.075 C 
ATOM     12  C   UNL     1      13.453   7.563   5.626  0.00  0.00    +0.089 C 
ATOM     13  C   UNL     1      12.987   9.022   5.712  0.00  0.00    +0.052 C 
ATOM     14  C   UNL     1      12.535   6.788   6.576  0.00  0.00    +0.107 C 
ATOM     15  C   UNL     1       9.252   8.337   7.609  0.00  0.00    +0.123 C 
ATOM     16  C   UNL     1      10.818  10.033   6.625  0.00  0.00    +0.230 C 
ATOM     35  H   UNL     1       8.868  10.379   7.182  0.00  0.00    +0.149 HD
ENDROOT
BRANCH  12   6
ATOM      2  O   UNL     1      15.637   7.165   3.805  0.00  0.00    -0.270 OA
ATOM      6  N   UNL     1      13.368   7.068   4.274  0.00  0.00    -0.307 N 
ATOM     19  C   UNL     1      14.485   6.909   3.467  0.00  0.00    +0.244 C 
ATOM     36  H   UNL     1      12.437   6.942   3.890  0.00  0.00    +0.149 HD
BRANCH  19  21
ATOM     21  C   UNL     1      14.226   6.414   2.090  0.00  0.00    +0.037 A 
ATOM     22  C   UNL     1      13.890   7.313   1.078  0.00  0.00    +0.015 A 
ATOM     23  C   UNL     1      14.318   5.050   1.810  0.00  0.00    +0.015 A 
ATOM     25  C   UNL     1      13.647   6.848  -0.216  0.00  0.00    +0.024 A 
ATOM     26  C   UNL     1      14.074   4.586   0.518  0.00  0.00    +0.024 A 
ATOM     27  C   UNL     1      13.737   5.485  -0.495  0.00  0.00    +0.029 A 
BRANCH  27   8
ATOM      8  N   UNL     1      13.492   5.014  -1.801  0.00  0.00    -0.336 N 
ATOM     31  C   UNL     1      13.160   3.622  -2.030  0.00  0.00    +0.129 C 
ATOM     32  C   UNL     1      13.562   5.918  -2.932  0.00  0.00    +0.129 C 
ENDBRANCH  27   8
ENDBRANCH  19  21
ENDBRANCH  12   6
BRANCH  11  17
ATOM     17  C   UNL     1       9.949   5.939   7.809  0.00  0.00    +0.029 C 
BRANCH  17  18
ATOM     18  C   UNL     1       9.086   5.631   6.593  0.00  0.00    +0.097 C 
BRANCH  18  20
ATOM      3  O   UNL     1       9.972   3.494   5.881  0.00  0.00    -0.276 OA
ATOM      7  N   UNL     1      10.141   5.318   4.455  0.00  0.00    -0.311 N 
ATOM     20  C   UNL     1       9.773   4.680   5.631  0.00  0.00    +0.213 C 
ATOM     37  H   UNL     1       9.912   6.297   4.314  0.00  0.00    +0.149 HD
BRANCH   7  24
ATOM     24  C   UNL     1      10.813   4.627   3.380  0.00  0.00    +0.141 C 
BRANCH  24  28
ATOM      9  N   UNL     1      10.148   7.245   0.733  0.00  0.00    -0.263 NA
ATOM     28  C   UNL     1      10.522   5.248   2.044  0.00  0.00    -0.012 A 
ATOM     29  C   UNL     1      10.354   4.462   0.909  0.00  0.00    +0.008 A 
ATOM     30  C   UNL     1      10.409   6.622   1.904  0.00  0.00    +0.115 A 
ATOM     33  C   UNL     1      10.084   5.065  -0.314  0.00  0.00    +0.020 A 
ATOM     34  C   UNL     1       9.991   6.448  -0.348  0.00  0.00    +0.111 A 
ENDBRANCH  24  28
ENDBRANCH   7  24
ENDBRANCH  18  20
ENDBRANCH  17  18
ENDBRANCH  11  17
TORSDOF 8
ENDMDL
MODEL 6
REMARK VINA RESULT:      -7.3     16.532     20.297
REMARK  Name = 26762363
REMARK  10 active torsions:
REMARK  status: ('A' for Active; 'I' for Inactive)
REMARK    1  A    between atoms: N_6  and  C_12
REMARK    2  A    between atoms: N_7  and  C_24
REMARK    3  A    between atoms: N_8  and  C_27
REMARK    4  A    between atoms: N_8  and  C_31
REMARK    5  A    between atoms: N_8  and  C_32
REMARK    6  A    between atoms: C_11  and  C_17
REMARK    7  A    between atoms: C_17  and  C_18
REMARK    8  A    between atoms: C_18  and  C_20
REMARK    9  A    between atoms: C_19  and  C_21
REMARK   10  A    between atoms: C_24  and  C_28
REMARK                            x       y       z     vdW  Elec       q    Type
REMARK                         _______ _______ _______ _____ _____    ______ ____
ROOT
ATOM      1  O   UNL     1       8.667   7.075   8.388  0.00  0.00    -0.274 OA
ATOM      4  N   UNL     1       9.900   7.788   5.151  0.00  0.00    -0.285 NA
ATOM      5  N   UNL     1       9.953   5.775   7.001  0.00  0.00    -0.313 N 
ATOM     10  C   UNL     1       9.785   8.168   6.562  0.00  0.00    +0.145 C 
ATOM     11  C   UNL     1      10.997   6.835   4.975  0.00  0.00    +0.075 C 
ATOM     12  C   UNL     1       8.992   9.943   5.140  0.00  0.00    +0.089 C 
ATOM     13  C   UNL     1       8.774   9.302   6.516  0.00  0.00    +0.052 C 
ATOM     14  C   UNL     1      10.030   9.060   4.441  0.00  0.00    +0.107 C 
ATOM     15  C   UNL     1      10.593   5.551   5.714  0.00  0.00    +0.123 C 
ATOM     16  C   UNL     1       9.374   6.970   7.388  0.00  0.00    +0.230 C 
ATOM     35  H   UNL     1       9.764   4.958   7.574  0.00  0.00    +0.149 HD
ENDROOT
BRANCH  12   6
ATOM      2  O   UNL     1       7.062  12.068   5.215  0.00  0.00    -0.270 OA
ATOM      6  N   UNL     1       7.758  10.013   4.397  0.00  0.00    -0.307 N 
ATOM     19  C   UNL     1       6.885  11.086   4.500  0.00  0.00    +0.244 C 
ATOM     36  H   UNL     1       7.494   9.187   3.870  0.00  0.00    +0.149 HD
BRANCH  19  21
ATOM     21  C   UNL     1       5.644  10.994   3.688  0.00  0.00    +0.037 A 
ATOM     22  C   UNL     1       4.606  11.903   3.897  0.00  0.00    +0.015 A 
ATOM     23  C   UNL     1       5.516   9.999   2.719  0.00  0.00    +0.015 A 
ATOM     25  C   UNL     1       3.440  11.816   3.135  0.00  0.00    +0.024 A 
ATOM     26  C   UNL     1       4.350   9.912   1.959  0.00  0.00    +0.024 A 
ATOM     27  C   UNL     1       3.311  10.821   2.167  0.00  0.00    +0.029 A 
BRANCH  27   8
ATOM      8  N   UNL     1       2.134  10.733   1.397  0.00  0.00    -0.336 N 
ATOM     31  C   UNL     1       2.207  10.523  -0.035  0.00  0.00    +0.129 C 
ATOM     32  C   UNL     1       0.834  10.845   2.028  0.00  0.00    +0.129 C 
ENDBRANCH  27   8
ENDBRANCH  19  21
ENDBRANCH  12   6
BRANCH  11  17
ATOM     17  C   UNL     1      11.282   6.513   3.506  0.00  0.00    +0.029 C 
BRANCH  17  18
ATOM     18  C   UNL     1      10.138   5.723   2.886  0.00  0.00    +0.097 C 
BRANCH  18  20
ATOM      3  O   UNL     1       9.996   4.038   1.153  0.00  0.00    -0.276 OA
ATOM      7  N   UNL     1      11.878   4.107   2.510  0.00  0.00    -0.311 N 
ATOM     20  C   UNL     1      10.633   4.539   2.076  0.00  0.00    +0.213 C 
ATOM     37  H   UNL     1      12.354   4.596   3.262  0.00  0.00    +0.149 HD
BRANCH   7  24
ATOM     24  C   UNL     1      12.564   2.993   1.899  0.00  0.00    +0.141 C 
BRANCH  24  28
ATOM      9  N   UNL     1      14.109   3.950  -1.417  0.00  0.00    -0.263 NA
ATOM     28  C   UNL     1      13.577   3.443   0.886  0.00  0.00    -0.012 A 
ATOM     29  C   UNL     1      14.877   3.762   1.264  0.00  0.00    +0.008 A 
ATOM     30  C   UNL     1      13.247   3.552  -0.456  0.00  0.00    +0.115 A 
ATOM     33  C   UNL     1      15.793   4.175   0.304  0.00  0.00    +0.020 A 
ATOM     34  C   UNL     1      15.364   4.252  -1.011  0.00  0.00    +0.111 A 
ENDBRANCH  24  28
ENDBRANCH   7  24
ENDBRANCH  18  20
ENDBRANCH  17  18
ENDBRANCH  11  17
TORSDOF 8
ENDMDL
MODEL 7
REMARK VINA RESULT:      -7.3     29.156     32.084
REMARK  Name = 26762363
REMARK  10 active torsions:
REMARK  status: ('A' for Active; 'I' for Inactive)
REMARK    1  A    between atoms: N_6  and  C_12
REMARK    2  A    between atoms: N_7  and  C_24
REMARK    3  A    between atoms: N_8  and  C_27
REMARK    4  A    between atoms: N_8  and  C_31
REMARK    5  A    between atoms: N_8  and  C_32
REMARK    6  A    between atoms: C_11  and  C_17
REMARK    7  A    between atoms: C_17  and  C_18
REMARK    8  A    between atoms: C_18  and  C_20
REMARK    9  A    between atoms: C_19  and  C_21
REMARK   10  A    between atoms: C_24  and  C_28
REMARK                            x       y       z     vdW  Elec       q    Type
REMARK                         _______ _______ _______ _____ _____    ______ ____
ROOT
ATOM      1  O   UNL     1     -15.901  -7.287  13.789  0.00  0.00    -0.274 OA
ATOM      4  N   UNL     1     -12.650  -5.950  14.182  0.00  0.00    -0.285 NA
ATOM      5  N   UNL     1     -14.382  -7.624  15.476  0.00  0.00    -0.313 N 
ATOM     10  C   UNL     1     -14.084  -5.724  13.977  0.00  0.00    +0.145 C 
ATOM     11  C   UNL     1     -12.368  -6.125  15.607  0.00  0.00    +0.075 C 
ATOM     12  C   UNL     1     -12.804  -4.667  12.232  0.00  0.00    +0.089 C 
ATOM     13  C   UNL     1     -14.151  -5.344  12.507  0.00  0.00    +0.052 C 
ATOM     14  C   UNL     1     -12.006  -4.808  13.533  0.00  0.00    +0.107 C 
ATOM     15  C   UNL     1     -13.054  -7.430  16.038  0.00  0.00    +0.123 C 
ATOM     16  C   UNL     1     -14.862  -6.962  14.361  0.00  0.00    +0.230 C 
ATOM     35  H   UNL     1     -14.917  -8.418  15.813  0.00  0.00    +0.149 HD
ENDROOT
BRANCH  12   6
ATOM      2  O   UNL     1     -12.217  -3.452   9.698  0.00  0.00    -0.270 OA
ATOM      6  N   UNL     1     -12.128  -5.283  11.118  0.00  0.00    -0.307 N 
ATOM     19  C   UNL     1     -11.889  -4.612   9.927  0.00  0.00    +0.244 C 
ATOM     36  H   UNL     1     -11.927  -6.274  11.196  0.00  0.00    +0.149 HD
BRANCH  19  21
ATOM     21  C   UNL     1     -11.204  -5.396   8.866  0.00  0.00    +0.037 A 
ATOM     22  C   UNL     1     -11.952  -6.175   7.983  0.00  0.00    +0.015 A 
ATOM     23  C   UNL     1      -9.815  -5.352   8.753  0.00  0.00    +0.015 A 
ATOM     25  C   UNL     1     -11.310  -6.911   6.987  0.00  0.00    +0.024 A 
ATOM     26  C   UNL     1      -9.173  -6.089   7.758  0.00  0.00    +0.024 A 
ATOM     27  C   UNL     1      -9.920  -6.869   6.875  0.00  0.00    +0.029 A 
BRANCH  27   8
ATOM      8  N   UNL     1      -9.271  -7.612   5.869  0.00  0.00    -0.336 N 
ATOM     31  C   UNL     1      -7.839  -7.833   5.927  0.00  0.00    +0.129 C 
ATOM     32  C   UNL     1     -10.027  -8.171   4.765  0.00  0.00    +0.129 C 
ENDBRANCH  27   8
ENDBRANCH  19  21
ENDBRANCH  12   6
BRANCH  11  17
ATOM     17  C   UNL     1     -10.871  -6.207  15.916  0.00  0.00    +0.029 C 
BRANCH  17  18
ATOM     18  C   UNL     1     -10.560  -7.403  16.807  0.00  0.00    +0.097 C 
BRANCH  18  20
ATOM      3  O   UNL     1      -9.803  -8.915  15.075  0.00  0.00    -0.276 OA
ATOM      7  N   UNL     1      -8.444  -8.540  16.919  0.00  0.00    -0.311 N 
ATOM     20  C   UNL     1      -9.587  -8.365  16.151  0.00  0.00    +0.213 C 
ATOM     37  H   UNL     1      -8.328  -8.023  17.785  0.00  0.00    +0.149 HD
BRANCH   7  24
ATOM     24  C   UNL     1      -7.366  -9.410  16.510  0.00  0.00    +0.141 C 
BRANCH  24  28
ATOM      9  N   UNL     1      -7.067 -11.127  19.866  0.00  0.00    -0.263 NA
ATOM     28  C   UNL     1      -6.774 -10.154  17.672  0.00  0.00    -0.012 A 
ATOM     29  C   UNL     1      -5.442 -10.554  17.665  0.00  0.00    +0.008 A 
ATOM     30  C   UNL     1      -7.537 -10.462  18.788  0.00  0.00    +0.115 A 
ATOM     33  C   UNL     1      -4.922 -11.241  18.755  0.00  0.00    +0.020 A 
ATOM     34  C   UNL     1      -5.768 -11.500  19.822  0.00  0.00    +0.111 A 
ENDBRANCH  24  28
ENDBRANCH   7  24
ENDBRANCH  18  20
ENDBRANCH  17  18
ENDBRANCH  11  17
TORSDOF 8
ENDMDL
MODEL 8
REMARK VINA RESULT:      -7.3     15.612     19.498
REMARK  Name = 26762363
REMARK  10 active torsions:
REMARK  status: ('A' for Active; 'I' for Inactive)
REMARK    1  A    between atoms: N_6  and  C_12
REMARK    2  A    between atoms: N_7  and  C_24
REMARK    3  A    between atoms: N_8  and  C_27
REMARK    4  A    between atoms: N_8  and  C_31
REMARK    5  A    between atoms: N_8  and  C_32
REMARK    6  A    between atoms: C_11  and  C_17
REMARK    7  A    between atoms: C_17  and  C_18
REMARK    8  A    between atoms: C_18  and  C_20
REMARK    9  A    between atoms: C_19  and  C_21
REMARK   10  A    between atoms: C_24  and  C_28
REMARK                            x       y       z     vdW  Elec       q    Type
REMARK                         _______ _______ _______ _____ _____    ______ ____
ROOT
ATOM      1  O   UNL     1      10.554   4.718   8.378  0.00  0.00    -0.274 OA
ATOM      4  N   UNL     1       9.314   6.731   5.747  0.00  0.00    -0.285 NA
ATOM      5  N   UNL     1       9.586   6.798   8.467  0.00  0.00    -0.313 N 
ATOM     10  C   UNL     1       9.309   5.448   6.455  0.00  0.00    +0.145 C 
ATOM     11  C   UNL     1       8.425   7.680   6.419  0.00  0.00    +0.075 C 
ATOM     12  C   UNL     1       9.794   5.122   4.118  0.00  0.00    +0.089 C 
ATOM     13  C   UNL     1      10.085   4.546   5.509  0.00  0.00    +0.052 C 
ATOM     14  C   UNL     1       8.967   6.387   4.368  0.00  0.00    +0.107 C 
ATOM     15  C   UNL     1       9.043   7.968   7.795  0.00  0.00    +0.123 C 
ATOM     16  C   UNL     1       9.913   5.615   7.831  0.00  0.00    +0.230 C 
ATOM     35  H   UNL     1       9.909   6.919   9.422  0.00  0.00    +0.149 HD
ENDROOT
BRANCH  12   6
ATOM      2  O   UNL     1      11.287   3.308   2.468  0.00  0.00    -0.270 OA
ATOM      6  N   UNL     1      11.016   5.411   3.408  0.00  0.00    -0.307 N 
ATOM     19  C   UNL     1      11.668   4.464   2.632  0.00  0.00    +0.244 C 
ATOM     36  H   UNL     1      11.447   6.311   3.586  0.00  0.00    +0.149 HD
BRANCH  19  21
ATOM     21  C   UNL     1      12.929   4.910   1.986  0.00  0.00    +0.037 A 
ATOM     22  C   UNL     1      13.374   6.221   2.159  0.00  0.00    +0.015 A 
ATOM     23  C   UNL     1      13.667   4.020   1.206  0.00  0.00    +0.015 A 
ATOM     25  C   UNL     1      14.559   6.641   1.552  0.00  0.00    +0.024 A 
ATOM     26  C   UNL     1      14.850   4.440   0.599  0.00  0.00    +0.024 A 
ATOM     27  C   UNL     1      15.296   5.751   0.771  0.00  0.00    +0.029 A 
BRANCH  27   8
ATOM      8  N   UNL     1      16.493   6.174   0.158  0.00  0.00    -0.336 N 
ATOM     31  C   UNL     1      17.209   7.328   0.664  0.00  0.00    +0.129 C 
ATOM     32  C   UNL     1      17.027   5.457  -0.983  0.00  0.00    +0.129 C 
ENDBRANCH  27   8
ENDBRANCH  19  21
ENDBRANCH  12   6
BRANCH  11  17
ATOM     17  C   UNL     1       8.256   8.992   5.648  0.00  0.00    +0.029 C 
BRANCH  17  18
ATOM     18  C   UNL     1       9.043  10.119   6.304  0.00  0.00    +0.097 C 
BRANCH  18  20
ATOM      3  O   UNL     1      10.975  11.442   5.690  0.00  0.00    -0.276 OA
ATOM      7  N   UNL     1      10.766   9.289   4.846  0.00  0.00    -0.311 N 
ATOM     20  C   UNL     1      10.360  10.383   5.598  0.00  0.00    +0.213 C 
ATOM     37  H   UNL     1      10.214   8.437   4.847  0.00  0.00    +0.149 HD
BRANCH   7  24
ATOM     24  C   UNL     1      11.989   9.292   4.079  0.00  0.00    +0.141 C 
BRANCH  24  28
ATOM      9  N   UNL     1      15.515   8.662   5.290  0.00  0.00    -0.263 NA
ATOM     28  C   UNL     1      13.138   8.712   4.851  0.00  0.00    -0.012 A 
ATOM     29  C   UNL     1      12.933   7.725   5.809  0.00  0.00    +0.008 A 
ATOM     30  C   UNL     1      14.437   9.142   4.631  0.00  0.00    +0.115 A 
ATOM     33  C   UNL     1      14.017   7.206   6.508  0.00  0.00    +0.020 A 
ATOM     34  C   UNL     1      15.276   7.703   6.214  0.00  0.00    +0.111 A 
ENDBRANCH  24  28
ENDBRANCH   7  24
ENDBRANCH  18  20
ENDBRANCH  17  18
ENDBRANCH  11  17
TORSDOF 8
ENDMDL
MODEL 9
REMARK VINA RESULT:      -7.3     28.323     30.725
REMARK  Name = 26762363
REMARK  10 active torsions:
REMARK  status: ('A' for Active; 'I' for Inactive)
REMARK    1  A    between atoms: N_6  and  C_12
REMARK    2  A    between atoms: N_7  and  C_24
REMARK    3  A    between atoms: N_8  and  C_27
REMARK    4  A    between atoms: N_8  and  C_31
REMARK    5  A    between atoms: N_8  and  C_32
REMARK    6  A    between atoms: C_11  and  C_17
REMARK    7  A    between atoms: C_17  and  C_18
REMARK    8  A    between atoms: C_18  and  C_20
REMARK    9  A    between atoms: C_19  and  C_21
REMARK   10  A    between atoms: C_24  and  C_28
REMARK                            x       y       z     vdW  Elec       q    Type
REMARK                         _______ _______ _______ _____ _____    ______ ____
ROOT
ATOM      1  O   UNL     1      -2.755 -15.269  12.172  0.00  0.00    -0.274 OA
ATOM      4  N   UNL     1      -3.376 -11.824  12.680  0.00  0.00    -0.285 NA
ATOM      5  N   UNL     1      -3.355 -13.657  10.651  0.00  0.00    -0.313 N 
ATOM     10  C   UNL     1      -2.474 -12.971  12.819  0.00  0.00    +0.145 C 
ATOM     11  C   UNL     1      -3.248 -11.243  11.343  0.00  0.00    +0.075 C 
ATOM     12  C   UNL     1      -2.863 -11.937  14.959  0.00  0.00    +0.089 C 
ATOM     13  C   UNL     1      -2.573 -13.291  14.301  0.00  0.00    +0.052 C 
ATOM     14  C   UNL     1      -3.028 -10.950  13.799  0.00  0.00    +0.107 C 
ATOM     15  C   UNL     1      -3.766 -12.295  10.351  0.00  0.00    +0.123 C 
ATOM     16  C   UNL     1      -2.903 -14.081  11.887  0.00  0.00    +0.230 C 
ATOM     35  H   UNL     1      -3.583 -14.373   9.968  0.00  0.00    +0.149 HD
ENDROOT
BRANCH  12   6
ATOM      2  O   UNL     1      -3.854  -9.877  16.696  0.00  0.00    -0.270 OA
ATOM      6  N   UNL     1      -4.045 -12.000  15.783  0.00  0.00    -0.307 N 
ATOM     19  C   UNL     1      -4.446 -10.948  16.594  0.00  0.00    +0.244 C 
ATOM     36  H   UNL     1      -4.520 -12.895  15.833  0.00  0.00    +0.149 HD
BRANCH  19  21
ATOM     21  C   UNL     1      -5.671 -11.180  17.401  0.00  0.00    +0.037 A 
ATOM     22  C   UNL     1      -6.925 -11.137  16.793  0.00  0.00    +0.015 A 
ATOM     23  C   UNL     1      -5.567 -11.441  18.768  0.00  0.00    +0.015 A 
ATOM     25  C   UNL     1      -8.077 -11.355  17.551  0.00  0.00    +0.024 A 
ATOM     26  C   UNL     1      -6.717 -11.658  19.525  0.00  0.00    +0.024 A 
ATOM     27  C   UNL     1      -7.973 -11.614  18.917  0.00  0.00    +0.029 A 
BRANCH  27   8
ATOM      8  N   UNL     1      -9.135 -11.835  19.684  0.00  0.00    -0.336 N 
ATOM     31  C   UNL     1     -10.009 -10.731  20.026  0.00  0.00    +0.129 C 
ATOM     32  C   UNL     1      -9.475 -13.170  20.134  0.00  0.00    +0.129 C 
ENDBRANCH  27   8
ENDBRANCH  19  21
ENDBRANCH  12   6
BRANCH  11  17
ATOM     17  C   UNL     1      -4.042  -9.945  11.175  0.00  0.00    +0.029 C 
BRANCH  17  18
ATOM     18  C   UNL     1      -3.730  -9.279   9.841  0.00  0.00    +0.097 C 
BRANCH  18  20
ATOM      3  O   UNL     1      -5.849  -8.250   9.286  0.00  0.00    -0.276 OA
ATOM      7  N   UNL     1      -4.998  -9.904   7.896  0.00  0.00    -0.311 N 
ATOM     20  C   UNL     1      -4.977  -9.067   9.003  0.00  0.00    +0.213 C 
ATOM     37  H   UNL     1      -4.221 -10.531   7.717  0.00  0.00    +0.149 HD
BRANCH   7  24
ATOM     24  C   UNL     1      -6.083  -9.893   6.943  0.00  0.00    +0.141 C 
BRANCH  24  28
ATOM      9  N   UNL     1      -6.390 -11.443   3.507  0.00  0.00    -0.263 NA
ATOM     28  C   UNL     1      -5.774 -10.726   5.732  0.00  0.00    -0.012 A 
ATOM     29  C   UNL     1      -4.642 -11.534   5.686  0.00  0.00    +0.008 A 
ATOM     30  C   UNL     1      -6.609 -10.717   4.626  0.00  0.00    +0.115 A 
ATOM     33  C   UNL     1      -4.383 -12.295   4.552  0.00  0.00    +0.020 A 
ATOM     34  C   UNL     1      -5.280 -12.215   3.499  0.00  0.00    +0.111 A 
ENDBRANCH  24  28
ENDBRANCH   7  24
ENDBRANCH  18  20
ENDBRANCH  17  18
ENDBRANCH  11  17
TORSDOF 8
ENDMDL
MODEL 10
REMARK VINA RESULT:      -7.2      3.011      5.207
REMARK  Name = 26762363
REMARK  10 active torsions:
REMARK  status: ('A' for Active; 'I' for Inactive)
REMARK    1  A    between atoms: N_6  and  C_12
REMARK    2  A    between atoms: N_7  and  C_24
REMARK    3  A    between atoms: N_8  and  C_27
REMARK    4  A    between atoms: N_8  and  C_31
REMARK    5  A    between atoms: N_8  and  C_32
REMARK    6  A    between atoms: C_11  and  C_17
REMARK    7  A    between atoms: C_17  and  C_18
REMARK    8  A    between atoms: C_18  and  C_20
REMARK    9  A    between atoms: C_19  and  C_21
REMARK   10  A    between atoms: C_24  and  C_28
REMARK                            x       y       z     vdW  Elec       q    Type
REMARK                         _______ _______ _______ _____ _____    ______ ____
ROOT
ATOM      1  O   UNL     1      11.517   9.187  17.625  0.00  0.00    -0.274 OA
ATOM      4  N   UNL     1      13.193   7.556  20.278  0.00  0.00    -0.285 NA
ATOM      5  N   UNL     1      13.617   8.262  17.670  0.00  0.00    -0.313 N 
ATOM     10  C   UNL     1      12.017   7.655  19.408  0.00  0.00    +0.145 C 
ATOM     11  C   UNL     1      14.249   6.794  19.611  0.00  0.00    +0.075 C 
ATOM     12  C   UNL     1      11.367   7.756  21.725  0.00  0.00    +0.089 C 
ATOM     13  C   UNL     1      10.974   8.262  20.332  0.00  0.00    +0.052 C 
ATOM     14  C   UNL     1      12.677   6.989  21.524  0.00  0.00    +0.107 C 
ATOM     15  C   UNL     1      14.702   7.627  18.403  0.00  0.00    +0.123 C 
ATOM     16  C   UNL     1      12.350   8.474  18.182  0.00  0.00    +0.230 C 
ATOM     35  H   UNL     1      13.855   8.735  16.805  0.00  0.00    +0.149 HD
ENDROOT
BRANCH  12   6
ATOM      2  O   UNL     1      11.665  10.535  21.066  0.00  0.00    -0.270 OA
ATOM      6  N   UNL     1      11.521   8.850  22.652  0.00  0.00    -0.307 N 
ATOM     19  C   UNL     1      11.659  10.166  22.237  0.00  0.00    +0.244 C 
ATOM     36  H   UNL     1      11.636   8.607  23.631  0.00  0.00    +0.149 HD
BRANCH  19  21
ATOM     21  C   UNL     1      11.834  11.173  23.315  0.00  0.00    +0.037 A 
ATOM     22  C   UNL     1      13.116  11.521  23.741  0.00  0.00    +0.015 A 
ATOM     23  C   UNL     1      10.718  11.769  23.902  0.00  0.00    +0.015 A 
ATOM     25  C   UNL     1      13.282  12.467  24.754  0.00  0.00    +0.024 A 
ATOM     26  C   UNL     1      10.884  12.713  24.915  0.00  0.00    +0.024 A 
ATOM     27  C   UNL     1      12.165  13.062  25.342  0.00  0.00    +0.029 A 
BRANCH  27   8
ATOM      8  N   UNL     1      12.332  14.017  26.365  0.00  0.00    -0.336 N 
ATOM     31  C   UNL     1      11.265  14.945  26.684  0.00  0.00    +0.129 C 
ATOM     32  C   UNL     1      13.569  14.080  27.117  0.00  0.00    +0.129 C 
ENDBRANCH  27   8
ENDBRANCH  19  21
ENDBRANCH  12   6
BRANCH  11  17
ATOM     17  C   UNL     1      15.450   6.513  20.518  0.00  0.00    +0.029 C 
BRANCH  17  18
ATOM     18  C   UNL     1      16.516   7.590  20.367  0.00  0.00    +0.097 C 
BRANCH  18  20
ATOM      3  O   UNL     1      15.629   8.826  22.251  0.00  0.00    -0.276 OA
ATOM      7  N   UNL     1      16.553   9.992  20.470  0.00  0.00    -0.311 N 
ATOM     20  C   UNL     1      16.175   8.844  21.151  0.00  0.00    +0.213 C 
ATOM     37  H   UNL     1      17.028   9.921  19.575  0.00  0.00    +0.149 HD
BRANCH   7  24
ATOM     24  C   UNL     1      16.335  11.315  21.007  0.00  0.00    +0.141 C 
BRANCH  24  28
ATOM      9  N   UNL     1      13.517  12.044  18.592  0.00  0.00    -0.263 NA
ATOM     28  C   UNL     1      15.158  11.994  20.367  0.00  0.00    -0.012 A 
ATOM     29  C   UNL     1      14.622  13.158  20.906  0.00  0.00    +0.008 A 
ATOM     30  C   UNL     1      14.575  11.482  19.218  0.00  0.00    +0.115 A 
ATOM     33  C   UNL     1      13.533  13.765  20.291  0.00  0.00    +0.020 A 
ATOM     34  C   UNL     1      13.022  13.174  19.146  0.00  0.00    +0.111 A 
ENDBRANCH  24  28
ENDBRANCH   7  24
ENDBRANCH  18  20
ENDBRANCH  17  18
ENDBRANCH  11  17
TORSDOF 8
ENDMDL
