MODEL 1
REMARK VINA RESULT:      -7.7      0.000      0.000
REMARK  Name = 11866179
REMARK  4 active torsions:
REMARK  status: ('A' for Active; 'I' for Inactive)
REMARK    1  A    between atoms: N_6  and  C_23
REMARK    2  A    between atoms: C_8  and  C_16
REMARK    3  A    between atoms: C_13  and  C_20
REMARK    4  A    between atoms: C_15  and  C_21
REMARK                            x       y       z     vdW  Elec       q    Type
REMARK                         _______ _______ _______ _____ _____    ______ ____
ROOT
ATOM      1  S   UNL     1      13.724   7.796   3.249  0.00  0.00    -0.057 S 
ATOM      3  O   UNL     1      10.979   3.266  -1.184  0.00  0.00    -0.461 OA
ATOM      4  O   UNL     1       9.983   2.016  -2.837  0.00  0.00    -0.251 OA
ATOM      5  N   UNL     1      11.800   6.092   3.542  0.00  0.00    -0.229 NA
ATOM      6  N   UNL     1      12.113   7.578   5.356  0.00  0.00    -0.294 N 
ATOM      7  C   UNL     1      12.521   4.885  -0.022  0.00  0.00    +0.045 C 
ATOM      8  C   UNL     1      14.070   5.245   0.042  0.00  0.00    -0.021 C 
ATOM      9  C   UNL     1      12.328   3.644  -0.909  0.00  0.00    +0.184 C 
ATOM     10  C   UNL     1      12.866   3.903  -2.303  0.00  0.00    +0.044 C 
ATOM     11  C   UNL     1      14.670   5.344  -1.394  0.00  0.00    +0.008 C 
ATOM     12  C   UNL     1      14.365   4.131  -2.285  0.00  0.00    +0.008 C 
ATOM     13  C   UNL     1      11.869   4.763   1.402  0.00  0.00    +0.043 C 
ATOM     14  C   UNL     1      14.243   6.629   0.739  0.00  0.00    +0.051 C 
ATOM     15  C   UNL     1      12.324   2.695  -3.041  0.00  0.00    +0.101 C 
ATOM     16  C   UNL     1      14.885   4.185   0.830  0.00  0.00    +0.012 C 
ATOM     17  C   UNL     1      12.368   5.868   2.301  0.00  0.00    +0.057 A 
ATOM     18  C   UNL     1      13.436   6.685   1.991  0.00  0.00    +0.015 A 
ATOM     19  C   UNL     1      10.958   2.597  -2.387  0.00  0.00    +0.311 C 
ATOM     20  C   UNL     1      10.336   4.771   1.348  0.00  0.00    +0.014 C 
ATOM     21  C   UNL     1      12.240   2.898  -4.543  0.00  0.00    +0.019 C 
ATOM     22  C   UNL     1      12.427   7.091   4.127  0.00  0.00    +0.163 A 
ATOM     29  H   UNL     1      12.564   8.444   5.641  0.00  0.00    +0.154 HD
ENDROOT
BRANCH   6  23
ATOM      2  F   UNL     1       8.528   5.686   9.130  0.00  0.00    -0.205 F 
ATOM     23  C   UNL     1      11.195   7.093   6.322  0.00  0.00    +0.033 A 
ATOM     24  C   UNL     1       9.860   7.476   6.256  0.00  0.00    +0.026 A 
ATOM     25  C   UNL     1      11.638   6.239   7.326  0.00  0.00    +0.026 A 
ATOM     26  C   UNL     1       8.957   7.000   7.208  0.00  0.00    +0.040 A 
ATOM     27  C   UNL     1      10.735   5.763   8.276  0.00  0.00    +0.040 A 
ATOM     28  C   UNL     1       9.394   6.143   8.217  0.00  0.00    +0.124 A 
ENDBRANCH   6  23
TORSDOF 1
ENDMDL
MODEL 2
REMARK VINA RESULT:      -7.6     18.583     21.147
REMARK  Name = 11866179
REMARK  4 active torsions:
REMARK  status: ('A' for Active; 'I' for Inactive)
REMARK    1  A    between atoms: N_6  and  C_23
REMARK    2  A    between atoms: C_8  and  C_16
REMARK    3  A    between atoms: C_13  and  C_20
REMARK    4  A    between atoms: C_15  and  C_21
REMARK                            x       y       z     vdW  Elec       q    Type
REMARK                         _______ _______ _______ _____ _____    ______ ____
ROOT
ATOM      1  S   UNL     1      16.918   5.828  18.526  0.00  0.00    -0.057 S 
ATOM      3  O   UNL     1      14.367  10.918  22.438  0.00  0.00    -0.461 OA
ATOM      4  O   UNL     1      13.564  12.802  23.482  0.00  0.00    -0.251 OA
ATOM      5  N   UNL     1      17.778   6.859  20.737  0.00  0.00    -0.229 NA
ATOM      6  N   UNL     1      19.241   5.308  19.714  0.00  0.00    -0.294 N 
ATOM      7  C   UNL     1      14.631   9.045  20.772  0.00  0.00    +0.045 C 
ATOM      8  C   UNL     1      13.737   7.979  20.001  0.00  0.00    -0.021 C 
ATOM      9  C   UNL     1      13.747   9.824  21.760  0.00  0.00    +0.184 C 
ATOM     10  C   UNL     1      12.618  10.518  21.022  0.00  0.00    +0.044 C 
ATOM     11  C   UNL     1      12.478   8.662  19.383  0.00  0.00    +0.008 C 
ATOM     12  C   UNL     1      11.680   9.518  20.376  0.00  0.00    +0.008 C 
ATOM     13  C   UNL     1      15.910   8.405  21.424  0.00  0.00    +0.043 C 
ATOM     14  C   UNL     1      14.573   7.356  18.841  0.00  0.00    +0.051 C 
ATOM     15  C   UNL     1      12.079  11.417  22.118  0.00  0.00    +0.101 C 
ATOM     16  C   UNL     1      13.253   6.837  20.934  0.00  0.00    +0.012 C 
ATOM     17  C   UNL     1      16.538   7.414  20.475  0.00  0.00    +0.057 A 
ATOM     18  C   UNL     1      15.920   6.950  19.330  0.00  0.00    +0.015 A 
ATOM     19  C   UNL     1      13.387  11.827  22.769  0.00  0.00    +0.311 C 
ATOM     20  C   UNL     1      16.939   9.459  21.852  0.00  0.00    +0.014 C 
ATOM     21  C   UNL     1      11.293  12.602  21.589  0.00  0.00    +0.019 C 
ATOM     22  C   UNL     1      18.083   6.018  19.772  0.00  0.00    +0.163 A 
ATOM     29  H   UNL     1      19.435   4.806  18.850  0.00  0.00    +0.154 HD
ENDROOT
BRANCH   6  23
ATOM      2  F   UNL     1      23.314   4.821  23.436  0.00  0.00    -0.205 F 
ATOM     23  C   UNL     1      20.284   5.183  20.667  0.00  0.00    +0.033 A 
ATOM     24  C   UNL     1      20.917   3.957  20.839  0.00  0.00    +0.026 A 
ATOM     25  C   UNL     1      20.665   6.289  21.420  0.00  0.00    +0.026 A 
ATOM     26  C   UNL     1      21.942   3.834  21.777  0.00  0.00    +0.040 A 
ATOM     27  C   UNL     1      21.690   6.166  22.357  0.00  0.00    +0.040 A 
ATOM     28  C   UNL     1      22.330   4.938  22.535  0.00  0.00    +0.124 A 
ENDBRANCH   6  23
TORSDOF 1
ENDMDL
MODEL 3
REMARK VINA RESULT:      -7.3     24.898     28.384
REMARK  Name = 11866179
REMARK  4 active torsions:
REMARK  status: ('A' for Active; 'I' for Inactive)
REMARK    1  A    between atoms: N_6  and  C_23
REMARK    2  A    between atoms: C_8  and  C_16
REMARK    3  A    between atoms: C_13  and  C_20
REMARK    4  A    between atoms: C_15  and  C_21
REMARK                            x       y       z     vdW  Elec       q    Type
REMARK                         _______ _______ _______ _____ _____    ______ ____
ROOT
ATOM      1  S   UNL     1      -2.235 -10.677  14.328  0.00  0.00    -0.057 S 
ATOM      3  O   UNL     1      -8.252 -12.786  16.983  0.00  0.00    -0.461 OA
ATOM      4  O   UNL     1     -10.106 -13.769  17.923  0.00  0.00    -0.251 OA
ATOM      5  N   UNL     1      -4.564 -10.951  13.238  0.00  0.00    -0.229 NA
ATOM      6  N   UNL     1      -2.805 -10.445  11.740  0.00  0.00    -0.294 N 
ATOM      7  C   UNL     1      -5.911 -11.900  16.697  0.00  0.00    +0.045 C 
ATOM      8  C   UNL     1      -4.850 -11.014  17.485  0.00  0.00    -0.021 C 
ATOM      9  C   UNL     1      -7.232 -11.921  17.484  0.00  0.00    +0.184 C 
ATOM     10  C   UNL     1      -7.008 -12.481  18.875  0.00  0.00    +0.044 C 
ATOM     11  C   UNL     1      -4.741 -11.478  18.970  0.00  0.00    +0.008 C 
ATOM     12  C   UNL     1      -6.092 -11.591  19.691  0.00  0.00    +0.008 C 
ATOM     13  C   UNL     1      -6.066 -11.465  15.195  0.00  0.00    +0.043 C 
ATOM     14  C   UNL     1      -3.450 -11.183  16.818  0.00  0.00    +0.051 C 
ATOM     15  C   UNL     1      -8.440 -12.667  19.336  0.00  0.00    +0.101 C 
ATOM     16  C   UNL     1      -5.225  -9.508  17.480  0.00  0.00    +0.012 C 
ATOM     17  C   UNL     1      -4.713 -11.168  14.596  0.00  0.00    +0.057 A 
ATOM     18  C   UNL     1      -3.557 -11.036  15.339  0.00  0.00    +0.015 A 
ATOM     19  C   UNL     1      -9.058 -13.153  18.038  0.00  0.00    +0.311 C 
ATOM     20  C   UNL     1      -6.802 -12.517  14.354  0.00  0.00    +0.014 C 
ATOM     21  C   UNL     1      -8.582 -13.672  20.464  0.00  0.00    +0.019 C 
ATOM     22  C   UNL     1      -3.299 -10.694  12.981  0.00  0.00    +0.163 A 
ATOM     29  H   UNL     1      -1.793 -10.409  11.641  0.00  0.00    +0.154 HD
ENDROOT
BRANCH   6  23
ATOM      2  F   UNL     1      -5.453  -9.756   6.924  0.00  0.00    -0.205 F 
ATOM     23  C   UNL     1      -3.483 -10.268  10.506  0.00  0.00    +0.033 A 
ATOM     24  C   UNL     1      -3.789  -8.985  10.067  0.00  0.00    +0.026 A 
ATOM     25  C   UNL     1      -3.834 -11.380   9.748  0.00  0.00    +0.026 A 
ATOM     26  C   UNL     1      -4.457  -8.812   8.853  0.00  0.00    +0.040 A 
ATOM     27  C   UNL     1      -4.500 -11.206   8.536  0.00  0.00    +0.040 A 
ATOM     28  C   UNL     1      -4.812  -9.922   8.088  0.00  0.00    +0.124 A 
ENDBRANCH   6  23
TORSDOF 1
ENDMDL
MODEL 4
REMARK VINA RESULT:      -7.1     25.775     28.650
REMARK  Name = 11866179
REMARK  4 active torsions:
REMARK  status: ('A' for Active; 'I' for Inactive)
REMARK    1  A    between atoms: N_6  and  C_23
REMARK    2  A    between atoms: C_8  and  C_16
REMARK    3  A    between atoms: C_13  and  C_20
REMARK    4  A    between atoms: C_15  and  C_21
REMARK                            x       y       z     vdW  Elec       q    Type
REMARK                         _______ _______ _______ _____ _____    ______ ____
ROOT
ATOM      1  S   UNL     1      -6.014 -10.679  19.311  0.00  0.00    -0.057 S 
ATOM      3  O   UNL     1      -5.710 -10.069  12.438  0.00  0.00    -0.461 OA
ATOM      4  O   UNL     1      -5.497  -9.567  10.205  0.00  0.00    -0.251 OA
ATOM      5  N   UNL     1      -7.875 -10.773  17.519  0.00  0.00    -0.229 NA
ATOM      6  N   UNL     1      -8.634 -10.776  19.759  0.00  0.00    -0.294 N 
ATOM      7  C   UNL     1      -5.134 -10.441  14.863  0.00  0.00    +0.045 C 
ATOM      8  C   UNL     1      -4.026 -11.168  15.744  0.00  0.00    -0.021 C 
ATOM      9  C   UNL     1      -4.884 -10.757  13.379  0.00  0.00    +0.184 C 
ATOM     10  C   UNL     1      -3.499 -10.297  12.968  0.00  0.00    +0.044 C 
ATOM     11  C   UNL     1      -2.597 -10.833  15.216  0.00  0.00    +0.008 C 
ATOM     12  C   UNL     1      -2.418 -11.060  13.708  0.00  0.00    +0.008 C 
ATOM     13  C   UNL     1      -6.595 -10.754  15.348  0.00  0.00    +0.043 C 
ATOM     14  C   UNL     1      -4.132 -10.662  17.215  0.00  0.00    +0.051 C 
ATOM     15  C   UNL     1      -3.591 -10.444  11.462  0.00  0.00    +0.101 C 
ATOM     16  C   UNL     1      -4.190 -12.711  15.735  0.00  0.00    +0.012 C 
ATOM     17  C   UNL     1      -6.663 -10.719  16.855  0.00  0.00    +0.057 A 
ATOM     18  C   UNL     1      -5.550 -10.687  17.673  0.00  0.00    +0.015 A 
ATOM     19  C   UNL     1      -5.017  -9.970  11.252  0.00  0.00    +0.311 C 
ATOM     20  C   UNL     1      -7.631  -9.796  14.745  0.00  0.00    +0.014 C 
ATOM     21  C   UNL     1      -2.577  -9.598  10.713  0.00  0.00    +0.019 C 
ATOM     22  C   UNL     1      -7.656 -10.748  18.816  0.00  0.00    +0.163 A 
ATOM     29  H   UNL     1      -8.357 -10.600  20.721  0.00  0.00    +0.154 HD
ENDROOT
BRANCH   6  23
ATOM      2  F   UNL     1     -14.095 -11.523  19.207  0.00  0.00    -0.205 F 
ATOM     23  C   UNL     1     -10.033 -10.967  19.617  0.00  0.00    +0.033 A 
ATOM     24  C   UNL     1     -10.828  -9.922  19.162  0.00  0.00    +0.026 A 
ATOM     25  C   UNL     1     -10.595 -12.199  19.935  0.00  0.00    +0.026 A 
ATOM     26  C   UNL     1     -12.204 -10.110  19.023  0.00  0.00    +0.040 A 
ATOM     27  C   UNL     1     -11.970 -12.387  19.796  0.00  0.00    +0.040 A 
ATOM     28  C   UNL     1     -12.775 -11.342  19.340  0.00  0.00    +0.124 A 
ENDBRANCH   6  23
TORSDOF 1
ENDMDL
MODEL 5
REMARK VINA RESULT:      -7.0     31.004     35.080
REMARK  Name = 11866179
REMARK  4 active torsions:
REMARK  status: ('A' for Active; 'I' for Inactive)
REMARK    1  A    between atoms: N_6  and  C_23
REMARK    2  A    between atoms: C_8  and  C_16
REMARK    3  A    between atoms: C_13  and  C_20
REMARK    4  A    between atoms: C_15  and  C_21
REMARK                            x       y       z     vdW  Elec       q    Type
REMARK                         _______ _______ _______ _____ _____    ______ ____
ROOT
ATOM      1  S   UNL     1     -18.088   3.099  23.710  0.00  0.00    -0.057 S 
ATOM      3  O   UNL     1     -12.780   6.795  21.287  0.00  0.00    -0.461 OA
ATOM      4  O   UNL     1     -10.977   7.787  20.263  0.00  0.00    -0.251 OA
ATOM      5  N   UNL     1     -15.873   3.819  24.833  0.00  0.00    -0.229 NA
ATOM      6  N   UNL     1     -17.195   2.314  26.090  0.00  0.00    -0.294 N 
ATOM      7  C   UNL     1     -15.054   5.766  21.637  0.00  0.00    +0.045 C 
ATOM      8  C   UNL     1     -16.578   6.052  21.278  0.00  0.00    -0.021 C 
ATOM      9  C   UNL     1     -14.195   6.951  21.164  0.00  0.00    +0.184 C 
ATOM     10  C   UNL     1     -14.355   7.155  19.670  0.00  0.00    +0.044 C 
ATOM     11  C   UNL     1     -16.726   6.433  19.773  0.00  0.00    +0.008 C 
ATOM     12  C   UNL     1     -15.774   7.547  19.313  0.00  0.00    +0.008 C 
ATOM     13  C   UNL     1     -14.848   5.388  23.148  0.00  0.00    +0.043 C 
ATOM     14  C   UNL     1     -17.413   4.762  21.539  0.00  0.00    +0.051 C 
ATOM     15  C   UNL     1     -13.239   8.145  19.402  0.00  0.00    +0.101 C 
ATOM     16  C   UNL     1     -17.171   7.209  22.125  0.00  0.00    +0.012 C 
ATOM     17  C   UNL     1     -15.937   4.447  23.603  0.00  0.00    +0.057 A 
ATOM     18  C   UNL     1     -17.081   4.187  22.874  0.00  0.00    +0.015 A 
ATOM     19  C   UNL     1     -12.178   7.583  20.331  0.00  0.00    +0.311 C 
ATOM     20  C   UNL     1     -13.468   4.774  23.416  0.00  0.00    +0.014 C 
ATOM     21  C   UNL     1     -12.793   8.169  17.952  0.00  0.00    +0.019 C 
ATOM     22  C   UNL     1     -16.947   3.076  24.992  0.00  0.00    +0.163 A 
ATOM     29  H   UNL     1     -17.979   1.668  26.039  0.00  0.00    +0.154 HD
ENDROOT
BRANCH   6  23
ATOM      2  F   UNL     1     -14.454   1.982  30.892  0.00  0.00    -0.205 F 
ATOM     23  C   UNL     1     -16.493   2.229  27.320  0.00  0.00    +0.033 A 
ATOM     24  C   UNL     1     -16.319   0.991  27.929  0.00  0.00    +0.026 A 
ATOM     25  C   UNL     1     -15.985   3.384  27.904  0.00  0.00    +0.026 A 
ATOM     26  C   UNL     1     -15.629   0.908  29.139  0.00  0.00    +0.040 A 
ATOM     27  C   UNL     1     -15.295   3.300  29.113  0.00  0.00    +0.040 A 
ATOM     28  C   UNL     1     -15.117   2.062  29.731  0.00  0.00    +0.124 A 
ENDBRANCH   6  23
TORSDOF 1
ENDMDL
MODEL 6
REMARK VINA RESULT:      -6.9     25.972     29.695
REMARK  Name = 11866179
REMARK  4 active torsions:
REMARK  status: ('A' for Active; 'I' for Inactive)
REMARK    1  A    between atoms: N_6  and  C_23
REMARK    2  A    between atoms: C_8  and  C_16
REMARK    3  A    between atoms: C_13  and  C_20
REMARK    4  A    between atoms: C_15  and  C_21
REMARK                            x       y       z     vdW  Elec       q    Type
REMARK                         _______ _______ _______ _____ _____    ______ ____
ROOT
ATOM      1  S   UNL     1      -4.830 -13.441  16.663  0.00  0.00    -0.057 S 
ATOM      3  O   UNL     1     -10.365  -9.317  16.903  0.00  0.00    -0.461 OA
ATOM      4  O   UNL     1     -12.377  -8.204  16.893  0.00  0.00    -0.251 OA
ATOM      5  N   UNL     1      -5.416 -11.314  15.315  0.00  0.00    -0.229 NA
ATOM      6  N   UNL     1      -3.480 -12.463  14.590  0.00  0.00    -0.294 N 
ATOM      7  C   UNL     1      -8.575 -11.001  17.460  0.00  0.00    +0.045 C 
ATOM      8  C   UNL     1      -7.922 -11.692  18.736  0.00  0.00    -0.021 C 
ATOM      9  C   UNL     1      -9.585  -9.939  17.925  0.00  0.00    +0.184 C 
ATOM     10  C   UNL     1     -10.659 -10.574  18.788  0.00  0.00    +0.044 C 
ATOM     11  C   UNL     1      -9.026 -12.197  19.714  0.00  0.00    +0.008 C 
ATOM     12  C   UNL     1     -10.079 -11.136  20.071  0.00  0.00    +0.008 C 
ATOM     13  C   UNL     1      -7.502 -10.464  16.446  0.00  0.00    +0.043 C 
ATOM     14  C   UNL     1      -7.080 -12.921  18.274  0.00  0.00    +0.051 C 
ATOM     15  C   UNL     1     -11.654  -9.435  18.880  0.00  0.00    +0.101 C 
ATOM     16  C   UNL     1      -6.996 -10.722  19.518  0.00  0.00    +0.012 C 
ATOM     17  C   UNL     1      -6.383 -11.465  16.292  0.00  0.00    +0.057 A 
ATOM     18  C   UNL     1      -6.206 -12.552  17.125  0.00  0.00    +0.015 A 
ATOM     19  C   UNL     1     -11.552  -8.900  17.463  0.00  0.00    +0.311 C 
ATOM     20  C   UNL     1      -8.107 -10.127  15.077  0.00  0.00    +0.014 C 
ATOM     21  C   UNL     1     -13.058  -9.892  19.233  0.00  0.00    +0.019 C 
ATOM     22  C   UNL     1      -4.553 -12.302  15.409  0.00  0.00    +0.163 A 
ATOM     29  H   UNL     1      -2.971 -13.340  14.658  0.00  0.00    +0.154 HD
ENDROOT
BRANCH   6  23
ATOM      2  F   UNL     1      -1.458  -9.113  10.669  0.00  0.00    -0.205 F 
ATOM     23  C   UNL     1      -2.963 -11.605  13.585  0.00  0.00    +0.033 A 
ATOM     24  C   UNL     1      -3.457 -11.686  12.289  0.00  0.00    +0.026 A 
ATOM     25  C   UNL     1      -1.966 -10.689  13.908  0.00  0.00    +0.026 A 
ATOM     26  C   UNL     1      -2.946 -10.843  11.300  0.00  0.00    +0.040 A 
ATOM     27  C   UNL     1      -1.457  -9.846  12.921  0.00  0.00    +0.040 A 
ATOM     28  C   UNL     1      -1.948  -9.923  11.616  0.00  0.00    +0.124 A 
ENDBRANCH   6  23
TORSDOF 1
ENDMDL
MODEL 7
REMARK VINA RESULT:      -6.9     23.707     25.861
REMARK  Name = 11866179
REMARK  4 active torsions:
REMARK  status: ('A' for Active; 'I' for Inactive)
REMARK    1  A    between atoms: N_6  and  C_23
REMARK    2  A    between atoms: C_8  and  C_16
REMARK    3  A    between atoms: C_13  and  C_20
REMARK    4  A    between atoms: C_15  and  C_21
REMARK                            x       y       z     vdW  Elec       q    Type
REMARK                         _______ _______ _______ _____ _____    ______ ____
ROOT
ATOM      1  S   UNL     1      -7.046  -9.370   7.375  0.00  0.00    -0.057 S 
ATOM      3  O   UNL     1      -5.254 -10.318  13.977  0.00  0.00    -0.461 OA
ATOM      4  O   UNL     1      -4.783 -10.930  16.143  0.00  0.00    -0.251 OA
ATOM      5  N   UNL     1      -7.809  -8.157   9.527  0.00  0.00    -0.229 NA
ATOM      6  N   UNL     1      -8.991  -7.565   7.566  0.00  0.00    -0.294 N 
ATOM      7  C   UNL     1      -5.296 -10.312  11.457  0.00  0.00    +0.045 C 
ATOM      8  C   UNL     1      -4.291 -10.449  10.232  0.00  0.00    -0.021 C 
ATOM      9  C   UNL     1      -4.493 -10.298  12.769  0.00  0.00    +0.184 C 
ATOM     10  C   UNL     1      -3.675 -11.569  12.898  0.00  0.00    +0.044 C 
ATOM     11  C   UNL     1      -3.329 -11.658  10.444  0.00  0.00    +0.008 C 
ATOM     12  C   UNL     1      -2.626 -11.667  11.809  0.00  0.00    +0.008 C 
ATOM     13  C   UNL     1      -6.283  -9.100  11.298  0.00  0.00    +0.043 C 
ATOM     14  C   UNL     1      -5.109 -10.700   8.928  0.00  0.00    +0.051 C 
ATOM     15  C   UNL     1      -3.217 -11.460  14.339  0.00  0.00    +0.101 C 
ATOM     16  C   UNL     1      -3.425  -9.176  10.039  0.00  0.00    +0.012 C 
ATOM     17  C   UNL     1      -6.784  -9.018   9.877  0.00  0.00    +0.057 A 
ATOM     18  C   UNL     1      -6.241  -9.735   8.830  0.00  0.00    +0.015 A 
ATOM     19  C   UNL     1      -4.481 -10.895  14.961  0.00  0.00    +0.311 C 
ATOM     20  C   UNL     1      -7.463  -9.172  12.276  0.00  0.00    +0.014 C 
ATOM     21  C   UNL     1      -2.815 -12.794  14.943  0.00  0.00    +0.019 C 
ATOM     22  C   UNL     1      -8.038  -8.266   8.236  0.00  0.00    +0.163 A 
ATOM     29  H   UNL     1      -9.179  -7.839   6.605  0.00  0.00    +0.154 HD
ENDROOT
BRANCH   6  23
ATOM      2  F   UNL     1     -12.274  -3.456   9.304  0.00  0.00    -0.205 F 
ATOM     23  C   UNL     1      -9.832  -6.513   8.011  0.00  0.00    +0.033 A 
ATOM     24  C   UNL     1      -9.269  -5.315   8.436  0.00  0.00    +0.026 A 
ATOM     25  C   UNL     1     -11.211  -6.689   8.016  0.00  0.00    +0.026 A 
ATOM     26  C   UNL     1     -10.096  -4.280   8.875  0.00  0.00    +0.040 A 
ATOM     27  C   UNL     1     -12.037  -5.654   8.454  0.00  0.00    +0.040 A 
ATOM     28  C   UNL     1     -11.480  -4.449   8.883  0.00  0.00    +0.124 A 
ENDBRANCH   6  23
TORSDOF 1
ENDMDL
MODEL 8
REMARK VINA RESULT:      -6.8     28.643     32.500
REMARK  Name = 11866179
REMARK  4 active torsions:
REMARK  status: ('A' for Active; 'I' for Inactive)
REMARK    1  A    between atoms: N_6  and  C_23
REMARK    2  A    between atoms: C_8  and  C_16
REMARK    3  A    between atoms: C_13  and  C_20
REMARK    4  A    between atoms: C_15  and  C_21
REMARK                            x       y       z     vdW  Elec       q    Type
REMARK                         _______ _______ _______ _____ _____    ______ ____
ROOT
ATOM      1  S   UNL     1      -8.988  -8.549  17.089  0.00  0.00    -0.057 S 
ATOM      3  O   UNL     1     -10.456 -13.691  21.460  0.00  0.00    -0.461 OA
ATOM      4  O   UNL     1     -10.926 -15.179  23.149  0.00  0.00    -0.251 OA
ATOM      5  N   UNL     1      -7.705 -10.727  17.633  0.00  0.00    -0.229 NA
ATOM      6  N   UNL     1      -6.556  -9.206  16.234  0.00  0.00    -0.294 N 
ATOM      7  C   UNL     1     -10.616 -11.695  19.929  0.00  0.00    +0.045 C 
ATOM      8  C   UNL     1     -11.706 -10.910  19.077  0.00  0.00    -0.021 C 
ATOM      9  C   UNL     1     -11.264 -12.944  20.549  0.00  0.00    +0.184 C 
ATOM     10  C   UNL     1     -12.436 -12.548  21.428  0.00  0.00    +0.044 C 
ATOM     11  C   UNL     1     -12.986 -10.651  19.928  0.00  0.00    +0.008 C 
ATOM     12  C   UNL     1     -13.543 -11.904  20.619  0.00  0.00    +0.008 C 
ATOM     13  C   UNL     1      -9.307 -11.992  19.113  0.00  0.00    +0.043 C 
ATOM     14  C   UNL     1     -11.119  -9.531  18.646  0.00  0.00    +0.051 C 
ATOM     15  C   UNL     1     -12.717 -13.863  22.127  0.00  0.00    +0.101 C 
ATOM     16  C   UNL     1     -12.127 -11.692  17.804  0.00  0.00    +0.012 C 
ATOM     17  C   UNL     1      -8.921 -10.787  18.290  0.00  0.00    +0.057 A 
ATOM     18  C   UNL     1      -9.749  -9.701  18.085  0.00  0.00    +0.015 A 
ATOM     19  C   UNL     1     -11.293 -14.343  22.339  0.00  0.00    +0.311 C 
ATOM     20  C   UNL     1      -8.139 -12.419  20.012  0.00  0.00    +0.014 C 
ATOM     21  C   UNL     1     -13.478 -13.699  23.430  0.00  0.00    +0.019 C 
ATOM     22  C   UNL     1      -7.627  -9.589  16.977  0.00  0.00    +0.163 A 
ATOM     29  H   UNL     1      -6.544  -8.247  15.897  0.00  0.00    +0.154 HD
ENDROOT
BRANCH   6  23
ATOM      2  F   UNL     1      -1.994 -12.022  14.839  0.00  0.00    -0.205 F 
ATOM     23  C   UNL     1      -5.388  -9.928  15.877  0.00  0.00    +0.033 A 
ATOM     24  C   UNL     1      -4.458 -10.259  16.855  0.00  0.00    +0.026 A 
ATOM     25  C   UNL     1      -5.184 -10.297  14.551  0.00  0.00    +0.026 A 
ATOM     26  C   UNL     1      -3.308 -10.968  16.503  0.00  0.00    +0.040 A 
ATOM     27  C   UNL     1      -4.036 -11.005  14.200  0.00  0.00    +0.040 A 
ATOM     28  C   UNL     1      -3.097 -11.342  15.177  0.00  0.00    +0.124 A 
ENDBRANCH   6  23
TORSDOF 1
ENDMDL
MODEL 9
REMARK VINA RESULT:      -6.8     23.868     26.461
REMARK  Name = 11866179
REMARK  4 active torsions:
REMARK  status: ('A' for Active; 'I' for Inactive)
REMARK    1  A    between atoms: N_6  and  C_23
REMARK    2  A    between atoms: C_8  and  C_16
REMARK    3  A    between atoms: C_13  and  C_20
REMARK    4  A    between atoms: C_15  and  C_21
REMARK                            x       y       z     vdW  Elec       q    Type
REMARK                         _______ _______ _______ _____ _____    ______ ____
ROOT
ATOM      1  S   UNL     1      21.748  -9.122  24.169  0.00  0.00    -0.057 S 
ATOM      3  O   UNL     1      18.410  -3.286  22.586  0.00  0.00    -0.461 OA
ATOM      4  O   UNL     1      17.044  -1.477  22.207  0.00  0.00    -0.251 OA
ATOM      5  N   UNL     1      21.180  -8.064  21.879  0.00  0.00    -0.229 NA
ATOM      6  N   UNL     1      22.113 -10.235  21.780  0.00  0.00    -0.294 N 
ATOM      7  C   UNL     1      19.706  -5.085  23.785  0.00  0.00    +0.045 C 
ATOM      8  C   UNL     1      20.685  -5.243  25.029  0.00  0.00    -0.021 C 
ATOM      9  C   UNL     1      19.388  -3.594  23.581  0.00  0.00    +0.184 C 
ATOM     10  C   UNL     1      18.751  -3.016  24.830  0.00  0.00    +0.044 C 
ATOM     11  C   UNL     1      20.114  -4.501  26.276  0.00  0.00    +0.008 C 
ATOM     12  C   UNL     1      19.708  -3.045  26.005  0.00  0.00    +0.008 C 
ATOM     13  C   UNL     1      20.242  -5.808  22.497  0.00  0.00    +0.043 C 
ATOM     14  C   UNL     1      20.820  -6.756  25.382  0.00  0.00    +0.051 C 
ATOM     15  C   UNL     1      18.283  -1.672  24.308  0.00  0.00    +0.101 C 
ATOM     16  C   UNL     1      22.099  -4.673  24.737  0.00  0.00    +0.012 C 
ATOM     17  C   UNL     1      20.819  -7.155  22.857  0.00  0.00    +0.057 A 
ATOM     18  C   UNL     1      21.079  -7.557  24.152  0.00  0.00    +0.015 A 
ATOM     19  C   UNL     1      17.817  -2.090  22.925  0.00  0.00    +0.311 C 
ATOM     20  C   UNL     1      19.160  -5.963  21.419  0.00  0.00    +0.014 C 
ATOM     21  C   UNL     1      17.170  -1.060  25.139  0.00  0.00    +0.019 C 
ATOM     22  C   UNL     1      21.672  -9.140  22.454  0.00  0.00    +0.163 A 
ATOM     29  H   UNL     1      22.330 -11.063  22.330  0.00  0.00    +0.154 HD
ENDROOT
BRANCH   6  23
ATOM      2  F   UNL     1      22.771 -11.043  16.340  0.00  0.00    -0.205 F 
ATOM     23  C   UNL     1      22.282 -10.442  20.387  0.00  0.00    +0.033 A 
ATOM     24  C   UNL     1      23.484 -10.096  19.780  0.00  0.00    +0.026 A 
ATOM     25  C   UNL     1      21.244 -10.990  19.641  0.00  0.00    +0.026 A 
ATOM     26  C   UNL     1      23.649 -10.299  18.409  0.00  0.00    +0.040 A 
ATOM     27  C   UNL     1      21.410 -11.193  18.272  0.00  0.00    +0.040 A 
ATOM     28  C   UNL     1      22.613 -10.848  17.655  0.00  0.00    +0.124 A 
ENDBRANCH   6  23
TORSDOF 1
ENDMDL
MODEL 10
REMARK VINA RESULT:      -6.7     18.904     21.048
REMARK  Name = 11866179
REMARK  4 active torsions:
REMARK  status: ('A' for Active; 'I' for Inactive)
REMARK    1  A    between atoms: N_6  and  C_23
REMARK    2  A    between atoms: C_8  and  C_16
REMARK    3  A    between atoms: C_13  and  C_20
REMARK    4  A    between atoms: C_15  and  C_21
REMARK                            x       y       z     vdW  Elec       q    Type
REMARK                         _______ _______ _______ _____ _____    ______ ____
ROOT
ATOM      1  S   UNL     1      17.568  11.066  20.980  0.00  0.00    -0.057 S 
ATOM      3  O   UNL     1      20.657   4.890  21.091  0.00  0.00    -0.461 OA
ATOM      4  O   UNL     1      21.810   2.916  20.841  0.00  0.00    -0.251 OA
ATOM      5  N   UNL     1      16.577   8.678  21.024  0.00  0.00    -0.229 NA
ATOM      6  N   UNL     1      15.002  10.414  20.714  0.00  0.00    -0.294 N 
ATOM      7  C   UNL     1      20.162   7.353  21.289  0.00  0.00    +0.045 C 
ATOM      8  C   UNL     1      20.707   8.637  22.054  0.00  0.00    -0.021 C 
ATOM      9  C   UNL     1      20.929   6.112  21.778  0.00  0.00    +0.184 C 
ATOM     10  C   UNL     1      22.416   6.280  21.531  0.00  0.00    +0.044 C 
ATOM     11  C   UNL     1      22.261   8.721  21.949  0.00  0.00    +0.008 C 
ATOM     12  C   UNL     1      22.986   7.426  22.343  0.00  0.00    +0.008 C 
ATOM     13  C   UNL     1      18.599   7.215  21.374  0.00  0.00    +0.043 C 
ATOM     14  C   UNL     1      20.104   9.916  21.397  0.00  0.00    +0.051 C 
ATOM     15  C   UNL     1      22.907   4.875  21.815  0.00  0.00    +0.101 C 
ATOM     16  C   UNL     1      20.329   8.626  23.560  0.00  0.00    +0.012 C 
ATOM     17  C   UNL     1      17.946   8.562  21.183  0.00  0.00    +0.057 A 
ATOM     18  C   UNL     1      18.635   9.759  21.205  0.00  0.00    +0.015 A 
ATOM     19  C   UNL     1      21.769   4.084  21.195  0.00  0.00    +0.311 C 
ATOM     20  C   UNL     1      18.044   6.205  20.362  0.00  0.00    +0.014 C 
ATOM     21  C   UNL     1      24.248   4.567  21.175  0.00  0.00    +0.019 C 
ATOM     22  C   UNL     1      16.266   9.950  20.898  0.00  0.00    +0.163 A 
ATOM     29  H   UNL     1      14.898  11.398  20.479  0.00  0.00    +0.154 HD
ENDROOT
BRANCH   6  23
ATOM      2  F   UNL     1      10.163   7.722  20.844  0.00  0.00    -0.205 F 
ATOM     23  C   UNL     1      13.762   9.725  20.747  0.00  0.00    +0.033 A 
ATOM     24  C   UNL     1      13.160   9.451  21.970  0.00  0.00    +0.026 A 
ATOM     25  C   UNL     1      13.161   9.331  19.557  0.00  0.00    +0.026 A 
ATOM     26  C   UNL     1      11.941   8.772  22.003  0.00  0.00    +0.040 A 
ATOM     27  C   UNL     1      11.943   8.653  19.590  0.00  0.00    +0.040 A 
ATOM     28  C   UNL     1      11.332   8.374  20.813  0.00  0.00    +0.124 A 
ENDBRANCH   6  23
TORSDOF 1
ENDMDL
