MODEL 1
REMARK VINA RESULT:      -7.4      0.000      0.000
REMARK  Name = 38029183
REMARK  12 active torsions:
REMARK  status: ('A' for Active; 'I' for Inactive)
REMARK    1  A    between atoms: N_4  and  C_15
REMARK    2  A    between atoms: N_5  and  C_22
REMARK    3  A    between atoms: N_5  and  C_23
REMARK    4  A    between atoms: N_6  and  C_25
REMARK    5  A    between atoms: C_8  and  C_12
REMARK    6  A    between atoms: C_9  and  C_15
REMARK    7  A    between atoms: C_11  and  C_16
REMARK    8  A    between atoms: C_12  and  C_17
REMARK    9  A    between atoms: C_12  and  C_18
REMARK   10  A    between atoms: C_13  and  C_19
REMARK   11  A    between atoms: C_16  and  C_20
REMARK   12  A    between atoms: C_22  and  C_24
REMARK                            x       y       z     vdW  Elec       q    Type
REMARK                         _______ _______ _______ _____ _____    ______ ____
ROOT
ATOM      8  C   UNL     1      12.092   9.148  20.424  0.00  0.00    +0.000 C 
ATOM      9  C   UNL     1      12.025   8.494  19.022  0.00  0.00    +0.032 C 
ATOM     10  C   UNL     1      12.027  10.679  20.305  0.00  0.00    +0.012 C 
ATOM     11  C   UNL     1      13.174  11.246  19.448  0.00  0.00    +0.023 C 
ATOM     13  C   UNL     1      13.345  10.474  18.155  0.00  0.00    -0.073 C 
ATOM     14  C   UNL     1      12.814   9.250  17.978  0.00  0.00    -0.022 C 
ATOM     19  C   UNL     1      14.104  11.157  17.053  0.00  0.00    +0.039 C 
ENDROOT
BRANCH   8  12
ATOM     12  C   UNL     1      10.967   8.651  21.338  0.00  0.00    -0.013 C 
ATOM     17  C   UNL     1      10.698   9.661  22.448  0.00  0.00    +0.007 C 
ATOM     18  C   UNL     1      11.320   7.287  21.922  0.00  0.00    +0.007 C 
ENDBRANCH   8  12
BRANCH   9  15
ATOM     15  C   UNL     1      12.504   7.038  19.067  0.00  0.00    +0.113 C 
BRANCH  15   4
ATOM      3  O   UNL     1      14.580   6.815  21.028  0.00  0.00    -0.253 OA
ATOM      4  N   UNL     1      13.909   6.959  18.818  0.00  0.00    -0.299 N 
ATOM      6  N   UNL     1      16.163   6.791  19.294  0.00  0.00    -0.269 N 
ATOM     21  C   UNL     1      14.875   6.850  19.836  0.00  0.00    +0.304 C 
ATOM     35  H   UNL     1      14.229   6.912  17.855  0.00  0.00    +0.150 HD
ATOM     36  H   UNL     1      16.233   6.834  18.280  0.00  0.00    +0.156 HD
BRANCH   6  25
ATOM      1  F   UNL     1      20.325   4.530  20.073  0.00  0.00    -0.205 F 
ATOM     25  C   UNL     1      17.392   6.679  19.985  0.00  0.00    +0.037 A 
ATOM     28  C   UNL     1      18.270   5.640  19.682  0.00  0.00    +0.061 A 
ATOM     29  C   UNL     1      17.725   7.610  20.969  0.00  0.00    +0.023 A 
ATOM     32  C   UNL     1      19.482   5.528  20.364  0.00  0.00    +0.125 A 
ATOM     33  C   UNL     1      18.936   7.499  21.651  0.00  0.00    +0.005 A 
ATOM     34  C   UNL     1      19.816   6.459  21.348  0.00  0.00    +0.038 A 
ENDBRANCH   6  25
ENDBRANCH  15   4
ENDBRANCH   9  15
BRANCH  11  16
ATOM     16  C   UNL     1      14.486  11.289  20.238  0.00  0.00    +0.103 C 
BRANCH  16  20
ATOM      2  O   UNL     1      14.282  13.478  21.193  0.00  0.00    -0.276 OA
ATOM      5  N   UNL     1      14.550  11.710  22.672  0.00  0.00    -0.300 N 
ATOM     20  C   UNL     1      14.428  12.269  21.396  0.00  0.00    +0.216 C 
ATOM     23  C   UNL     1      14.722  10.279  22.886  0.00  0.00    +0.132 C 
BRANCH   5  22
ATOM     22  C   UNL     1      14.514  12.520  23.887  0.00  0.00    +0.144 C 
BRANCH  22  24
ATOM      7  N   UNL     1      11.163  11.896  25.527  0.00  0.00    -0.263 NA
ATOM     24  C   UNL     1      13.111  12.745  24.372  0.00  0.00    -0.012 A 
ATOM     26  C   UNL     1      12.456  13.949  24.136  0.00  0.00    +0.008 A 
ATOM     27  C   UNL     1      12.426  11.759  25.066  0.00  0.00    +0.115 A 
ATOM     30  C   UNL     1      11.156  14.127  24.595  0.00  0.00    +0.020 A 
ATOM     31  C   UNL     1      10.560  13.080  25.279  0.00  0.00    +0.111 A 
ENDBRANCH  22  24
ENDBRANCH   5  22
ENDBRANCH  16  20
ENDBRANCH  11  16
TORSDOF 8
ENDMDL
MODEL 2
REMARK VINA RESULT:      -7.1     27.462     30.102
REMARK  Name = 38029183
REMARK  12 active torsions:
REMARK  status: ('A' for Active; 'I' for Inactive)
REMARK    1  A    between atoms: N_4  and  C_15
REMARK    2  A    between atoms: N_5  and  C_22
REMARK    3  A    between atoms: N_5  and  C_23
REMARK    4  A    between atoms: N_6  and  C_25
REMARK    5  A    between atoms: C_8  and  C_12
REMARK    6  A    between atoms: C_9  and  C_15
REMARK    7  A    between atoms: C_11  and  C_16
REMARK    8  A    between atoms: C_12  and  C_17
REMARK    9  A    between atoms: C_12  and  C_18
REMARK   10  A    between atoms: C_13  and  C_19
REMARK   11  A    between atoms: C_16  and  C_20
REMARK   12  A    between atoms: C_22  and  C_24
REMARK                            x       y       z     vdW  Elec       q    Type
REMARK                         _______ _______ _______ _____ _____    ______ ____
ROOT
ATOM      8  C   UNL     1      -3.188 -12.345  12.186  0.00  0.00    +0.000 C 
ATOM      9  C   UNL     1      -2.114 -11.229  12.197  0.00  0.00    +0.032 C 
ATOM     10  C   UNL     1      -3.713 -12.569  10.759  0.00  0.00    +0.012 C 
ATOM     11  C   UNL     1      -4.331 -11.293  10.159  0.00  0.00    +0.023 C 
ATOM     13  C   UNL     1      -3.442 -10.084  10.370  0.00  0.00    -0.073 C 
ATOM     14  C   UNL     1      -2.448 -10.078  11.276  0.00  0.00    -0.022 C 
ATOM     19  C   UNL     1      -3.692  -8.896   9.484  0.00  0.00    +0.039 C 
ENDROOT
BRANCH   8  12
ATOM     12  C   UNL     1      -2.646 -13.662  12.752  0.00  0.00    -0.013 C 
ATOM     17  C   UNL     1      -2.677 -14.752  11.686  0.00  0.00    +0.007 C 
ATOM     18  C   UNL     1      -3.446 -14.083  13.980  0.00  0.00    +0.007 C 
ENDBRANCH   8  12
BRANCH   9  15
ATOM     15  C   UNL     1      -1.885 -10.696  13.616  0.00  0.00    +0.113 C 
BRANCH  15   4
ATOM      3  O   UNL     1      -2.985 -11.453  16.150  0.00  0.00    -0.253 OA
ATOM      4  N   UNL     1      -3.109 -10.233  14.188  0.00  0.00    -0.299 N 
ATOM      6  N   UNL     1      -4.807 -10.031  15.741  0.00  0.00    -0.269 N 
ATOM     21  C   UNL     1      -3.589 -10.650  15.444  0.00  0.00    +0.304 C 
ATOM     35  H   UNL     1      -3.632  -9.514  13.697  0.00  0.00    +0.150 HD
ATOM     36  H   UNL     1      -5.174  -9.388  15.043  0.00  0.00    +0.156 HD
BRANCH   6  25
ATOM      1  F   UNL     1      -5.309 -11.452  20.299  0.00  0.00    -0.205 F 
ATOM     25  C   UNL     1      -5.601 -10.188  16.901  0.00  0.00    +0.037 A 
ATOM     28  C   UNL     1      -5.053 -10.753  18.051  0.00  0.00    +0.061 A 
ATOM     29  C   UNL     1      -6.934  -9.776  16.893  0.00  0.00    +0.023 A 
ATOM     32  C   UNL     1      -5.836 -10.909  19.194  0.00  0.00    +0.125 A 
ATOM     33  C   UNL     1      -7.717  -9.932  18.036  0.00  0.00    +0.005 A 
ATOM     34  C   UNL     1      -7.169 -10.497  19.187  0.00  0.00    +0.038 A 
ENDBRANCH   6  25
ENDBRANCH  15   4
ENDBRANCH   9  15
BRANCH  11  16
ATOM     16  C   UNL     1      -5.737 -11.044  10.716  0.00  0.00    +0.103 C 
BRANCH  16  20
ATOM      2  O   UNL     1      -6.508 -11.046   8.446  0.00  0.00    -0.276 OA
ATOM      5  N   UNL     1      -7.934 -10.143  10.038  0.00  0.00    -0.300 N 
ATOM     20  C   UNL     1      -6.747 -10.752   9.621  0.00  0.00    +0.216 C 
ATOM     23  C   UNL     1      -8.194  -9.805  11.431  0.00  0.00    +0.132 C 
BRANCH   5  22
ATOM     22  C   UNL     1      -9.005  -9.797   9.106  0.00  0.00    +0.144 C 
BRANCH  22  24
ATOM      7  N   UNL     1     -10.325  -6.253   9.058  0.00  0.00    -0.263 NA
ATOM     24  C   UNL     1      -9.082  -8.318   8.861  0.00  0.00    -0.012 A 
ATOM     26  C   UNL     1      -8.041  -7.640   8.235  0.00  0.00    +0.008 A 
ATOM     27  C   UNL     1     -10.192  -7.584   9.250  0.00  0.00    +0.115 A 
ATOM     30  C   UNL     1      -8.141  -6.270   8.020  0.00  0.00    +0.020 A 
ATOM     31  C   UNL     1      -9.293  -5.629   8.447  0.00  0.00    +0.111 A 
ENDBRANCH  22  24
ENDBRANCH   5  22
ENDBRANCH  16  20
ENDBRANCH  11  16
TORSDOF 8
ENDMDL
MODEL 3
REMARK VINA RESULT:      -6.9     27.403     30.449
REMARK  Name = 38029183
REMARK  12 active torsions:
REMARK  status: ('A' for Active; 'I' for Inactive)
REMARK    1  A    between atoms: N_4  and  C_15
REMARK    2  A    between atoms: N_5  and  C_22
REMARK    3  A    between atoms: N_5  and  C_23
REMARK    4  A    between atoms: N_6  and  C_25
REMARK    5  A    between atoms: C_8  and  C_12
REMARK    6  A    between atoms: C_9  and  C_15
REMARK    7  A    between atoms: C_11  and  C_16
REMARK    8  A    between atoms: C_12  and  C_17
REMARK    9  A    between atoms: C_12  and  C_18
REMARK   10  A    between atoms: C_13  and  C_19
REMARK   11  A    between atoms: C_16  and  C_20
REMARK   12  A    between atoms: C_22  and  C_24
REMARK                            x       y       z     vdW  Elec       q    Type
REMARK                         _______ _______ _______ _____ _____    ______ ____
ROOT
ATOM      8  C   UNL     1      -3.046 -12.468  12.528  0.00  0.00    +0.000 C 
ATOM      9  C   UNL     1      -1.990 -11.335  12.544  0.00  0.00    +0.032 C 
ATOM     10  C   UNL     1      -3.535 -12.725  11.094  0.00  0.00    +0.012 C 
ATOM     11  C   UNL     1      -4.160 -11.468  10.458  0.00  0.00    +0.023 C 
ATOM     13  C   UNL     1      -3.294 -10.242  10.668  0.00  0.00    -0.073 C 
ATOM     14  C   UNL     1      -2.321 -10.205  11.596  0.00  0.00    -0.022 C 
ATOM     19  C   UNL     1      -3.543  -9.073   9.757  0.00  0.00    +0.039 C 
ENDROOT
BRANCH   8  12
ATOM     12  C   UNL     1      -2.496 -13.766  13.128  0.00  0.00    -0.013 C 
ATOM     17  C   UNL     1      -2.323 -14.823  12.042  0.00  0.00    +0.007 C 
ATOM     18  C   UNL     1      -3.415 -14.272  14.235  0.00  0.00    +0.007 C 
ENDBRANCH   8  12
BRANCH   9  15
ATOM     15  C   UNL     1      -1.800 -10.774  13.958  0.00  0.00    +0.113 C 
BRANCH  15   4
ATOM      3  O   UNL     1      -3.184 -11.618  16.320  0.00  0.00    -0.253 OA
ATOM      4  N   UNL     1      -3.028 -10.246  14.463  0.00  0.00    -0.299 N 
ATOM      6  N   UNL     1      -4.835 -10.008  15.881  0.00  0.00    -0.269 N 
ATOM     21  C   UNL     1      -3.652 -10.712  15.635  0.00  0.00    +0.304 C 
ATOM     35  H   UNL     1      -3.442  -9.448  13.992  0.00  0.00    +0.150 HD
ATOM     36  H   UNL     1      -5.083  -9.284  15.210  0.00  0.00    +0.156 HD
BRANCH   6  25
ATOM      1  F   UNL     1      -5.726 -11.197  20.446  0.00  0.00    -0.205 F 
ATOM     25  C   UNL     1      -5.741 -10.179  16.953  0.00  0.00    +0.037 A 
ATOM     28  C   UNL     1      -5.278 -10.612  18.195  0.00  0.00    +0.061 A 
ATOM     29  C   UNL     1      -7.098  -9.914  16.768  0.00  0.00    +0.023 A 
ATOM     32  C   UNL     1      -6.171 -10.782  19.253  0.00  0.00    +0.125 A 
ATOM     33  C   UNL     1      -7.991 -10.084  17.826  0.00  0.00    +0.005 A 
ATOM     34  C   UNL     1      -7.528 -10.517  19.069  0.00  0.00    +0.038 A 
ENDBRANCH   6  25
ENDBRANCH  15   4
ENDBRANCH   9  15
BRANCH  11  16
ATOM     16  C   UNL     1      -5.581 -11.232  10.981  0.00  0.00    +0.103 C 
BRANCH  16  20
ATOM      2  O   UNL     1      -6.750 -12.473   9.295  0.00  0.00    -0.276 OA
ATOM      5  N   UNL     1      -7.421 -10.279   9.636  0.00  0.00    -0.300 N 
ATOM     20  C   UNL     1      -6.628 -11.401   9.895  0.00  0.00    +0.216 C 
ATOM     23  C   UNL     1      -7.258  -9.023  10.358  0.00  0.00    +0.132 C 
BRANCH   5  22
ATOM     22  C   UNL     1      -8.472 -10.280   8.622  0.00  0.00    +0.144 C 
BRANCH  22  24
ATOM      7  N   UNL     1      -6.679  -9.455   5.395  0.00  0.00    -0.263 NA
ATOM     24  C   UNL     1      -8.056  -9.544   7.381  0.00  0.00    -0.012 A 
ATOM     26  C   UNL     1      -8.619  -8.315   7.054  0.00  0.00    +0.008 A 
ATOM     27  C   UNL     1      -7.098 -10.066   6.526  0.00  0.00    +0.115 A 
ATOM     30  C   UNL     1      -8.213  -7.656   5.899  0.00  0.00    +0.020 A 
ATOM     31  C   UNL     1      -7.249  -8.263   5.111  0.00  0.00    +0.111 A 
ENDBRANCH  22  24
ENDBRANCH   5  22
ENDBRANCH  16  20
ENDBRANCH  11  16
TORSDOF 8
ENDMDL
MODEL 4
REMARK VINA RESULT:      -6.8     14.664     17.903
REMARK  Name = 38029183
REMARK  12 active torsions:
REMARK  status: ('A' for Active; 'I' for Inactive)
REMARK    1  A    between atoms: N_4  and  C_15
REMARK    2  A    between atoms: N_5  and  C_22
REMARK    3  A    between atoms: N_5  and  C_23
REMARK    4  A    between atoms: N_6  and  C_25
REMARK    5  A    between atoms: C_8  and  C_12
REMARK    6  A    between atoms: C_9  and  C_15
REMARK    7  A    between atoms: C_11  and  C_16
REMARK    8  A    between atoms: C_12  and  C_17
REMARK    9  A    between atoms: C_12  and  C_18
REMARK   10  A    between atoms: C_13  and  C_19
REMARK   11  A    between atoms: C_16  and  C_20
REMARK   12  A    between atoms: C_22  and  C_24
REMARK                            x       y       z     vdW  Elec       q    Type
REMARK                         _______ _______ _______ _____ _____    ______ ____
ROOT
ATOM      8  C   UNL     1       9.046   8.329   5.385  0.00  0.00    +0.000 C 
ATOM      9  C   UNL     1       8.784   8.856   6.818  0.00  0.00    +0.032 C 
ATOM     10  C   UNL     1       8.524   6.890   5.240  0.00  0.00    +0.012 C 
ATOM     11  C   UNL     1       9.187   5.927   6.242  0.00  0.00    +0.023 C 
ATOM     13  C   UNL     1       9.208   6.500   7.644  0.00  0.00    -0.073 C 
ATOM     14  C   UNL     1       9.013   7.810   7.883  0.00  0.00    -0.022 C 
ATOM     19  C   UNL     1       9.413   5.527   8.771  0.00  0.00    +0.039 C 
ENDROOT
BRANCH   8  12
ATOM     12  C   UNL     1       8.399   9.224   4.322  0.00  0.00    -0.013 C 
ATOM     17  C   UNL     1       6.994   9.631   4.753  0.00  0.00    +0.007 C 
ATOM     18  C   UNL     1       8.368   8.511   2.974  0.00  0.00    +0.007 C 
ENDBRANCH   8  12
BRANCH   9  15
ATOM     15  C   UNL     1       9.645  10.088   7.119  0.00  0.00    +0.113 C 
BRANCH  15   4
ATOM      3  O   UNL     1      11.992  10.590   5.556  0.00  0.00    -0.253 OA
ATOM      4  N   UNL     1      10.984   9.705   7.441  0.00  0.00    -0.299 N 
ATOM      6  N   UNL     1      13.270   9.492   7.191  0.00  0.00    -0.269 N 
ATOM     21  C   UNL     1      12.093   9.987   6.622  0.00  0.00    +0.304 C 
ATOM     35  H   UNL     1      11.159   9.263   8.339  0.00  0.00    +0.150 HD
ATOM     36  H   UNL     1      13.178   9.012   8.084  0.00  0.00    +0.156 HD
BRANCH   6  25
ATOM      1  F   UNL     1      17.225  12.036   6.228  0.00  0.00    -0.205 F 
ATOM     25  C   UNL     1      14.585   9.575   6.678  0.00  0.00    +0.037 A 
ATOM     28  C   UNL     1      15.270  10.788   6.707  0.00  0.00    +0.061 A 
ATOM     29  C   UNL     1      15.196   8.441   6.142  0.00  0.00    +0.023 A 
ATOM     32  C   UNL     1      16.567  10.870   6.199  0.00  0.00    +0.125 A 
ATOM     33  C   UNL     1      16.492   8.523   5.634  0.00  0.00    +0.005 A 
ATOM     34  C   UNL     1      17.179   9.737   5.663  0.00  0.00    +0.038 A 
ENDBRANCH   6  25
ENDBRANCH  15   4
ENDBRANCH   9  15
BRANCH  11  16
ATOM     16  C   UNL     1      10.598   5.540   5.786  0.00  0.00    +0.103 C 
BRANCH  16  20
ATOM      2  O   UNL     1      10.046   4.353   3.778  0.00  0.00    -0.276 OA
ATOM      5  N   UNL     1      11.479   6.165   3.565  0.00  0.00    -0.300 N 
ATOM     20  C   UNL     1      10.671   5.286   4.292  0.00  0.00    +0.216 C 
ATOM     23  C   UNL     1      12.208   7.259   4.194  0.00  0.00    +0.132 C 
BRANCH   5  22
ATOM     22  C   UNL     1      11.653   6.054   2.119  0.00  0.00    +0.144 C 
BRANCH  22  24
ATOM      7  N   UNL     1      15.204   5.338   1.031  0.00  0.00    -0.263 NA
ATOM     24  C   UNL     1      12.899   5.296   1.760  0.00  0.00    -0.012 A 
ATOM     26  C   UNL     1      12.931   3.906   1.807  0.00  0.00    +0.008 A 
ATOM     27  C   UNL     1      14.052   5.959   1.369  0.00  0.00    +0.115 A 
ATOM     30  C   UNL     1      14.098   3.232   1.467  0.00  0.00    +0.020 A 
ATOM     31  C   UNL     1      15.197   3.987   1.090  0.00  0.00    +0.111 A 
ENDBRANCH  22  24
ENDBRANCH   5  22
ENDBRANCH  16  20
ENDBRANCH  11  16
TORSDOF 8
ENDMDL
MODEL 5
REMARK VINA RESULT:      -6.8     26.742     30.524
REMARK  Name = 38029183
REMARK  12 active torsions:
REMARK  status: ('A' for Active; 'I' for Inactive)
REMARK    1  A    between atoms: N_4  and  C_15
REMARK    2  A    between atoms: N_5  and  C_22
REMARK    3  A    between atoms: N_5  and  C_23
REMARK    4  A    between atoms: N_6  and  C_25
REMARK    5  A    between atoms: C_8  and  C_12
REMARK    6  A    between atoms: C_9  and  C_15
REMARK    7  A    between atoms: C_11  and  C_16
REMARK    8  A    between atoms: C_12  and  C_17
REMARK    9  A    between atoms: C_12  and  C_18
REMARK   10  A    between atoms: C_13  and  C_19
REMARK   11  A    between atoms: C_16  and  C_20
REMARK   12  A    between atoms: C_22  and  C_24
REMARK                            x       y       z     vdW  Elec       q    Type
REMARK                         _______ _______ _______ _____ _____    ______ ____
ROOT
ATOM      8  C   UNL     1      -5.056 -12.272  16.019  0.00  0.00    +0.000 C 
ATOM      9  C   UNL     1      -4.253 -11.787  17.252  0.00  0.00    +0.032 C 
ATOM     10  C   UNL     1      -4.102 -12.699  14.892  0.00  0.00    +0.012 C 
ATOM     11  C   UNL     1      -3.174 -11.552  14.449  0.00  0.00    +0.023 C 
ATOM     13  C   UNL     1      -2.547 -10.845  15.634  0.00  0.00    -0.073 C 
ATOM     14  C   UNL     1      -3.035 -10.972  16.881  0.00  0.00    -0.022 C 
ATOM     19  C   UNL     1      -1.319 -10.024  15.360  0.00  0.00    +0.039 C 
ENDROOT
BRANCH   8  12
ATOM     12  C   UNL     1      -5.994 -13.431  16.371  0.00  0.00    -0.013 C 
ATOM     17  C   UNL     1      -5.221 -14.745  16.419  0.00  0.00    +0.007 C 
ATOM     18  C   UNL     1      -7.138 -13.513  15.366  0.00  0.00    +0.007 C 
ENDBRANCH   8  12
BRANCH   9  15
ATOM     15  C   UNL     1      -5.138 -10.976  18.204  0.00  0.00    +0.113 C 
BRANCH  15   4
ATOM      3  O   UNL     1      -7.988 -10.847  17.951  0.00  0.00    -0.253 OA
ATOM      4  N   UNL     1      -5.888  -9.993  17.487  0.00  0.00    -0.299 N 
ATOM      6  N   UNL     1      -7.746  -8.914  16.640  0.00  0.00    -0.269 N 
ATOM     21  C   UNL     1      -7.293  -9.993  17.406  0.00  0.00    +0.304 C 
ATOM     35  H   UNL     1      -5.390  -9.215  17.067  0.00  0.00    +0.150 HD
ATOM     36  H   UNL     1      -7.034  -8.297  16.256  0.00  0.00    +0.156 HD
BRANCH   6  25
ATOM      1  F   UNL     1     -11.404  -8.766  13.534  0.00  0.00    -0.205 F 
ATOM     25  C   UNL     1      -9.082  -8.571  16.328  0.00  0.00    +0.037 A 
ATOM     28  C   UNL     1      -9.594  -8.843  15.060  0.00  0.00    +0.061 A 
ATOM     29  C   UNL     1      -9.887  -7.959  17.289  0.00  0.00    +0.023 A 
ATOM     32  C   UNL     1     -10.911  -8.504  14.751  0.00  0.00    +0.125 A 
ATOM     33  C   UNL     1     -11.204  -7.619  16.980  0.00  0.00    +0.005 A 
ATOM     34  C   UNL     1     -11.717  -7.892  15.712  0.00  0.00    +0.038 A 
ENDBRANCH   6  25
ENDBRANCH  15   4
ENDBRANCH   9  15
BRANCH  11  16
ATOM     16  C   UNL     1      -3.914 -10.559  13.546  0.00  0.00    +0.103 C 
BRANCH  16  20
ATOM      2  O   UNL     1      -2.190 -10.971  11.932  0.00  0.00    -0.276 OA
ATOM      5  N   UNL     1      -4.031  -9.756  11.213  0.00  0.00    -0.300 N 
ATOM     20  C   UNL     1      -3.288 -10.457  12.168  0.00  0.00    +0.216 C 
ATOM     23  C   UNL     1      -5.325  -9.158  11.515  0.00  0.00    +0.132 C 
BRANCH   5  22
ATOM     22  C   UNL     1      -3.566  -9.570   9.841  0.00  0.00    +0.144 C 
BRANCH  22  24
ATOM      7  N   UNL     1      -5.872 -10.436   6.971  0.00  0.00    -0.263 NA
ATOM     24  C   UNL     1      -4.365 -10.379   8.862  0.00  0.00    -0.012 A 
ATOM     26  C   UNL     1      -4.364 -11.770   8.911  0.00  0.00    +0.008 A 
ATOM     27  C   UNL     1      -5.129  -9.766   7.881  0.00  0.00    +0.115 A 
ATOM     30  C   UNL     1      -5.116 -12.493   7.993  0.00  0.00    +0.020 A 
ATOM     31  C   UNL     1      -5.846 -11.785   7.051  0.00  0.00    +0.111 A 
ENDBRANCH  22  24
ENDBRANCH   5  22
ENDBRANCH  16  20
ENDBRANCH  11  16
TORSDOF 8
ENDMDL
MODEL 6
REMARK VINA RESULT:      -6.6     27.405     30.904
REMARK  Name = 38029183
REMARK  12 active torsions:
REMARK  status: ('A' for Active; 'I' for Inactive)
REMARK    1  A    between atoms: N_4  and  C_15
REMARK    2  A    between atoms: N_5  and  C_22
REMARK    3  A    between atoms: N_5  and  C_23
REMARK    4  A    between atoms: N_6  and  C_25
REMARK    5  A    between atoms: C_8  and  C_12
REMARK    6  A    between atoms: C_9  and  C_15
REMARK    7  A    between atoms: C_11  and  C_16
REMARK    8  A    between atoms: C_12  and  C_17
REMARK    9  A    between atoms: C_12  and  C_18
REMARK   10  A    between atoms: C_13  and  C_19
REMARK   11  A    between atoms: C_16  and  C_20
REMARK   12  A    between atoms: C_22  and  C_24
REMARK                            x       y       z     vdW  Elec       q    Type
REMARK                         _______ _______ _______ _____ _____    ______ ____
ROOT
ATOM      8  C   UNL     1      -4.865 -10.579  11.145  0.00  0.00    +0.000 C 
ATOM      9  C   UNL     1      -4.422  -9.601  10.028  0.00  0.00    +0.032 C 
ATOM     10  C   UNL     1      -4.190 -10.212  12.477  0.00  0.00    +0.012 C 
ATOM     11  C   UNL     1      -2.653 -10.247  12.380  0.00  0.00    +0.023 C 
ATOM     13  C   UNL     1      -2.151  -9.525  11.146  0.00  0.00    -0.073 C 
ATOM     14  C   UNL     1      -2.959  -9.233  10.110  0.00  0.00    -0.022 C 
ATOM     19  C   UNL     1      -0.708  -9.105  11.147  0.00  0.00    +0.039 C 
ENDROOT
BRANCH   8  12
ATOM     12  C   UNL     1      -6.387 -10.590  11.321  0.00  0.00    -0.013 C 
ATOM     17  C   UNL     1      -6.785  -9.800  12.563  0.00  0.00    +0.007 C 
ATOM     18  C   UNL     1      -6.902 -12.023  11.403  0.00  0.00    +0.007 C 
ENDBRANCH   8  12
BRANCH   9  15
ATOM     15  C   UNL     1      -4.727 -10.174   8.639  0.00  0.00    +0.113 C 
BRANCH  15   4
ATOM      3  O   UNL     1      -7.505 -10.005   7.963  0.00  0.00    -0.253 OA
ATOM      4  N   UNL     1      -5.346  -9.189   7.809  0.00  0.00    -0.299 N 
ATOM      6  N   UNL     1      -7.039  -8.092   6.685  0.00  0.00    -0.269 N 
ATOM     21  C   UNL     1      -6.723  -9.168   7.520  0.00  0.00    +0.304 C 
ATOM     35  H   UNL     1      -4.778  -8.423   7.461  0.00  0.00    +0.150 HD
ATOM     36  H   UNL     1      -6.268  -7.490   6.406  0.00  0.00    +0.156 HD
BRANCH   6  25
ATOM      1  F   UNL     1     -11.406  -6.196   7.304  0.00  0.00    -0.205 F 
ATOM     25  C   UNL     1      -8.308  -7.732   6.175  0.00  0.00    +0.037 A 
ATOM     28  C   UNL     1      -9.250  -7.130   7.008  0.00  0.00    +0.061 A 
ATOM     29  C   UNL     1      -8.617  -7.981   4.837  0.00  0.00    +0.023 A 
ATOM     32  C   UNL     1     -10.502  -6.775   6.505  0.00  0.00    +0.125 A 
ATOM     33  C   UNL     1      -9.869  -7.627   4.334  0.00  0.00    +0.005 A 
ATOM     34  C   UNL     1     -10.811  -7.024   5.167  0.00  0.00    +0.038 A 
ENDBRANCH   6  25
ENDBRANCH  15   4
ENDBRANCH   9  15
BRANCH  11  16
ATOM     16  C   UNL     1      -2.129 -11.686  12.425  0.00  0.00    +0.103 C 
BRANCH  16  20
ATOM      2  O   UNL     1      -2.042 -11.976  14.803  0.00  0.00    -0.276 OA
ATOM      5  N   UNL     1      -3.320 -13.499  13.607  0.00  0.00    -0.300 N 
ATOM     20  C   UNL     1      -2.482 -12.386  13.725  0.00  0.00    +0.216 C 
ATOM     23  C   UNL     1      -3.826 -13.964  12.322  0.00  0.00    +0.132 C 
BRANCH   5  22
ATOM     22  C   UNL     1      -3.751 -14.280  14.763  0.00  0.00    +0.144 C 
BRANCH  22  24
ATOM      7  N   UNL     1      -6.013 -13.258  17.616  0.00  0.00    -0.263 NA
ATOM     24  C   UNL     1      -4.852 -13.599  15.523  0.00  0.00    -0.012 A 
ATOM     26  C   UNL     1      -5.717 -12.712  14.890  0.00  0.00    +0.008 A 
ATOM     27  C   UNL     1      -5.041 -13.835  16.876  0.00  0.00    +0.115 A 
ATOM     30  C   UNL     1      -6.729 -12.098  15.619  0.00  0.00    +0.020 A 
ATOM     31  C   UNL     1      -6.833 -12.402  16.967  0.00  0.00    +0.111 A 
ENDBRANCH  22  24
ENDBRANCH   5  22
ENDBRANCH  16  20
ENDBRANCH  11  16
TORSDOF 8
ENDMDL
MODEL 7
REMARK VINA RESULT:      -6.5     27.292     30.057
REMARK  Name = 38029183
REMARK  12 active torsions:
REMARK  status: ('A' for Active; 'I' for Inactive)
REMARK    1  A    between atoms: N_4  and  C_15
REMARK    2  A    between atoms: N_5  and  C_22
REMARK    3  A    between atoms: N_5  and  C_23
REMARK    4  A    between atoms: N_6  and  C_25
REMARK    5  A    between atoms: C_8  and  C_12
REMARK    6  A    between atoms: C_9  and  C_15
REMARK    7  A    between atoms: C_11  and  C_16
REMARK    8  A    between atoms: C_12  and  C_17
REMARK    9  A    between atoms: C_12  and  C_18
REMARK   10  A    between atoms: C_13  and  C_19
REMARK   11  A    between atoms: C_16  and  C_20
REMARK   12  A    between atoms: C_22  and  C_24
REMARK                            x       y       z     vdW  Elec       q    Type
REMARK                         _______ _______ _______ _____ _____    ______ ____
ROOT
ATOM      8  C   UNL     1      -9.125 -11.309  15.419  0.00  0.00    +0.000 C 
ATOM      9  C   UNL     1     -10.325 -10.609  14.734  0.00  0.00    +0.032 C 
ATOM     10  C   UNL     1      -9.230 -11.181  16.947  0.00  0.00    +0.012 C 
ATOM     11  C   UNL     1      -9.263  -9.712  17.407  0.00  0.00    +0.023 C 
ATOM     13  C   UNL     1     -10.239  -8.888  16.591  0.00  0.00    -0.073 C 
ATOM     14  C   UNL     1     -10.712  -9.311  15.405  0.00  0.00    -0.022 C 
ATOM     19  C   UNL     1     -10.692  -7.587  17.189  0.00  0.00    +0.039 C 
ENDROOT
BRANCH   8  12
ATOM     12  C   UNL     1      -9.032 -12.788  15.028  0.00  0.00    -0.013 C 
ATOM     17  C   UNL     1      -9.282 -13.676  16.243  0.00  0.00    +0.007 C 
ATOM     18  C   UNL     1      -7.672 -13.089  14.408  0.00  0.00    +0.007 C 
ENDBRANCH   8  12
BRANCH   9  15
ATOM     15  C   UNL     1     -10.042 -10.351  13.250  0.00  0.00    +0.113 C 
BRANCH  15   4
ATOM      3  O   UNL     1      -7.950 -11.015  11.410  0.00  0.00    -0.253 OA
ATOM      4  N   UNL     1      -8.801  -9.662  13.083  0.00  0.00    -0.299 N 
ATOM      6  N   UNL     1      -6.714  -9.189  12.215  0.00  0.00    -0.269 N 
ATOM     21  C   UNL     1      -7.816 -10.047  12.154  0.00  0.00    +0.304 C 
ATOM     35  H   UNL     1      -8.645  -8.810  13.612  0.00  0.00    +0.150 HD
ATOM     36  H   UNL     1      -6.763  -8.431  12.892  0.00  0.00    +0.156 HD
BRANCH   6  25
ATOM      1  F   UNL     1      -2.200 -10.702  11.600  0.00  0.00    -0.205 F 
ATOM     25  C   UNL     1      -5.528  -9.242  11.446  0.00  0.00    +0.037 A 
ATOM     28  C   UNL     1      -4.427  -9.960  11.911  0.00  0.00    +0.061 A 
ATOM     29  C   UNL     1      -5.461  -8.576  10.222  0.00  0.00    +0.023 A 
ATOM     32  C   UNL     1      -3.257 -10.012  11.154  0.00  0.00    +0.125 A 
ATOM     33  C   UNL     1      -4.290  -8.628   9.465  0.00  0.00    +0.005 A 
ATOM     34  C   UNL     1      -3.189  -9.346   9.930  0.00  0.00    +0.038 A 
ENDBRANCH   6  25
ENDBRANCH  15   4
ENDBRANCH   9  15
BRANCH  11  16
ATOM     16  C   UNL     1      -7.862  -9.091  17.377  0.00  0.00    +0.103 C 
BRANCH  16  20
ATOM      2  O   UNL     1      -6.883 -10.377  19.148  0.00  0.00    -0.276 OA
ATOM      5  N   UNL     1      -5.788 -10.406  17.102  0.00  0.00    -0.300 N 
ATOM     20  C   UNL     1      -6.812 -10.013  17.970  0.00  0.00    +0.216 C 
ATOM     23  C   UNL     1      -5.726  -9.963  15.715  0.00  0.00    +0.132 C 
BRANCH   5  22
ATOM     22  C   UNL     1      -4.703 -11.290  17.521  0.00  0.00    +0.144 C 
BRANCH  22  24
ATOM      7  N   UNL     1      -2.952 -12.719  14.488  0.00  0.00    -0.263 NA
ATOM     24  C   UNL     1      -3.686 -11.484  16.434  0.00  0.00    -0.012 A 
ATOM     26  C   UNL     1      -2.567 -10.663  16.344  0.00  0.00    +0.008 A 
ATOM     27  C   UNL     1      -3.831 -12.489  15.490  0.00  0.00    +0.115 A 
ATOM     30  C   UNL     1      -1.641 -10.869  15.328  0.00  0.00    +0.020 A 
ATOM     31  C   UNL     1      -1.878 -11.900  14.434  0.00  0.00    +0.111 A 
ENDBRANCH  22  24
ENDBRANCH   5  22
ENDBRANCH  16  20
ENDBRANCH  11  16
TORSDOF 8
ENDMDL
MODEL 8
REMARK VINA RESULT:      -6.4     27.238     30.474
REMARK  Name = 38029183
REMARK  12 active torsions:
REMARK  status: ('A' for Active; 'I' for Inactive)
REMARK    1  A    between atoms: N_4  and  C_15
REMARK    2  A    between atoms: N_5  and  C_22
REMARK    3  A    between atoms: N_5  and  C_23
REMARK    4  A    between atoms: N_6  and  C_25
REMARK    5  A    between atoms: C_8  and  C_12
REMARK    6  A    between atoms: C_9  and  C_15
REMARK    7  A    between atoms: C_11  and  C_16
REMARK    8  A    between atoms: C_12  and  C_17
REMARK    9  A    between atoms: C_12  and  C_18
REMARK   10  A    between atoms: C_13  and  C_19
REMARK   11  A    between atoms: C_16  and  C_20
REMARK   12  A    between atoms: C_22  and  C_24
REMARK                            x       y       z     vdW  Elec       q    Type
REMARK                         _______ _______ _______ _____ _____    ______ ____
ROOT
ATOM      8  C   UNL     1      -3.899 -13.250  11.983  0.00  0.00    +0.000 C 
ATOM      9  C   UNL     1      -2.472 -13.290  12.585  0.00  0.00    +0.032 C 
ATOM     10  C   UNL     1      -3.928 -12.362  10.729  0.00  0.00    +0.012 C 
ATOM     11  C   UNL     1      -3.484 -10.917  11.028  0.00  0.00    +0.023 C 
ATOM     13  C   UNL     1      -2.216 -10.878  11.855  0.00  0.00    -0.073 C 
ATOM     14  C   UNL     1      -1.772 -11.951  12.534  0.00  0.00    -0.022 C 
ATOM     19  C   UNL     1      -1.443  -9.589  11.850  0.00  0.00    +0.039 C 
ENDROOT
BRANCH   8  12
ATOM     12  C   UNL     1      -4.410 -14.652  11.637  0.00  0.00    -0.013 C 
ATOM     17  C   UNL     1      -3.753 -15.157  10.357  0.00  0.00    +0.007 C 
ATOM     18  C   UNL     1      -5.928 -14.646  11.501  0.00  0.00    +0.007 C 
ENDBRANCH   8  12
BRANCH   9  15
ATOM     15  C   UNL     1      -2.494 -13.799  14.030  0.00  0.00    +0.113 C 
BRANCH  15   4
ATOM      3  O   UNL     1      -4.750 -13.636  15.788  0.00  0.00    -0.253 OA
ATOM      4  N   UNL     1      -2.795 -12.736  14.937  0.00  0.00    -0.299 N 
ATOM      6  N   UNL     1      -3.958 -11.561  16.550  0.00  0.00    -0.269 N 
ATOM     21  C   UNL     1      -3.927 -12.724  15.774  0.00  0.00    +0.304 C 
ATOM     35  H   UNL     1      -2.126 -11.979  15.035  0.00  0.00    +0.150 HD
ATOM     36  H   UNL     1      -3.195 -10.902  16.415  0.00  0.00    +0.156 HD
BRANCH   6  25
ATOM      1  F   UNL     1      -8.002  -9.247  17.706  0.00  0.00    -0.205 F 
ATOM     25  C   UNL     1      -4.928 -11.181  17.507  0.00  0.00    +0.037 A 
ATOM     28  C   UNL     1      -6.008 -10.386  17.127  0.00  0.00    +0.061 A 
ATOM     29  C   UNL     1      -4.802 -11.602  18.831  0.00  0.00    +0.023 A 
ATOM     32  C   UNL     1      -6.964 -10.010  18.070  0.00  0.00    +0.125 A 
ATOM     33  C   UNL     1      -5.758 -11.226  19.774  0.00  0.00    +0.005 A 
ATOM     34  C   UNL     1      -6.840 -10.431  19.395  0.00  0.00    +0.038 A 
ENDBRANCH   6  25
ENDBRANCH  15   4
ENDBRANCH   9  15
BRANCH  11  16
ATOM     16  C   UNL     1      -4.606 -10.124  11.705  0.00  0.00    +0.103 C 
BRANCH  16  20
ATOM      2  O   UNL     1      -4.641  -8.094  10.431  0.00  0.00    -0.276 OA
ATOM      5  N   UNL     1      -6.536  -9.429  10.328  0.00  0.00    -0.300 N 
ATOM     20  C   UNL     1      -5.246  -9.116  10.768  0.00  0.00    +0.216 C 
ATOM     23  C   UNL     1      -7.230 -10.642  10.740  0.00  0.00    +0.132 C 
BRANCH   5  22
ATOM     22  C   UNL     1      -7.286  -8.561   9.424  0.00  0.00    +0.144 C 
BRANCH  22  24
ATOM      7  N   UNL     1      -8.644  -9.699   6.082  0.00  0.00    -0.263 NA
ATOM     24  C   UNL     1      -7.334  -9.112   8.028  0.00  0.00    -0.012 A 
ATOM     26  C   UNL     1      -6.176  -9.540   7.387  0.00  0.00    +0.008 A 
ATOM     27  C   UNL     1      -8.532  -9.211   7.338  0.00  0.00    +0.115 A 
ATOM     30  C   UNL     1      -6.251 -10.048   6.095  0.00  0.00    +0.020 A 
ATOM     31  C   UNL     1      -7.497 -10.105   5.492  0.00  0.00    +0.111 A 
ENDBRANCH  22  24
ENDBRANCH   5  22
ENDBRANCH  16  20
ENDBRANCH  11  16
TORSDOF 8
ENDMDL
MODEL 9
REMARK VINA RESULT:      -6.4     27.670     30.651
REMARK  Name = 38029183
REMARK  12 active torsions:
REMARK  status: ('A' for Active; 'I' for Inactive)
REMARK    1  A    between atoms: N_4  and  C_15
REMARK    2  A    between atoms: N_5  and  C_22
REMARK    3  A    between atoms: N_5  and  C_23
REMARK    4  A    between atoms: N_6  and  C_25
REMARK    5  A    between atoms: C_8  and  C_12
REMARK    6  A    between atoms: C_9  and  C_15
REMARK    7  A    between atoms: C_11  and  C_16
REMARK    8  A    between atoms: C_12  and  C_17
REMARK    9  A    between atoms: C_12  and  C_18
REMARK   10  A    between atoms: C_13  and  C_19
REMARK   11  A    between atoms: C_16  and  C_20
REMARK   12  A    between atoms: C_22  and  C_24
REMARK                            x       y       z     vdW  Elec       q    Type
REMARK                         _______ _______ _______ _____ _____    ______ ____
ROOT
ATOM      8  C   UNL     1     -10.497  -9.747  18.490  0.00  0.00    +0.000 C 
ATOM      9  C   UNL     1      -9.323 -10.271  17.627  0.00  0.00    +0.032 C 
ATOM     10  C   UNL     1     -11.836  -9.975  17.770  0.00  0.00    +0.012 C 
ATOM     11  C   UNL     1     -11.887  -9.274  16.399  0.00  0.00    +0.023 C 
ATOM     13  C   UNL     1     -10.631  -9.528  15.590  0.00  0.00    -0.073 C 
ATOM     14  C   UNL     1      -9.498  -9.986  16.154  0.00  0.00    -0.022 C 
ATOM     19  C   UNL     1     -10.719  -9.285  14.110  0.00  0.00    +0.039 C 
ENDROOT
BRANCH   8  12
ATOM     12  C   UNL     1     -10.531 -10.413  19.869  0.00  0.00    -0.013 C 
ATOM     17  C   UNL     1     -10.283 -11.912  19.743  0.00  0.00    +0.007 C 
ATOM     18  C   UNL     1     -11.864 -10.141  20.558  0.00  0.00    +0.007 C 
ENDBRANCH   8  12
BRANCH   9  15
ATOM     15  C   UNL     1      -7.985  -9.693  18.103  0.00  0.00    +0.113 C 
BRANCH  15   4
ATOM      3  O   UNL     1      -5.824  -9.363  16.253  0.00  0.00    -0.253 OA
ATOM      4  N   UNL     1      -6.920 -10.614  17.861  0.00  0.00    -0.299 N 
ATOM      6  N   UNL     1      -4.990 -11.456  16.913  0.00  0.00    -0.269 N 
ATOM     21  C   UNL     1      -5.887 -10.384  16.933  0.00  0.00    +0.304 C 
ATOM     35  H   UNL     1      -6.863 -11.450  18.434  0.00  0.00    +0.150 HD
ATOM     36  H   UNL     1      -5.190 -12.230  17.543  0.00  0.00    +0.156 HD
BRANCH   6  25
ATOM      1  F   UNL     1      -0.502 -10.163  15.802  0.00  0.00    -0.205 F 
ATOM     25  C   UNL     1      -3.828 -11.602  16.120  0.00  0.00    +0.037 A 
ATOM     28  C   UNL     1      -2.716 -10.795  16.357  0.00  0.00    +0.061 A 
ATOM     29  C   UNL     1      -3.796 -12.553  15.100  0.00  0.00    +0.023 A 
ATOM     32  C   UNL     1      -1.570 -10.937  15.574  0.00  0.00    +0.125 A 
ATOM     33  C   UNL     1      -2.650 -12.695  14.317  0.00  0.00    +0.005 A 
ATOM     34  C   UNL     1      -1.537 -11.889  14.554  0.00  0.00    +0.038 A 
ENDBRANCH   6  25
ENDBRANCH  15   4
ENDBRANCH   9  15
BRANCH  11  16
ATOM     16  C   UNL     1     -12.143  -7.771  16.557  0.00  0.00    +0.103 C 
BRANCH  16  20
ATOM      2  O   UNL     1     -14.323  -7.787  15.560  0.00  0.00    -0.276 OA
ATOM      5  N   UNL     1     -12.828  -6.192  14.785  0.00  0.00    -0.300 N 
ATOM     20  C   UNL     1     -13.205  -7.265  15.598  0.00  0.00    +0.216 C 
ATOM     23  C   UNL     1     -11.501  -5.592  14.847  0.00  0.00    +0.132 C 
BRANCH   5  22
ATOM     22  C   UNL     1     -13.735  -5.592  13.810  0.00  0.00    +0.144 C 
BRANCH  22  24
ATOM      7  N   UNL     1     -11.945  -5.927  10.495  0.00  0.00    -0.263 NA
ATOM     24  C   UNL     1     -13.028  -5.221  12.538  0.00  0.00    -0.012 A 
ATOM     26  C   UNL     1     -12.791  -3.890  12.212  0.00  0.00    +0.008 A 
ATOM     27  C   UNL     1     -12.589  -6.193  11.653  0.00  0.00    +0.115 A 
ATOM     30  C   UNL     1     -12.132  -3.577  11.028  0.00  0.00    +0.020 A 
ATOM     31  C   UNL     1     -11.734  -4.623  10.212  0.00  0.00    +0.111 A 
ENDBRANCH  22  24
ENDBRANCH   5  22
ENDBRANCH  16  20
ENDBRANCH  11  16
TORSDOF 8
ENDMDL
MODEL 10
REMARK VINA RESULT:      -6.3     27.718     31.038
REMARK  Name = 38029183
REMARK  12 active torsions:
REMARK  status: ('A' for Active; 'I' for Inactive)
REMARK    1  A    between atoms: N_4  and  C_15
REMARK    2  A    between atoms: N_5  and  C_22
REMARK    3  A    between atoms: N_5  and  C_23
REMARK    4  A    between atoms: N_6  and  C_25
REMARK    5  A    between atoms: C_8  and  C_12
REMARK    6  A    between atoms: C_9  and  C_15
REMARK    7  A    between atoms: C_11  and  C_16
REMARK    8  A    between atoms: C_12  and  C_17
REMARK    9  A    between atoms: C_12  and  C_18
REMARK   10  A    between atoms: C_13  and  C_19
REMARK   11  A    between atoms: C_16  and  C_20
REMARK   12  A    between atoms: C_22  and  C_24
REMARK                            x       y       z     vdW  Elec       q    Type
REMARK                         _______ _______ _______ _____ _____    ______ ____
ROOT
ATOM      8  C   UNL     1      -5.834 -10.387  10.336  0.00  0.00    +0.000 C 
ATOM      9  C   UNL     1      -5.168  -9.479   9.272  0.00  0.00    +0.032 C 
ATOM     10  C   UNL     1      -5.327 -10.026  11.741  0.00  0.00    +0.012 C 
ATOM     11  C   UNL     1      -3.798 -10.171  11.864  0.00  0.00    +0.023 C 
ATOM     13  C   UNL     1      -3.076  -9.526  10.698  0.00  0.00    -0.073 C 
ATOM     14  C   UNL     1      -3.708  -9.213   9.552  0.00  0.00    -0.022 C 
ATOM     19  C   UNL     1      -1.621  -9.209  10.894  0.00  0.00    +0.039 C 
ENDROOT
BRANCH   8  12
ATOM     12  C   UNL     1      -7.362 -10.286  10.295  0.00  0.00    -0.013 C 
ATOM     17  C   UNL     1      -7.895  -9.737  11.614  0.00  0.00    +0.007 C 
ATOM     18  C   UNL     1      -7.977 -11.647   9.988  0.00  0.00    +0.007 C 
ENDBRANCH   8  12
BRANCH   9  15
ATOM     15  C   UNL     1      -5.318 -10.073   7.867  0.00  0.00    +0.113 C 
BRANCH  15   4
ATOM      3  O   UNL     1      -7.732 -10.112   6.326  0.00  0.00    -0.253 OA
ATOM      4  N   UNL     1      -5.755  -9.078   6.939  0.00  0.00    -0.299 N 
ATOM      6  N   UNL     1      -7.122  -8.049   5.388  0.00  0.00    -0.269 N 
ATOM     21  C   UNL     1      -6.959  -9.164   6.215  0.00  0.00    +0.304 C 
ATOM     35  H   UNL     1      -5.204  -8.231   6.843  0.00  0.00    +0.150 HD
ATOM     36  H   UNL     1      -6.382  -7.350   5.413  0.00  0.00    +0.156 HD
BRANCH   6  25
ATOM      1  F   UNL     1      -8.969  -7.905   0.959  0.00  0.00    -0.205 F 
ATOM     25  C   UNL     1      -8.195  -7.767   4.511  0.00  0.00    +0.037 A 
ATOM     28  C   UNL     1      -8.050  -7.979   3.141  0.00  0.00    +0.061 A 
ATOM     29  C   UNL     1      -9.398  -7.275   5.018  0.00  0.00    +0.023 A 
ATOM     32  C   UNL     1      -9.107  -7.700   2.275  0.00  0.00    +0.125 A 
ATOM     33  C   UNL     1     -10.455  -6.996   4.152  0.00  0.00    +0.005 A 
ATOM     34  C   UNL     1     -10.311  -7.209   2.781  0.00  0.00    +0.038 A 
ENDBRANCH   6  25
ENDBRANCH  15   4
ENDBRANCH   9  15
BRANCH  11  16
ATOM     16  C   UNL     1      -3.393 -11.641  12.014  0.00  0.00    +0.103 C 
BRANCH  16  20
ATOM      2  O   UNL     1      -1.940 -11.616  13.921  0.00  0.00    -0.276 OA
ATOM      5  N   UNL     1      -3.952 -12.748  14.151  0.00  0.00    -0.300 N 
ATOM     20  C   UNL     1      -3.014 -11.990  13.442  0.00  0.00    +0.216 C 
ATOM     23  C   UNL     1      -5.214 -13.180  13.564  0.00  0.00    +0.132 C 
BRANCH   5  22
ATOM     22  C   UNL     1      -3.737 -13.165  15.534  0.00  0.00    +0.144 C 
BRANCH  22  24
ATOM      7  N   UNL     1      -6.022 -12.220  18.396  0.00  0.00    -0.263 NA
ATOM     24  C   UNL     1      -4.522 -12.329  16.502  0.00  0.00    -0.012 A 
ATOM     26  C   UNL     1      -4.504 -10.940  16.429  0.00  0.00    +0.008 A 
ATOM     27  C   UNL     1      -5.291 -12.915  17.496  0.00  0.00    +0.115 A 
ATOM     30  C   UNL     1      -5.243 -10.191  17.337  0.00  0.00    +0.020 A 
ATOM     31  C   UNL     1      -5.978 -10.874  18.293  0.00  0.00    +0.111 A 
ENDBRANCH  22  24
ENDBRANCH   5  22
ENDBRANCH  16  20
ENDBRANCH  11  16
TORSDOF 8
ENDMDL
