MODEL 1
REMARK VINA RESULT:      -6.1      0.000      0.000
REMARK  Name = 45783963
REMARK  5 active torsions:
REMARK  status: ('A' for Active; 'I' for Inactive)
REMARK    1  A    between atoms: O_3  and  C_15
REMARK    2  A    between atoms: O_3  and  C_20
REMARK    3  A    between atoms: C_6  and  C_10
REMARK    4  A    between atoms: C_11  and  C_12
REMARK    5  A    between atoms: C_12  and  C_15
REMARK                            x       y       z     vdW  Elec       q    Type
REMARK                         _______ _______ _______ _____ _____    ______ ____
ROOT
ATOM      2  O   UNL     1      11.482  11.916  22.013  0.00  0.00    -0.276 OA
ATOM      4  N   UNL     1      11.512   9.634  21.652  0.00  0.00    -0.301 N 
ATOM      6  C   UNL     1      12.337   8.277  19.883  0.00  0.00    +0.094 C 
ATOM      7  C   UNL     1      11.431   7.435  20.797  0.00  0.00    +0.033 C 
ATOM      8  C   UNL     1      11.924   9.706  20.255  0.00  0.00    +0.120 C 
ATOM      9  C   UNL     1      11.345   8.250  22.082  0.00  0.00    +0.108 C 
ATOM     11  C   UNL     1      11.328  10.765  22.426  0.00  0.00    +0.218 C 
ENDROOT
BRANCH   6  10
ATOM      1  O   UNL     1      14.299   6.980  19.219  0.00  0.00    -0.439 OA
ATOM      5  N   UNL     1      14.656   8.406  20.944  0.00  0.00    -0.213 NA
ATOM     10  C   UNL     1      13.802   7.922  20.068  0.00  0.00    +0.201 A 
ATOM     13  C   UNL     1      15.604   6.860  19.601  0.00  0.00    +0.155 A 
ATOM     14  C   UNL     1      15.819   7.734  20.657  0.00  0.00    +0.110 A 
ATOM     16  C   UNL     1      16.572   6.025  19.056  0.00  0.00    +0.048 A 
ATOM     17  C   UNL     1      17.094   7.800  21.234  0.00  0.00    +0.031 A 
ATOM     18  C   UNL     1      17.840   6.103  19.643  0.00  0.00    +0.004 A 
ATOM     19  C   UNL     1      18.098   6.971  20.711  0.00  0.00    +0.002 A 
ENDBRANCH   6  10
BRANCH  11  12
ATOM     12  C   UNL     1      10.907  10.517  23.852  0.00  0.00    +0.124 C 
BRANCH  12  15
ATOM     15  C   UNL     1      11.054  11.793  24.652  0.00  0.00    +0.168 C 
BRANCH  15   3
ATOM      3  O   UNL     1      12.154  11.671  25.543  0.00  0.00    -0.382 OA
ATOM     20  C   UNL     1      13.058  12.759  25.408  0.00  0.00    +0.194 C 
ENDBRANCH  15   3
ENDBRANCH  12  15
ENDBRANCH  11  12
TORSDOF 4
ENDMDL
MODEL 2
REMARK VINA RESULT:      -5.8      1.422      1.991
REMARK  Name = 45783963
REMARK  5 active torsions:
REMARK  status: ('A' for Active; 'I' for Inactive)
REMARK    1  A    between atoms: O_3  and  C_15
REMARK    2  A    between atoms: O_3  and  C_20
REMARK    3  A    between atoms: C_6  and  C_10
REMARK    4  A    between atoms: C_11  and  C_12
REMARK    5  A    between atoms: C_12  and  C_15
REMARK                            x       y       z     vdW  Elec       q    Type
REMARK                         _______ _______ _______ _____ _____    ______ ____
ROOT
ATOM      2  O   UNL     1      12.428  11.867  20.868  0.00  0.00    -0.276 OA
ATOM      4  N   UNL     1      12.393   9.656  20.197  0.00  0.00    -0.301 N 
ATOM      6  C   UNL     1      13.605   8.432  18.559  0.00  0.00    +0.094 C 
ATOM      7  C   UNL     1      12.407   7.598  19.040  0.00  0.00    +0.033 C 
ATOM      8  C   UNL     1      13.208   9.846  19.004  0.00  0.00    +0.120 C 
ATOM      9  C   UNL     1      12.000   8.259  20.352  0.00  0.00    +0.108 C 
ATOM     11  C   UNL     1      12.071  10.701  21.044  0.00  0.00    +0.218 C 
ENDROOT
BRANCH   6  10
ATOM      1  O   UNL     1      15.501   8.625  20.089  0.00  0.00    -0.439 OA
ATOM      5  N   UNL     1      15.563   6.803  18.742  0.00  0.00    -0.213 NA
ATOM     10  C   UNL     1      14.916   7.891  19.101  0.00  0.00    +0.201 A 
ATOM     13  C   UNL     1      16.635   7.924  20.382  0.00  0.00    +0.155 A 
ATOM     14  C   UNL     1      16.670   6.810  19.555  0.00  0.00    +0.110 A 
ATOM     16  C   UNL     1      17.602   8.237  21.328  0.00  0.00    +0.048 A 
ATOM     17  C   UNL     1      17.747   5.920  19.662  0.00  0.00    +0.031 A 
ATOM     18  C   UNL     1      18.671   7.339  21.422  0.00  0.00    +0.004 A 
ATOM     19  C   UNL     1      18.745   6.203  20.607  0.00  0.00    +0.002 A 
ENDBRANCH   6  10
BRANCH  11  12
ATOM     12  C   UNL     1      11.224  10.335  22.237  0.00  0.00    +0.124 C 
BRANCH  12  15
ATOM     15  C   UNL     1      11.026  11.555  23.110  0.00  0.00    +0.168 C 
BRANCH  15   3
ATOM      3  O   UNL     1      11.053  11.170  24.478  0.00  0.00    -0.382 OA
ATOM     20  C   UNL     1      10.882  12.288  25.338  0.00  0.00    +0.194 C 
ENDBRANCH  15   3
ENDBRANCH  12  15
ENDBRANCH  11  12
TORSDOF 4
ENDMDL
MODEL 3
REMARK VINA RESULT:      -5.7     26.571     27.882
REMARK  Name = 45783963
REMARK  5 active torsions:
REMARK  status: ('A' for Active; 'I' for Inactive)
REMARK    1  A    between atoms: O_3  and  C_15
REMARK    2  A    between atoms: O_3  and  C_20
REMARK    3  A    between atoms: C_6  and  C_10
REMARK    4  A    between atoms: C_11  and  C_12
REMARK    5  A    between atoms: C_12  and  C_15
REMARK                            x       y       z     vdW  Elec       q    Type
REMARK                         _______ _______ _______ _____ _____    ______ ____
ROOT
ATOM      2  O   UNL     1      -5.856 -12.892  17.405  0.00  0.00    -0.276 OA
ATOM      4  N   UNL     1      -4.026 -11.751  16.575  0.00  0.00    -0.301 N 
ATOM      6  C   UNL     1      -2.775 -11.927  14.561  0.00  0.00    +0.094 C 
ATOM      7  C   UNL     1      -2.008 -11.054  15.568  0.00  0.00    +0.033 C 
ATOM      8  C   UNL     1      -3.765 -12.666  15.471  0.00  0.00    +0.120 C 
ATOM      9  C   UNL     1      -3.066 -10.653  16.590  0.00  0.00    +0.108 C 
ATOM     11  C   UNL     1      -5.071 -11.944  17.460  0.00  0.00    +0.218 C 
ENDROOT
BRANCH   6  10
ATOM      1  O   UNL     1      -2.540 -10.808  12.401  0.00  0.00    -0.439 OA
ATOM      5  N   UNL     1      -4.592 -10.609  13.343  0.00  0.00    -0.213 NA
ATOM     10  C   UNL     1      -3.372 -11.094  13.441  0.00  0.00    +0.201 A 
ATOM     13  C   UNL     1      -3.319 -10.067  11.560  0.00  0.00    +0.155 A 
ATOM     14  C   UNL     1      -4.574  -9.947  12.140  0.00  0.00    +0.110 A 
ATOM     16  C   UNL     1      -2.957  -9.516  10.337  0.00  0.00    +0.048 A 
ATOM     17  C   UNL     1      -5.566  -9.223  11.466  0.00  0.00    +0.031 A 
ATOM     18  C   UNL     1      -3.959  -8.796   9.677  0.00  0.00    +0.004 A 
ATOM     19  C   UNL     1      -5.238  -8.651  10.227  0.00  0.00    +0.002 A 
ENDBRANCH   6  10
BRANCH  11  12
ATOM     12  C   UNL     1      -5.206 -10.903  18.543  0.00  0.00    +0.124 C 
BRANCH  12  15
ATOM     15  C   UNL     1      -5.946 -11.495  19.724  0.00  0.00    +0.168 C 
BRANCH  15   3
ATOM      3  O   UNL     1      -7.056 -10.670  20.051  0.00  0.00    -0.382 OA
ATOM     20  C   UNL     1      -8.222 -11.059  19.338  0.00  0.00    +0.194 C 
ENDBRANCH  15   3
ENDBRANCH  12  15
ENDBRANCH  11  12
TORSDOF 4
ENDMDL
MODEL 4
REMARK VINA RESULT:      -5.3     26.763     28.344
REMARK  Name = 45783963
REMARK  5 active torsions:
REMARK  status: ('A' for Active; 'I' for Inactive)
REMARK    1  A    between atoms: O_3  and  C_15
REMARK    2  A    between atoms: O_3  and  C_20
REMARK    3  A    between atoms: C_6  and  C_10
REMARK    4  A    between atoms: C_11  and  C_12
REMARK    5  A    between atoms: C_12  and  C_15
REMARK                            x       y       z     vdW  Elec       q    Type
REMARK                         _______ _______ _______ _____ _____    ______ ____
ROOT
ATOM      2  O   UNL     1      -3.010  -8.878  10.037  0.00  0.00    -0.276 OA
ATOM      4  N   UNL     1      -2.910 -10.827  11.274  0.00  0.00    -0.301 N 
ATOM      6  C   UNL     1      -2.029 -11.351  13.419  0.00  0.00    +0.094 C 
ATOM      7  C   UNL     1      -2.335 -12.651  12.659  0.00  0.00    +0.033 C 
ATOM      8  C   UNL     1      -1.989 -10.320  12.283  0.00  0.00    +0.120 C 
ATOM      9  C   UNL     1      -3.278 -12.213  11.543  0.00  0.00    +0.108 C 
ATOM     11  C   UNL     1      -3.353 -10.047  10.221  0.00  0.00    +0.218 C 
ENDROOT
BRANCH   6  10
ATOM      1  O   UNL     1      -2.696 -11.576  15.760  0.00  0.00    -0.439 OA
ATOM      5  N   UNL     1      -4.197 -10.488  14.455  0.00  0.00    -0.213 NA
ATOM     10  C   UNL     1      -3.036 -11.102  14.528  0.00  0.00    +0.201 A 
ATOM     13  C   UNL     1      -3.755 -11.221  16.544  0.00  0.00    +0.155 A 
ATOM     14  C   UNL     1      -4.672 -10.556  15.743  0.00  0.00    +0.110 A 
ATOM     16  C   UNL     1      -3.921 -11.464  17.902  0.00  0.00    +0.048 A 
ATOM     17  C   UNL     1      -5.860 -10.085  16.319  0.00  0.00    +0.031 A 
ATOM     18  C   UNL     1      -5.112 -10.988  18.461  0.00  0.00    +0.004 A 
ATOM     19  C   UNL     1      -6.063 -10.312  17.688  0.00  0.00    +0.002 A 
ENDBRANCH   6  10
BRANCH  11  12
ATOM     12  C   UNL     1      -4.306 -10.722   9.268  0.00  0.00    +0.124 C 
BRANCH  12  15
ATOM     15  C   UNL     1      -4.978  -9.678   8.401  0.00  0.00    +0.168 C 
BRANCH  15   3
ATOM      3  O   UNL     1      -6.382  -9.897   8.394  0.00  0.00    -0.382 OA
ATOM     20  C   UNL     1      -7.042  -9.024   7.488  0.00  0.00    +0.194 C 
ENDBRANCH  15   3
ENDBRANCH  12  15
ENDBRANCH  11  12
TORSDOF 4
ENDMDL
MODEL 5
REMARK VINA RESULT:      -5.3     16.702     19.567
REMARK  Name = 45783963
REMARK  5 active torsions:
REMARK  status: ('A' for Active; 'I' for Inactive)
REMARK    1  A    between atoms: O_3  and  C_15
REMARK    2  A    between atoms: O_3  and  C_20
REMARK    3  A    between atoms: C_6  and  C_10
REMARK    4  A    between atoms: C_11  and  C_12
REMARK    5  A    between atoms: C_12  and  C_15
REMARK                            x       y       z     vdW  Elec       q    Type
REMARK                         _______ _______ _______ _____ _____    ______ ____
ROOT
ATOM      2  O   UNL     1      13.450   2.821   1.655  0.00  0.00    -0.276 OA
ATOM      4  N   UNL     1      12.363   4.848   1.883  0.00  0.00    -0.301 N 
ATOM      6  C   UNL     1      10.139   5.444   2.473  0.00  0.00    +0.094 C 
ATOM      7  C   UNL     1      10.861   6.669   1.889  0.00  0.00    +0.033 C 
ATOM      8  C   UNL     1      11.020   4.290   1.979  0.00  0.00    +0.120 C 
ATOM      9  C   UNL     1      12.339   6.303   1.978  0.00  0.00    +0.108 C 
ATOM     11  C   UNL     1      13.483   4.051   1.731  0.00  0.00    +0.218 C 
ENDROOT
BRANCH   6  10
ATOM      1  O   UNL     1       9.348   6.703   4.413  0.00  0.00    -0.439 OA
ATOM      5  N   UNL     1      10.316   4.716   4.914  0.00  0.00    -0.213 NA
ATOM     10  C   UNL     1       9.959   5.566   3.976  0.00  0.00    +0.201 A 
ATOM     13  C   UNL     1       9.318   6.551   5.769  0.00  0.00    +0.155 A 
ATOM     14  C   UNL     1       9.911   5.334   6.073  0.00  0.00    +0.110 A 
ATOM     16  C   UNL     1       8.797   7.432   6.708  0.00  0.00    +0.048 A 
ATOM     17  C   UNL     1      10.004   4.941   7.415  0.00  0.00    +0.031 A 
ATOM     18  C   UNL     1       8.897   7.025   8.043  0.00  0.00    +0.004 A 
ATOM     19  C   UNL     1       9.489   5.805   8.392  0.00  0.00    +0.002 A 
ENDBRANCH   6  10
BRANCH  11  12
ATOM     12  C   UNL     1      14.798   4.784   1.653  0.00  0.00    +0.124 C 
BRANCH  12  15
ATOM     15  C   UNL     1      15.588   4.281   0.464  0.00  0.00    +0.168 C 
BRANCH  15   3
ATOM      3  O   UNL     1      16.379   5.338  -0.063  0.00  0.00    -0.382 OA
ATOM     20  C   UNL     1      15.656   6.561  -0.101  0.00  0.00    +0.194 C 
ENDBRANCH  15   3
ENDBRANCH  12  15
ENDBRANCH  11  12
TORSDOF 4
ENDMDL
MODEL 6
REMARK VINA RESULT:      -5.3     26.703     27.933
REMARK  Name = 45783963
REMARK  5 active torsions:
REMARK  status: ('A' for Active; 'I' for Inactive)
REMARK    1  A    between atoms: O_3  and  C_15
REMARK    2  A    between atoms: O_3  and  C_20
REMARK    3  A    between atoms: C_6  and  C_10
REMARK    4  A    between atoms: C_11  and  C_12
REMARK    5  A    between atoms: C_12  and  C_15
REMARK                            x       y       z     vdW  Elec       q    Type
REMARK                         _______ _______ _______ _____ _____    ______ ____
ROOT
ATOM      2  O   UNL     1      -6.679 -12.360  16.895  0.00  0.00    -0.276 OA
ATOM      4  N   UNL     1      -4.613 -11.458  16.384  0.00  0.00    -0.301 N 
ATOM      6  C   UNL     1      -3.021 -11.903  14.676  0.00  0.00    +0.094 C 
ATOM      7  C   UNL     1      -2.377 -11.028  15.763  0.00  0.00    +0.033 C 
ATOM      8  C   UNL     1      -4.240 -12.476  15.409  0.00  0.00    +0.120 C 
ATOM      9  C   UNL     1      -3.565 -10.454  16.527  0.00  0.00    +0.108 C 
ATOM     11  C   UNL     1      -5.824 -11.486  17.052  0.00  0.00    +0.218 C 
ENDROOT
BRANCH   6  10
ATOM      1  O   UNL     1      -4.572 -10.644  13.268  0.00  0.00    -0.439 OA
ATOM      5  N   UNL     1      -2.470 -10.807  12.436  0.00  0.00    -0.213 NA
ATOM     10  C   UNL     1      -3.299 -11.108  13.412  0.00  0.00    +0.201 A 
ATOM     13  C   UNL     1      -4.540  -9.982  12.075  0.00  0.00    +0.155 A 
ATOM     14  C   UNL     1      -3.252 -10.084  11.568  0.00  0.00    +0.110 A 
ATOM     16  C   UNL     1      -5.585  -9.315  11.448  0.00  0.00    +0.048 A 
ATOM     17  C   UNL     1      -2.957  -9.480  10.339  0.00  0.00    +0.031 A 
ATOM     18  C   UNL     1      -5.275  -8.717  10.222  0.00  0.00    +0.004 A 
ATOM     19  C   UNL     1      -3.988  -8.797   9.676  0.00  0.00    +0.002 A 
ENDBRANCH   6  10
BRANCH  11  12
ATOM     12  C   UNL     1      -6.058 -10.356  18.023  0.00  0.00    +0.124 C 
BRANCH  12  15
ATOM     15  C   UNL     1      -7.526  -9.988  18.027  0.00  0.00    +0.168 C 
BRANCH  15   3
ATOM      3  O   UNL     1      -7.745  -8.898  17.142  0.00  0.00    -0.382 OA
ATOM     20  C   UNL     1      -8.965  -9.043  16.427  0.00  0.00    +0.194 C 
ENDBRANCH  15   3
ENDBRANCH  12  15
ENDBRANCH  11  12
TORSDOF 4
ENDMDL
MODEL 7
REMARK VINA RESULT:      -5.2     27.644     29.718
REMARK  Name = 45783963
REMARK  5 active torsions:
REMARK  status: ('A' for Active; 'I' for Inactive)
REMARK    1  A    between atoms: O_3  and  C_15
REMARK    2  A    between atoms: O_3  and  C_20
REMARK    3  A    between atoms: C_6  and  C_10
REMARK    4  A    between atoms: C_11  and  C_12
REMARK    5  A    between atoms: C_12  and  C_15
REMARK                            x       y       z     vdW  Elec       q    Type
REMARK                         _______ _______ _______ _____ _____    ______ ____
ROOT
ATOM      2  O   UNL     1      -0.012   2.337  -3.965  0.00  0.00    -0.276 OA
ATOM      4  N   UNL     1       1.167   3.307  -5.701  0.00  0.00    -0.301 N 
ATOM      6  C   UNL     1       2.020   5.495  -6.065  0.00  0.00    +0.094 C 
ATOM      7  C   UNL     1       2.063   4.702  -7.381  0.00  0.00    +0.033 C 
ATOM      8  C   UNL     1       1.022   4.680  -5.234  0.00  0.00    +0.120 C 
ATOM      9  C   UNL     1       1.934   3.248  -6.940  0.00  0.00    +0.108 C 
ATOM     11  C   UNL     1       0.632   2.233  -5.011  0.00  0.00    +0.218 C 
ENDROOT
BRANCH   6  10
ATOM      1  O   UNL     1       3.469   6.312  -4.273  0.00  0.00    -0.439 OA
ATOM      5  N   UNL     1       4.564   5.292  -5.976  0.00  0.00    -0.213 NA
ATOM     10  C   UNL     1       3.409   5.673  -5.476  0.00  0.00    +0.201 A 
ATOM     13  C   UNL     1       4.804   6.333  -3.987  0.00  0.00    +0.155 A 
ATOM     14  C   UNL     1       5.471   5.708  -5.031  0.00  0.00    +0.110 A 
ATOM     16  C   UNL     1       5.420   6.872  -2.865  0.00  0.00    +0.048 A 
ATOM     17  C   UNL     1       6.867   5.600  -4.975  0.00  0.00    +0.031 A 
ATOM     18  C   UNL     1       6.813   6.755  -2.824  0.00  0.00    +0.004 A 
ATOM     19  C   UNL     1       7.525   6.133  -3.857  0.00  0.00    +0.002 A 
ENDBRANCH   6  10
BRANCH  11  12
ATOM     12  C   UNL     1       0.876   0.879  -5.626  0.00  0.00    +0.124 C 
BRANCH  12  15
ATOM     15  C   UNL     1      -0.375   0.414  -6.340  0.00  0.00    +0.168 C 
BRANCH  15   3
ATOM      3  O   UNL     1      -0.603  -0.959  -6.054  0.00  0.00    -0.382 OA
ATOM     20  C   UNL     1      -1.902  -1.368  -6.460  0.00  0.00    +0.194 C 
ENDBRANCH  15   3
ENDBRANCH  12  15
ENDBRANCH  11  12
TORSDOF 4
ENDMDL
MODEL 8
REMARK VINA RESULT:      -5.1     26.056     28.130
REMARK  Name = 45783963
REMARK  5 active torsions:
REMARK  status: ('A' for Active; 'I' for Inactive)
REMARK    1  A    between atoms: O_3  and  C_15
REMARK    2  A    between atoms: O_3  and  C_20
REMARK    3  A    between atoms: C_6  and  C_10
REMARK    4  A    between atoms: C_11  and  C_12
REMARK    5  A    between atoms: C_12  and  C_15
REMARK                            x       y       z     vdW  Elec       q    Type
REMARK                         _______ _______ _______ _____ _____    ______ ____
ROOT
ATOM      2  O   UNL     1      -9.575  -9.753  15.400  0.00  0.00    -0.276 OA
ATOM      4  N   UNL     1      -8.060 -10.274  17.066  0.00  0.00    -0.301 N 
ATOM      6  C   UNL     1      -6.396 -11.957  17.283  0.00  0.00    +0.094 C 
ATOM      7  C   UNL     1      -6.636 -11.293  18.649  0.00  0.00    +0.033 C 
ATOM      8  C   UNL     1      -7.659 -11.560  16.510  0.00  0.00    +0.120 C 
ATOM      9  C   UNL     1      -7.345  -9.988  18.304  0.00  0.00    +0.108 C 
ATOM     11  C   UNL     1      -8.997  -9.464  16.450  0.00  0.00    +0.218 C 
ENDROOT
BRANCH   6  10
ATOM      1  O   UNL     1      -5.067 -11.307  15.337  0.00  0.00    -0.439 OA
ATOM      5  N   UNL     1      -3.915 -11.350  17.289  0.00  0.00    -0.213 NA
ATOM     10  C   UNL     1      -5.068 -11.531  16.681  0.00  0.00    +0.201 A 
ATOM     13  C   UNL     1      -3.778 -10.946  15.072  0.00  0.00    +0.155 A 
ATOM     14  C   UNL     1      -3.076 -10.974  16.268  0.00  0.00    +0.110 A 
ATOM     16  C   UNL     1      -3.231 -10.606  13.841  0.00  0.00    +0.048 A 
ATOM     17  C   UNL     1      -1.715 -10.639  16.264  0.00  0.00    +0.031 A 
ATOM     18  C   UNL     1      -1.871 -10.274  13.854  0.00  0.00    +0.004 A 
ATOM     19  C   UNL     1      -1.126 -10.290  15.039  0.00  0.00    +0.002 A 
ENDBRANCH   6  10
BRANCH  11  12
ATOM     12  C   UNL     1      -9.295  -8.163  17.152  0.00  0.00    +0.124 C 
BRANCH  12  15
ATOM     15  C   UNL     1     -10.724  -7.752  16.870  0.00  0.00    +0.168 C 
BRANCH  15   3
ATOM      3  O   UNL     1     -10.733  -6.538  16.131  0.00  0.00    -0.382 OA
ATOM     20  C   UNL     1     -11.555  -6.636  14.977  0.00  0.00    +0.194 C 
ENDBRANCH  15   3
ENDBRANCH  12  15
ENDBRANCH  11  12
TORSDOF 4
ENDMDL
MODEL 9
REMARK VINA RESULT:      -4.9     26.728     28.844
REMARK  Name = 45783963
REMARK  5 active torsions:
REMARK  status: ('A' for Active; 'I' for Inactive)
REMARK    1  A    between atoms: O_3  and  C_15
REMARK    2  A    between atoms: O_3  and  C_20
REMARK    3  A    between atoms: C_6  and  C_10
REMARK    4  A    between atoms: C_11  and  C_12
REMARK    5  A    between atoms: C_12  and  C_15
REMARK                            x       y       z     vdW  Elec       q    Type
REMARK                         _______ _______ _______ _____ _____    ______ ____
ROOT
ATOM      2  O   UNL     1      -3.337 -10.482  10.334  0.00  0.00    -0.276 OA
ATOM      4  N   UNL     1      -2.801 -11.682  12.235  0.00  0.00    -0.301 N 
ATOM      6  C   UNL     1      -2.161 -11.046  14.434  0.00  0.00    +0.094 C 
ATOM      7  C   UNL     1      -1.889 -12.546  14.234  0.00  0.00    +0.033 C 
ATOM      8  C   UNL     1      -2.280 -10.548  12.988  0.00  0.00    +0.120 C 
ATOM      9  C   UNL     1      -2.727 -12.913  13.014  0.00  0.00    +0.108 C 
ATOM     11  C   UNL     1      -3.297 -11.548  10.951  0.00  0.00    +0.218 C 
ENDROOT
BRANCH   6  10
ATOM      1  O   UNL     1      -3.209 -11.176  16.639  0.00  0.00    -0.439 OA
ATOM      5  N   UNL     1      -4.533 -10.304  15.019  0.00  0.00    -0.213 NA
ATOM     10  C   UNL     1      -3.362 -10.813  15.335  0.00  0.00    +0.201 A 
ATOM     13  C   UNL     1      -4.412 -10.862  17.203  0.00  0.00    +0.155 A 
ATOM     14  C   UNL     1      -5.220 -10.329  16.209  0.00  0.00    +0.110 A 
ATOM     16  C   UNL     1      -4.795 -11.031  18.528  0.00  0.00    +0.048 A 
ATOM     17  C   UNL     1      -6.520  -9.923  16.538  0.00  0.00    +0.031 A 
ATOM     18  C   UNL     1      -6.096 -10.621  18.839  0.00  0.00    +0.004 A 
ATOM     19  C   UNL     1      -6.943 -10.078  17.866  0.00  0.00    +0.002 A 
ENDBRANCH   6  10
BRANCH  11  12
ATOM     12  C   UNL     1      -3.802 -12.817  10.313  0.00  0.00    +0.124 C 
BRANCH  12  15
ATOM     15  C   UNL     1      -4.221 -12.534   8.887  0.00  0.00    +0.168 C 
BRANCH  15   3
ATOM      3  O   UNL     1      -5.593 -12.866   8.719  0.00  0.00    -0.382 OA
ATOM     20  C   UNL     1      -5.849 -14.220   9.067  0.00  0.00    +0.194 C 
ENDBRANCH  15   3
ENDBRANCH  12  15
ENDBRANCH  11  12
TORSDOF 4
ENDMDL
MODEL 10
REMARK VINA RESULT:      -4.9     26.462     28.937
REMARK  Name = 45783963
REMARK  5 active torsions:
REMARK  status: ('A' for Active; 'I' for Inactive)
REMARK    1  A    between atoms: O_3  and  C_15
REMARK    2  A    between atoms: O_3  and  C_20
REMARK    3  A    between atoms: C_6  and  C_10
REMARK    4  A    between atoms: C_11  and  C_12
REMARK    5  A    between atoms: C_12  and  C_15
REMARK                            x       y       z     vdW  Elec       q    Type
REMARK                         _______ _______ _______ _____ _____    ______ ____
ROOT
ATOM      2  O   UNL     1      -3.313 -14.520  12.523  0.00  0.00    -0.276 OA
ATOM      4  N   UNL     1      -2.502 -12.685  13.670  0.00  0.00    -0.301 N 
ATOM      6  C   UNL     1      -3.502 -10.665  14.424  0.00  0.00    +0.094 C 
ATOM      7  C   UNL     1      -1.972 -10.546  14.516  0.00  0.00    +0.033 C 
ATOM      8  C   UNL     1      -3.672 -11.843  13.457  0.00  0.00    +0.120 C 
ATOM      9  C   UNL     1      -1.485 -11.989  14.451  0.00  0.00    +0.108 C 
ATOM     11  C   UNL     1      -2.423 -13.976  13.180  0.00  0.00    +0.218 C 
ENDROOT
BRANCH   6  10
ATOM      1  O   UNL     1      -5.358 -10.240  15.956  0.00  0.00    -0.439 OA
ATOM      5  N   UNL     1      -3.652 -11.430  16.855  0.00  0.00    -0.213 NA
ATOM     10  C   UNL     1      -4.134 -10.815  15.797  0.00  0.00    +0.201 A 
ATOM     13  C   UNL     1      -5.681 -10.524  17.252  0.00  0.00    +0.155 A 
ATOM     14  C   UNL     1      -4.634 -11.252  17.799  0.00  0.00    +0.110 A 
ATOM     16  C   UNL     1      -6.837 -10.166  17.934  0.00  0.00    +0.048 A 
ATOM     17  C   UNL     1      -4.723 -11.669  19.134  0.00  0.00    +0.031 A 
ATOM     18  C   UNL     1      -6.911 -10.590  19.265  0.00  0.00    +0.004 A 
ATOM     19  C   UNL     1      -5.877 -11.326  19.856  0.00  0.00    +0.002 A 
ENDBRANCH   6  10
BRANCH  11  12
ATOM     12  C   UNL     1      -1.147 -14.715  13.494  0.00  0.00    +0.124 C 
BRANCH  12  15
ATOM     15  C   UNL     1      -1.256 -16.143  13.006  0.00  0.00    +0.168 C 
BRANCH  15   3
ATOM      3  O   UNL     1      -0.394 -16.332  11.891  0.00  0.00    -0.382 OA
ATOM     20  C   UNL     1      -1.096 -16.855  10.772  0.00  0.00    +0.194 C 
ENDBRANCH  15   3
ENDBRANCH  12  15
ENDBRANCH  11  12
TORSDOF 4
ENDMDL
