MODEL 1
REMARK VINA RESULT:      -6.6      0.000      0.000
REMARK  Name = 11883092
REMARK  10 active torsions:
REMARK  status: ('A' for Active; 'I' for Inactive)
REMARK    1  A    between atoms: O_2  and  C_15
REMARK    2  A    between atoms: O_3  and  C_20
REMARK    3  A    between atoms: N_9  and  C_31
REMARK    4  A    between atoms: C_10  and  C_18
REMARK    5  A    between atoms: C_12  and  C_20
REMARK    6  A    between atoms: C_12  and  C_21
REMARK    7  A    between atoms: C_13  and  C_23
REMARK    8  A    between atoms: C_23  and  C_24
REMARK    9  A    between atoms: C_26  and  C_27
REMARK   10  A    between atoms: C_31  and  C_32
REMARK                            x       y       z     vdW  Elec       q    Type
REMARK                         _______ _______ _______ _____ _____    ______ ____
ROOT
ATOM      1  S   UNL     1      15.063   7.965   6.207  0.00  0.00    -0.057 S 
ATOM      5  O   UNL     1      12.647   6.370   2.572  0.00  0.00    -0.275 OA
ATOM      7  N   UNL     1      15.153   7.470   3.669  0.00  0.00    -0.229 NA
ATOM      8  N   UNL     1      13.080   6.985   4.799  0.00  0.00    -0.264 N 
ATOM     10  C   UNL     1      18.645   9.104   3.606  0.00  0.00    -0.019 C 
ATOM     11  C   UNL     1      18.968   8.655   5.099  0.00  0.00    +0.011 C 
ATOM     12  C   UNL     1      20.321   9.172   5.726  0.00  0.00    +0.021 C 
ATOM     13  C   UNL     1      17.501   8.143   3.040  0.00  0.00    +0.054 C 
ATOM     14  C   UNL     1      19.912   8.927   2.729  0.00  0.00    +0.010 C 
ATOM     15  C   UNL     1      21.472   8.963   4.701  0.00  0.00    +0.123 C 
ATOM     16  C   UNL     1      17.735   8.843   6.029  0.00  0.00    +0.049 C 
ATOM     17  C   UNL     1      21.167   9.546   3.327  0.00  0.00    +0.032 C 
ATOM     18  C   UNL     1      18.175  10.576   3.510  0.00  0.00    +0.012 C 
ATOM     19  C   UNL     1      16.382   7.984   4.037  0.00  0.00    +0.058 A 
ATOM     21  C   UNL     1      20.657   8.318   6.981  0.00  0.00    +0.016 C 
ATOM     22  C   UNL     1      16.514   8.288   5.377  0.00  0.00    +0.015 A 
ATOM     25  C   UNL     1      14.376   7.421   4.730  0.00  0.00    +0.165 A 
ATOM     27  C   UNL     1      12.290   6.491   3.747  0.00  0.00    +0.222 C 
ATOM     38  H   UNL     1      12.660   7.031   5.724  0.00  0.00    +0.157 HD
ENDROOT
BRANCH  27  26
ATOM     26  C   UNL     1      10.866   6.094   4.191  0.00  0.00    +0.075 C 
ATOM     28  C   UNL     1      10.611   5.941   5.705  0.00  0.00    +0.013 C 
ATOM     29  C   UNL     1      10.465   4.611   4.050  0.00  0.00    +0.013 C 
ATOM     30  C   UNL     1       9.649   4.788   5.347  0.00  0.00    +0.001 C 
ENDBRANCH  27  26
BRANCH  15   2
ATOM      2  O   UNL     1      22.686   9.537   5.184  0.00  0.00    -0.391 OA
ATOM     36  H   UNL     1      22.935   9.063   5.996  0.00  0.00    +0.210 HD
ENDBRANCH  15   2
BRANCH  12  20
ATOM     20  C   UNL     1      20.281  10.636   6.217  0.00  0.00    +0.165 C 
BRANCH  20   3
ATOM      3  O   UNL     1      21.061  10.719   7.389  0.00  0.00    -0.394 OA
ATOM     37  H   UNL     1      20.734  10.039   8.003  0.00  0.00    +0.209 HD
ENDBRANCH  20   3
ENDBRANCH  12  20
BRANCH  13  23
ATOM     23  C   UNL     1      16.967   8.534   1.655  0.00  0.00    +0.106 C 
BRANCH  23  24
ATOM      4  O   UNL     1      17.951   7.390  -0.237  0.00  0.00    -0.276 OA
ATOM      9  N   UNL     1      16.162   6.420   0.886  0.00  0.00    -0.308 N 
ATOM     24  C   UNL     1      17.108   7.409   0.656  0.00  0.00    +0.214 C 
ATOM     39  H   UNL     1      15.516   6.523   1.664  0.00  0.00    +0.149 HD
BRANCH   9  31
ATOM     31  C   UNL     1      16.059   5.224   0.082  0.00  0.00    +0.178 C 
BRANCH  31  32
ATOM      6  O   UNL     1      13.776   4.478  -0.279  0.00  0.00    -0.466 OA
ATOM     32  C   UNL     1      14.871   4.424   0.524  0.00  0.00    +0.122 A 
ATOM     33  C   UNL     1      14.635   3.614   1.610  0.00  0.00    +0.046 A 
ATOM     34  C   UNL     1      13.310   3.139   1.465  0.00  0.00    +0.041 A 
ATOM     35  C   UNL     1      12.830   3.692   0.301  0.00  0.00    +0.195 A 
ENDBRANCH  31  32
ENDBRANCH   9  31
ENDBRANCH  23  24
ENDBRANCH  13  23
TORSDOF 8
ENDMDL
MODEL 2
REMARK VINA RESULT:      -6.2     28.218     30.809
REMARK  Name = 11883092
REMARK  10 active torsions:
REMARK  status: ('A' for Active; 'I' for Inactive)
REMARK    1  A    between atoms: O_2  and  C_15
REMARK    2  A    between atoms: O_3  and  C_20
REMARK    3  A    between atoms: N_9  and  C_31
REMARK    4  A    between atoms: C_10  and  C_18
REMARK    5  A    between atoms: C_12  and  C_20
REMARK    6  A    between atoms: C_12  and  C_21
REMARK    7  A    between atoms: C_13  and  C_23
REMARK    8  A    between atoms: C_23  and  C_24
REMARK    9  A    between atoms: C_26  and  C_27
REMARK   10  A    between atoms: C_31  and  C_32
REMARK                            x       y       z     vdW  Elec       q    Type
REMARK                         _______ _______ _______ _____ _____    ______ ____
ROOT
ATOM      1  S   UNL     1      -4.806  -9.272   9.912  0.00  0.00    -0.057 S 
ATOM      5  O   UNL     1      -9.082  -7.600   9.200  0.00  0.00    -0.275 OA
ATOM      7  N   UNL     1      -7.130  -8.898  10.987  0.00  0.00    -0.229 NA
ATOM      8  N   UNL     1      -6.853  -8.160   8.709  0.00  0.00    -0.264 N 
ATOM     10  C   UNL     1      -5.886 -10.875  14.054  0.00  0.00    -0.019 C 
ATOM     11  C   UNL     1      -4.380 -10.397  13.850  0.00  0.00    +0.011 C 
ATOM     12  C   UNL     1      -3.295 -11.020  14.811  0.00  0.00    +0.021 C 
ATOM     13  C   UNL     1      -6.839  -9.828  13.313  0.00  0.00    +0.054 C 
ATOM     14  C   UNL     1      -6.229 -10.863  15.567  0.00  0.00    +0.010 C 
ATOM     15  C   UNL     1      -3.818 -10.971  16.275  0.00  0.00    +0.123 C 
ATOM     16  C   UNL     1      -3.975 -10.421  12.348  0.00  0.00    +0.049 C 
ATOM     17  C   UNL     1      -5.206 -11.578  16.437  0.00  0.00    +0.032 C 
ATOM     18  C   UNL     1      -6.146 -12.295  13.497  0.00  0.00    +0.012 C 
ATOM     19  C   UNL     1      -6.330  -9.516  11.929  0.00  0.00    +0.058 A 
ATOM     21  C   UNL     1      -2.006 -10.151  14.750  0.00  0.00    +0.016 C 
ATOM     22  C   UNL     1      -5.036  -9.774  11.523  0.00  0.00    +0.015 A 
ATOM     25  C   UNL     1      -6.434  -8.726   9.883  0.00  0.00    +0.165 A 
ATOM     27  C   UNL     1      -8.125  -7.634   8.422  0.00  0.00    +0.222 C 
ATOM     38  H   UNL     1      -6.151  -8.124   7.974  0.00  0.00    +0.157 HD
ENDROOT
BRANCH  27  26
ATOM     26  C   UNL     1      -8.244  -7.078   6.988  0.00  0.00    +0.075 C 
ATOM     28  C   UNL     1      -9.652  -7.032   6.358  0.00  0.00    +0.013 C 
ATOM     29  C   UNL     1      -7.840  -8.013   5.828  0.00  0.00    +0.013 C 
ATOM     30  C   UNL     1      -8.977  -7.364   5.012  0.00  0.00    +0.001 C 
ENDBRANCH  27  26
BRANCH  15   2
ATOM      2  O   UNL     1      -2.916 -11.643  17.153  0.00  0.00    -0.391 OA
ATOM     36  H   UNL     1      -2.419 -10.965  17.641  0.00  0.00    +0.210 HD
ENDBRANCH  15   2
BRANCH  12  20
ATOM     20  C   UNL     1      -2.850 -12.450  14.433  0.00  0.00    +0.165 C 
BRANCH  20   3
ATOM      3  O   UNL     1      -1.475 -12.566  14.725  0.00  0.00    -0.394 OA
ATOM     37  H   UNL     1      -1.194 -11.728  15.132  0.00  0.00    +0.209 HD
ENDBRANCH  20   3
ENDBRANCH  12  20
BRANCH  13  23
ATOM     23  C   UNL     1      -8.322 -10.223  13.290  0.00  0.00    +0.106 C 
BRANCH  23  24
ATOM      4  O   UNL     1      -9.640 -10.809  15.233  0.00  0.00    -0.276 OA
ATOM      9  N   UNL     1      -8.796  -8.652  15.027  0.00  0.00    -0.308 N 
ATOM     24  C   UNL     1      -8.998  -9.962  14.616  0.00  0.00    +0.214 C 
ATOM     39  H   UNL     1      -8.235  -8.032  14.449  0.00  0.00    +0.149 HD
BRANCH   9  31
ATOM     31  C   UNL     1      -9.331  -8.120  16.260  0.00  0.00    +0.178 C 
BRANCH  31  32
ATOM      6  O   UNL     1     -11.751  -8.114  16.063  0.00  0.00    -0.466 OA
ATOM     32  C   UNL     1     -10.606  -7.387  15.978  0.00  0.00    +0.122 A 
ATOM     33  C   UNL     1     -10.886  -6.085  15.635  0.00  0.00    +0.046 A 
ATOM     34  C   UNL     1     -12.292  -6.006  15.502  0.00  0.00    +0.041 A 
ATOM     35  C   UNL     1     -12.773  -7.266  15.773  0.00  0.00    +0.195 A 
ENDBRANCH  31  32
ENDBRANCH   9  31
ENDBRANCH  23  24
ENDBRANCH  13  23
TORSDOF 8
ENDMDL
MODEL 3
REMARK VINA RESULT:      -6.2     28.074     31.083
REMARK  Name = 11883092
REMARK  10 active torsions:
REMARK  status: ('A' for Active; 'I' for Inactive)
REMARK    1  A    between atoms: O_2  and  C_15
REMARK    2  A    between atoms: O_3  and  C_20
REMARK    3  A    between atoms: N_9  and  C_31
REMARK    4  A    between atoms: C_10  and  C_18
REMARK    5  A    between atoms: C_12  and  C_20
REMARK    6  A    between atoms: C_12  and  C_21
REMARK    7  A    between atoms: C_13  and  C_23
REMARK    8  A    between atoms: C_23  and  C_24
REMARK    9  A    between atoms: C_26  and  C_27
REMARK   10  A    between atoms: C_31  and  C_32
REMARK                            x       y       z     vdW  Elec       q    Type
REMARK                         _______ _______ _______ _____ _____    ______ ____
ROOT
ATOM      1  S   UNL     1      -7.341 -10.062  12.713  0.00  0.00    -0.057 S 
ATOM      5  O   UNL     1      -3.440 -10.318  10.200  0.00  0.00    -0.275 OA
ATOM      7  N   UNL     1      -4.801 -10.548  12.806  0.00  0.00    -0.229 NA
ATOM      8  N   UNL     1      -5.721  -9.977  10.652  0.00  0.00    -0.264 N 
ATOM     10  C   UNL     1      -5.118 -10.784  16.641  0.00  0.00    -0.019 C 
ATOM     11  C   UNL     1      -6.612 -11.328  16.563  0.00  0.00    +0.011 C 
ATOM     12  C   UNL     1      -7.377 -11.520  17.929  0.00  0.00    +0.021 C 
ATOM     13  C   UNL     1      -4.411 -11.083  15.239  0.00  0.00    +0.054 C 
ATOM     14  C   UNL     1      -4.348 -11.549  17.750  0.00  0.00    +0.010 C 
ATOM     15  C   UNL     1      -6.450 -12.258  18.936  0.00  0.00    +0.123 C 
ATOM     16  C   UNL     1      -7.437 -10.570  15.483  0.00  0.00    +0.049 C 
ATOM     17  C   UNL     1      -5.081 -11.605  19.082  0.00  0.00    +0.032 C 
ATOM     18  C   UNL     1      -5.045  -9.268  16.942  0.00  0.00    +0.012 C 
ATOM     19  C   UNL     1      -5.298 -10.683  14.088  0.00  0.00    +0.058 A 
ATOM     21  C   UNL     1      -8.618 -12.427  17.692  0.00  0.00    +0.016 C 
ATOM     22  C   UNL     1      -6.656 -10.475  14.216  0.00  0.00    +0.015 A 
ATOM     25  C   UNL     1      -5.786 -10.215  11.999  0.00  0.00    +0.165 A 
ATOM     27  C   UNL     1      -4.583 -10.037   9.830  0.00  0.00    +0.222 C 
ATOM     38  H   UNL     1      -6.607  -9.733  10.216  0.00  0.00    +0.157 HD
ENDROOT
BRANCH  27  26
ATOM     26  C   UNL     1      -4.882  -9.702   8.353  0.00  0.00    +0.075 C 
ATOM     28  C   UNL     1      -6.327  -9.295   7.996  0.00  0.00    +0.013 C 
ATOM     29  C   UNL     1      -5.055 -10.885   7.378  0.00  0.00    +0.013 C 
ATOM     30  C   UNL     1      -6.122 -10.034   6.657  0.00  0.00    +0.001 C 
ENDBRANCH  27  26
BRANCH  15   2
ATOM      2  O   UNL     1      -7.063 -12.333  20.222  0.00  0.00    -0.391 OA
ATOM     36  H   UNL     1      -6.784 -11.552  20.729  0.00  0.00    +0.210 HD
ENDBRANCH  15   2
BRANCH  12  20
ATOM     20  C   UNL     1      -7.928 -10.214  18.544  0.00  0.00    +0.165 C 
BRANCH  20   3
ATOM      3  O   UNL     1      -8.966 -10.559  19.433  0.00  0.00    -0.394 OA
ATOM     37  H   UNL     1      -9.271  -9.738  19.854  0.00  0.00    +0.209 HD
ENDBRANCH  20   3
ENDBRANCH  12  20
BRANCH  13  23
ATOM     23  C   UNL     1      -3.003 -10.489  15.096  0.00  0.00    +0.106 C 
BRANCH  23  24
ATOM      4  O   UNL     1      -0.862 -11.572  15.412  0.00  0.00    -0.276 OA
ATOM      9  N   UNL     1      -2.409 -12.495  13.942  0.00  0.00    -0.308 N 
ATOM     24  C   UNL     1      -1.959 -11.556  14.859  0.00  0.00    +0.214 C 
ATOM     39  H   UNL     1      -3.343 -12.400  13.552  0.00  0.00    +0.149 HD
BRANCH   9  31
ATOM     31  C   UNL     1      -1.619 -13.630  13.521  0.00  0.00    +0.178 C 
BRANCH  31  32
ATOM      6  O   UNL     1      -3.307 -14.782  14.833  0.00  0.00    -0.466 OA
ATOM     32  C   UNL     1      -2.089 -14.860  14.236  0.00  0.00    +0.122 A 
ATOM     33  C   UNL     1      -1.536 -16.104  14.429  0.00  0.00    +0.046 A 
ATOM     34  C   UNL     1      -2.473 -16.837  15.195  0.00  0.00    +0.041 A 
ATOM     35  C   UNL     1      -3.534 -15.989  15.414  0.00  0.00    +0.195 A 
ENDBRANCH  31  32
ENDBRANCH   9  31
ENDBRANCH  23  24
ENDBRANCH  13  23
TORSDOF 8
ENDMDL
MODEL 4
REMARK VINA RESULT:      -6.2     31.286     34.990
REMARK  Name = 11883092
REMARK  10 active torsions:
REMARK  status: ('A' for Active; 'I' for Inactive)
REMARK    1  A    between atoms: O_2  and  C_15
REMARK    2  A    between atoms: O_3  and  C_20
REMARK    3  A    between atoms: N_9  and  C_31
REMARK    4  A    between atoms: C_10  and  C_18
REMARK    5  A    between atoms: C_12  and  C_20
REMARK    6  A    between atoms: C_12  and  C_21
REMARK    7  A    between atoms: C_13  and  C_23
REMARK    8  A    between atoms: C_23  and  C_24
REMARK    9  A    between atoms: C_26  and  C_27
REMARK   10  A    between atoms: C_31  and  C_32
REMARK                            x       y       z     vdW  Elec       q    Type
REMARK                         _______ _______ _______ _____ _____    ______ ____
ROOT
ATOM      1  S   UNL     1     -10.373 -12.919  19.951  0.00  0.00    -0.057 S 
ATOM      5  O   UNL     1     -13.586  -9.644  19.213  0.00  0.00    -0.275 OA
ATOM      7  N   UNL     1     -10.870 -10.688  18.738  0.00  0.00    -0.229 NA
ATOM      8  N   UNL     1     -12.645 -11.616  20.079  0.00  0.00    -0.264 N 
ATOM     10  C   UNL     1      -7.175 -10.612  17.639  0.00  0.00    -0.019 C 
ATOM     11  C   UNL     1      -7.074 -12.201  17.594  0.00  0.00    +0.011 C 
ATOM     12  C   UNL     1      -5.654 -12.820  17.294  0.00  0.00    +0.021 C 
ATOM     13  C   UNL     1      -8.717 -10.213  17.513  0.00  0.00    +0.054 C 
ATOM     14  C   UNL     1      -6.414 -10.013  16.428  0.00  0.00    +0.010 C 
ATOM     15  C   UNL     1      -5.016 -12.076  16.087  0.00  0.00    +0.123 C 
ATOM     16  C   UNL     1      -7.798 -12.851  18.808  0.00  0.00    +0.049 C 
ATOM     17  C   UNL     1      -5.005 -10.561  16.252  0.00  0.00    +0.032 C 
ATOM     18  C   UNL     1      -6.592 -10.010  18.940  0.00  0.00    +0.012 C 
ATOM     19  C   UNL     1      -9.571 -11.048  18.432  0.00  0.00    +0.058 A 
ATOM     21  C   UNL     1      -5.828 -14.309  16.881  0.00  0.00    +0.016 C 
ATOM     22  C   UNL     1      -9.145 -12.237  18.988  0.00  0.00    +0.015 A 
ATOM     25  C   UNL     1     -11.388 -11.597  19.536  0.00  0.00    +0.165 A 
ATOM     27  C   UNL     1     -13.665 -10.665  19.900  0.00  0.00    +0.222 C 
ATOM     38  H   UNL     1     -12.844 -12.416  20.674  0.00  0.00    +0.157 HD
ENDROOT
BRANCH  27  26
ATOM     26  C   UNL     1     -14.958 -11.009  20.670  0.00  0.00    +0.075 C 
ATOM     28  C   UNL     1     -15.726  -9.841  21.325  0.00  0.00    +0.013 C 
ATOM     29  C   UNL     1     -14.804 -11.600  22.087  0.00  0.00    +0.013 C 
ATOM     30  C   UNL     1     -16.075 -10.814  22.470  0.00  0.00    +0.001 C 
ENDBRANCH  27  26
BRANCH  15   2
ATOM      2  O   UNL     1      -3.678 -12.524  15.871  0.00  0.00    -0.391 OA
ATOM     36  H   UNL     1      -3.324 -12.039  15.106  0.00  0.00    +0.210 HD
ENDBRANCH  15   2
BRANCH  12  20
ATOM     20  C   UNL     1      -4.693 -12.834  18.504  0.00  0.00    +0.165 C 
BRANCH  20   3
ATOM      3  O   UNL     1      -4.023 -14.074  18.508  0.00  0.00    -0.394 OA
ATOM     37  H   UNL     1      -4.611 -14.719  18.937  0.00  0.00    +0.209 HD
ENDBRANCH  20   3
ENDBRANCH  12  20
BRANCH  13  23
ATOM     23  C   UNL     1      -9.005  -8.715  17.685  0.00  0.00    +0.106 C 
BRANCH  23  24
ATOM      4  O   UNL     1      -9.451  -8.578  15.311  0.00  0.00    -0.276 OA
ATOM      9  N   UNL     1     -10.298  -6.946  16.734  0.00  0.00    -0.308 N 
ATOM     24  C   UNL     1      -9.592  -8.103  16.435  0.00  0.00    +0.214 C 
ATOM     39  H   UNL     1     -10.369  -6.644  17.702  0.00  0.00    +0.149 HD
BRANCH   9  31
ATOM     31  C   UNL     1     -10.966  -6.148  15.731  0.00  0.00    +0.178 C 
BRANCH  31  32
ATOM      6  O   UNL     1     -12.798  -7.561  16.468  0.00  0.00    -0.466 OA
ATOM     32  C   UNL     1     -12.407  -6.551  15.648  0.00  0.00    +0.122 A 
ATOM     33  C   UNL     1     -13.465  -6.106  14.891  0.00  0.00    +0.046 A 
ATOM     34  C   UNL     1     -14.578  -6.893  15.270  0.00  0.00    +0.041 A 
ATOM     35  C   UNL     1     -14.122  -7.763  16.232  0.00  0.00    +0.195 A 
ENDBRANCH  31  32
ENDBRANCH   9  31
ENDBRANCH  23  24
ENDBRANCH  13  23
TORSDOF 8
ENDMDL
MODEL 5
REMARK VINA RESULT:      -6.2     27.663     33.270
REMARK  Name = 11883092
REMARK  10 active torsions:
REMARK  status: ('A' for Active; 'I' for Inactive)
REMARK    1  A    between atoms: O_2  and  C_15
REMARK    2  A    between atoms: O_3  and  C_20
REMARK    3  A    between atoms: N_9  and  C_31
REMARK    4  A    between atoms: C_10  and  C_18
REMARK    5  A    between atoms: C_12  and  C_20
REMARK    6  A    between atoms: C_12  and  C_21
REMARK    7  A    between atoms: C_13  and  C_23
REMARK    8  A    between atoms: C_23  and  C_24
REMARK    9  A    between atoms: C_26  and  C_27
REMARK   10  A    between atoms: C_31  and  C_32
REMARK                            x       y       z     vdW  Elec       q    Type
REMARK                         _______ _______ _______ _____ _____    ______ ____
ROOT
ATOM      1  S   UNL     1      -9.562  -9.787  12.913  0.00  0.00    -0.057 S 
ATOM      5  O   UNL     1      -4.957 -10.020  13.490  0.00  0.00    -0.275 OA
ATOM      7  N   UNL     1      -7.661  -9.945  14.662  0.00  0.00    -0.229 NA
ATOM      8  N   UNL     1      -7.003  -9.878  12.344  0.00  0.00    -0.264 N 
ATOM     10  C   UNL     1     -10.333  -9.536  17.411  0.00  0.00    -0.019 C 
ATOM     11  C   UNL     1     -11.453 -10.259  16.540  0.00  0.00    +0.011 C 
ATOM     12  C   UNL     1     -12.913 -10.295  17.138  0.00  0.00    +0.021 C 
ATOM     13  C   UNL     1      -8.906  -9.993  16.855  0.00  0.00    +0.054 C 
ATOM     14  C   UNL     1     -10.452  -9.996  18.888  0.00  0.00    +0.010 C 
ATOM     15  C   UNL     1     -12.845 -10.728  18.630  0.00  0.00    +0.123 C 
ATOM     16  C   UNL     1     -11.396  -9.806  15.052  0.00  0.00    +0.049 C 
ATOM     17  C   UNL     1     -11.862  -9.902  19.451  0.00  0.00    +0.032 C 
ATOM     18  C   UNL     1     -10.436  -7.993  17.362  0.00  0.00    +0.012 C 
ATOM     19  C   UNL     1      -8.859  -9.910  15.351  0.00  0.00    +0.058 A 
ATOM     21  C   UNL     1     -13.744 -11.369  16.380  0.00  0.00    +0.016 C 
ATOM     22  C   UNL     1      -9.988  -9.845  14.561  0.00  0.00    +0.015 A 
ATOM     25  C   UNL     1      -7.909  -9.880  13.371  0.00  0.00    +0.165 A 
ATOM     27  C   UNL     1      -5.603  -9.946  12.442  0.00  0.00    +0.222 C 
ATOM     38  H   UNL     1      -7.409  -9.820  11.413  0.00  0.00    +0.157 HD
ENDROOT
BRANCH  27  26
ATOM     26  C   UNL     1      -4.895  -9.915  11.071  0.00  0.00    +0.075 C 
ATOM     28  C   UNL     1      -3.356 -10.016  11.064  0.00  0.00    +0.013 C 
ATOM     29  C   UNL     1      -4.732  -8.542  10.387  0.00  0.00    +0.013 C 
ATOM     30  C   UNL     1      -3.375  -9.052   9.859  0.00  0.00    +0.001 C 
ENDBRANCH  27  26
BRANCH  15   2
ATOM      2  O   UNL     1     -14.133 -10.647  19.236  0.00  0.00    -0.391 OA
ATOM     36  H   UNL     1     -14.390  -9.709  19.260  0.00  0.00    +0.210 HD
ENDBRANCH  15   2
BRANCH  12  20
ATOM     20  C   UNL     1     -13.701  -8.975  16.984  0.00  0.00    +0.165 C 
BRANCH  20   3
ATOM      3  O   UNL     1     -15.035  -9.304  16.667  0.00  0.00    -0.394 OA
ATOM     37  H   UNL     1     -15.036  -9.674  15.768  0.00  0.00    +0.209 HD
ENDBRANCH  20   3
ENDBRANCH  12  20
BRANCH  13  23
ATOM     23  C   UNL     1      -7.712  -9.271  17.494  0.00  0.00    +0.106 C 
BRANCH  23  24
ATOM      4  O   UNL     1      -6.869 -10.701  19.254  0.00  0.00    -0.276 OA
ATOM      9  N   UNL     1      -5.689 -10.520  17.260  0.00  0.00    -0.308 N 
ATOM     24  C   UNL     1      -6.737 -10.238  18.124  0.00  0.00    +0.214 C 
ATOM     39  H   UNL     1      -5.680 -10.096  16.336  0.00  0.00    +0.149 HD
BRANCH   9  31
ATOM     31  C   UNL     1      -4.605 -11.414  17.598  0.00  0.00    +0.178 C 
BRANCH  31  32
ATOM      6  O   UNL     1      -3.710 -12.380  15.557  0.00  0.00    -0.466 OA
ATOM     32  C   UNL     1      -3.588 -11.407  16.498  0.00  0.00    +0.122 A 
ATOM     33  C   UNL     1      -2.510 -10.599  16.219  0.00  0.00    +0.046 A 
ATOM     34  C   UNL     1      -1.934 -11.108  15.031  0.00  0.00    +0.041 A 
ATOM     35  C   UNL     1      -2.700 -12.191  14.668  0.00  0.00    +0.195 A 
ENDBRANCH  31  32
ENDBRANCH   9  31
ENDBRANCH  23  24
ENDBRANCH  13  23
TORSDOF 8
ENDMDL
MODEL 6
REMARK VINA RESULT:      -6.0     27.803     30.673
REMARK  Name = 11883092
REMARK  10 active torsions:
REMARK  status: ('A' for Active; 'I' for Inactive)
REMARK    1  A    between atoms: O_2  and  C_15
REMARK    2  A    between atoms: O_3  and  C_20
REMARK    3  A    between atoms: N_9  and  C_31
REMARK    4  A    between atoms: C_10  and  C_18
REMARK    5  A    between atoms: C_12  and  C_20
REMARK    6  A    between atoms: C_12  and  C_21
REMARK    7  A    between atoms: C_13  and  C_23
REMARK    8  A    between atoms: C_23  and  C_24
REMARK    9  A    between atoms: C_26  and  C_27
REMARK   10  A    between atoms: C_31  and  C_32
REMARK                            x       y       z     vdW  Elec       q    Type
REMARK                         _______ _______ _______ _____ _____    ______ ____
ROOT
ATOM      1  S   UNL     1      -4.509  -9.231   9.774  0.00  0.00    -0.057 S 
ATOM      5  O   UNL     1      -8.868  -7.763   9.113  0.00  0.00    -0.275 OA
ATOM      7  N   UNL     1      -6.830  -8.950  10.882  0.00  0.00    -0.229 NA
ATOM      8  N   UNL     1      -6.624  -8.227   8.592  0.00  0.00    -0.264 N 
ATOM     10  C   UNL     1      -5.449 -10.831  13.951  0.00  0.00    -0.019 C 
ATOM     11  C   UNL     1      -3.970 -10.288  13.716  0.00  0.00    +0.011 C 
ATOM     12  C   UNL     1      -2.842 -10.850  14.666  0.00  0.00    +0.021 C 
ATOM     13  C   UNL     1      -6.460  -9.838  13.213  0.00  0.00    +0.054 C 
ATOM     14  C   UNL     1      -5.768 -10.817  15.468  0.00  0.00    +0.010 C 
ATOM     15  C   UNL     1      -3.344 -10.807  16.138  0.00  0.00    +0.123 C 
ATOM     16  C   UNL     1      -3.588 -10.312  12.208  0.00  0.00    +0.049 C 
ATOM     17  C   UNL     1      -4.700 -11.475  16.330  0.00  0.00    +0.032 C 
ATOM     18  C   UNL     1      -5.654 -12.268  13.413  0.00  0.00    +0.012 C 
ATOM     19  C   UNL     1      -5.988  -9.520  11.818  0.00  0.00    +0.058 A 
ATOM     21  C   UNL     1      -1.596  -9.924  14.574  0.00  0.00    +0.016 C 
ATOM     22  C   UNL     1      -4.691  -9.724  11.393  0.00  0.00    +0.015 A 
ATOM     25  C   UNL     1      -6.160  -8.760   9.765  0.00  0.00    +0.165 A 
ATOM     27  C   UNL     1      -7.922  -7.763   8.320  0.00  0.00    +0.222 C 
ATOM     38  H   UNL     1      -5.936  -8.169   7.845  0.00  0.00    +0.157 HD
ENDROOT
BRANCH  27  26
ATOM     26  C   UNL     1      -8.089  -7.231   6.881  0.00  0.00    +0.075 C 
ATOM     28  C   UNL     1      -9.520  -6.903   6.407  0.00  0.00    +0.013 C 
ATOM     29  C   UNL     1      -8.025  -8.258   5.732  0.00  0.00    +0.013 C 
ATOM     30  C   UNL     1      -9.090  -7.404   5.012  0.00  0.00    +0.001 C 
ENDBRANCH  27  26
BRANCH  15   2
ATOM      2  O   UNL     1      -2.399 -11.427  17.009  0.00  0.00    -0.391 OA
ATOM     36  H   UNL     1      -1.971 -10.725  17.528  0.00  0.00    +0.210 HD
ENDBRANCH  15   2
BRANCH  12  20
ATOM     20  C   UNL     1      -2.339 -12.263  14.297  0.00  0.00    +0.165 C 
BRANCH  20   3
ATOM      3  O   UNL     1      -1.029 -12.399  14.800  0.00  0.00    -0.394 OA
ATOM     37  H   UNL     1      -0.979 -13.261  15.247  0.00  0.00    +0.209 HD
ENDBRANCH  20   3
ENDBRANCH  12  20
BRANCH  13  23
ATOM     23  C   UNL     1      -7.925 -10.299  13.219  0.00  0.00    +0.106 C 
BRANCH  23  24
ATOM      4  O   UNL     1      -8.780  -8.862  14.967  0.00  0.00    -0.276 OA
ATOM      9  N   UNL     1      -9.005 -11.167  15.165  0.00  0.00    -0.308 N 
ATOM     24  C   UNL     1      -8.608  -9.998  14.532  0.00  0.00    +0.214 C 
ATOM     39  H   UNL     1      -8.830 -12.060  14.712  0.00  0.00    +0.149 HD
BRANCH   9  31
ATOM     31  C   UNL     1      -9.683 -11.184  16.441  0.00  0.00    +0.178 C 
BRANCH  31  32
ATOM      6  O   UNL     1      -8.168 -10.291  18.115  0.00  0.00    -0.466 OA
ATOM     32  C   UNL     1      -8.685 -11.406  17.536  0.00  0.00    +0.122 A 
ATOM     33  C   UNL     1      -8.153 -12.538  18.107  0.00  0.00    +0.046 A 
ATOM     34  C   UNL     1      -7.251 -12.091  19.102  0.00  0.00    +0.041 A 
ATOM     35  C   UNL     1      -7.296 -10.716  19.067  0.00  0.00    +0.195 A 
ENDBRANCH  31  32
ENDBRANCH   9  31
ENDBRANCH  23  24
ENDBRANCH  13  23
TORSDOF 8
ENDMDL
MODEL 7
REMARK VINA RESULT:      -6.0      6.331      8.985
REMARK  Name = 11883092
REMARK  10 active torsions:
REMARK  status: ('A' for Active; 'I' for Inactive)
REMARK    1  A    between atoms: O_2  and  C_15
REMARK    2  A    between atoms: O_3  and  C_20
REMARK    3  A    between atoms: N_9  and  C_31
REMARK    4  A    between atoms: C_10  and  C_18
REMARK    5  A    between atoms: C_12  and  C_20
REMARK    6  A    between atoms: C_12  and  C_21
REMARK    7  A    between atoms: C_13  and  C_23
REMARK    8  A    between atoms: C_23  and  C_24
REMARK    9  A    between atoms: C_26  and  C_27
REMARK   10  A    between atoms: C_31  and  C_32
REMARK                            x       y       z     vdW  Elec       q    Type
REMARK                         _______ _______ _______ _____ _____    ______ ____
ROOT
ATOM      1  S   UNL     1       8.869   8.491   0.496  0.00  0.00    -0.057 S 
ATOM      5  O   UNL     1       7.613   8.789   4.960  0.00  0.00    -0.275 OA
ATOM      7  N   UNL     1       9.320   7.588   2.878  0.00  0.00    -0.229 NA
ATOM      8  N   UNL     1       7.599   9.260   2.657  0.00  0.00    -0.264 N 
ATOM     10  C   UNL     1      11.753   5.040   1.310  0.00  0.00    -0.019 C 
ATOM     11  C   UNL     1      12.147   6.027   0.125  0.00  0.00    +0.011 C 
ATOM     12  C   UNL     1      13.101   5.456  -0.996  0.00  0.00    +0.021 C 
ATOM     13  C   UNL     1      11.178   5.920   2.513  0.00  0.00    +0.054 C 
ATOM     14  C   UNL     1      13.022   4.301   1.809  0.00  0.00    +0.010 C 
ATOM     15  C   UNL     1      14.289   4.710  -0.326  0.00  0.00    +0.123 C 
ATOM     16  C   UNL     1      10.900   6.772  -0.433  0.00  0.00    +0.049 C 
ATOM     17  C   UNL     1      13.846   3.669   0.696  0.00  0.00    +0.032 C 
ATOM     18  C   UNL     1      10.698   3.988   0.891  0.00  0.00    +0.012 C 
ATOM     19  C   UNL     1      10.180   6.934   2.015  0.00  0.00    +0.058 A 
ATOM     21  C   UNL     1      13.696   6.643  -1.806  0.00  0.00    +0.016 C 
ATOM     22  C   UNL     1      10.084   7.314   0.692  0.00  0.00    +0.015 A 
ATOM     25  C   UNL     1       8.579   8.427   2.187  0.00  0.00    +0.165 A 
ATOM     27  C   UNL     1       7.167   9.404   3.987  0.00  0.00    +0.222 C 
ATOM     38  H   UNL     1       7.144   9.831   1.949  0.00  0.00    +0.157 HD
ENDROOT
BRANCH  27  26
ATOM     26  C   UNL     1       6.033  10.437   4.150  0.00  0.00    +0.075 C 
ATOM     28  C   UNL     1       4.966  10.501   3.036  0.00  0.00    +0.013 C 
ATOM     29  C   UNL     1       6.358  11.908   3.817  0.00  0.00    +0.013 C 
ATOM     30  C   UNL     1       4.918  12.024   3.277  0.00  0.00    +0.001 C 
ENDBRANCH  27  26
BRANCH  15   2
ATOM      2  O   UNL     1      15.100   4.071  -1.310  0.00  0.00    -0.391 OA
ATOM     36  H   UNL     1      16.016   4.369  -1.176  0.00  0.00    +0.210 HD
ENDBRANCH  15   2
BRANCH  12  20
ATOM     20  C   UNL     1      12.399   4.554  -2.035  0.00  0.00    +0.165 C 
BRANCH  20   3
ATOM      3  O   UNL     1      13.069   4.711  -3.265  0.00  0.00    -0.394 OA
ATOM     37  H   UNL     1      12.517   5.285  -3.824  0.00  0.00    +0.209 HD
ENDBRANCH  20   3
ENDBRANCH  12  20
BRANCH  13  23
ATOM     23  C   UNL     1      10.613   5.106   3.686  0.00  0.00    +0.106 C 
BRANCH  23  24
ATOM      4  O   UNL     1      11.843   6.207   5.455  0.00  0.00    -0.276 OA
ATOM      9  N   UNL     1       9.533   6.004   5.619  0.00  0.00    -0.308 N 
ATOM     24  C   UNL     1      10.765   5.830   5.003  0.00  0.00    +0.214 C 
ATOM     39  H   UNL     1       8.695   5.668   5.154  0.00  0.00    +0.149 HD
BRANCH   9  31
ATOM     31  C   UNL     1       9.374   6.664   6.895  0.00  0.00    +0.178 C 
BRANCH  31  32
ATOM      6  O   UNL     1       8.843   6.036   9.179  0.00  0.00    -0.466 OA
ATOM     32  C   UNL     1       9.370   5.642   7.990  0.00  0.00    +0.122 A 
ATOM     33  C   UNL     1       9.801   4.338   8.062  0.00  0.00    +0.046 A 
ATOM     34  C   UNL     1       9.522   3.902   9.379  0.00  0.00    +0.041 A 
ATOM     35  C   UNL     1       8.939   4.971  10.019  0.00  0.00    +0.195 A 
ENDBRANCH  31  32
ENDBRANCH   9  31
ENDBRANCH  23  24
ENDBRANCH  13  23
TORSDOF 8
ENDMDL
MODEL 8
REMARK VINA RESULT:      -5.9     27.882     32.415
REMARK  Name = 11883092
REMARK  10 active torsions:
REMARK  status: ('A' for Active; 'I' for Inactive)
REMARK    1  A    between atoms: O_2  and  C_15
REMARK    2  A    between atoms: O_3  and  C_20
REMARK    3  A    between atoms: N_9  and  C_31
REMARK    4  A    between atoms: C_10  and  C_18
REMARK    5  A    between atoms: C_12  and  C_20
REMARK    6  A    between atoms: C_12  and  C_21
REMARK    7  A    between atoms: C_13  and  C_23
REMARK    8  A    between atoms: C_23  and  C_24
REMARK    9  A    between atoms: C_26  and  C_27
REMARK   10  A    between atoms: C_31  and  C_32
REMARK                            x       y       z     vdW  Elec       q    Type
REMARK                         _______ _______ _______ _____ _____    ______ ____
ROOT
ATOM      1  S   UNL     1      -9.605  -9.799  12.811  0.00  0.00    -0.057 S 
ATOM      5  O   UNL     1      -5.091  -9.638  11.718  0.00  0.00    -0.275 OA
ATOM      7  N   UNL     1      -7.200  -9.971  13.751  0.00  0.00    -0.229 NA
ATOM      8  N   UNL     1      -7.417  -9.566  11.385  0.00  0.00    -0.264 N 
ATOM     10  C   UNL     1      -8.734 -10.157  17.284  0.00  0.00    -0.019 C 
ATOM     11  C   UNL     1     -10.052 -10.880  16.759  0.00  0.00    +0.011 C 
ATOM     12  C   UNL     1     -11.199 -11.132  17.813  0.00  0.00    +0.021 C 
ATOM     13  C   UNL     1      -7.578 -10.400  16.208  0.00  0.00    +0.054 C 
ATOM     14  C   UNL     1      -8.295 -10.797  18.627  0.00  0.00    +0.010 C 
ATOM     15  C   UNL     1     -10.581 -11.728  19.109  0.00  0.00    +0.123 C 
ATOM     16  C   UNL     1     -10.552 -10.252  15.426  0.00  0.00    +0.049 C 
ATOM     17  C   UNL     1      -9.414 -10.911  19.651  0.00  0.00    +0.032 C 
ATOM     18  C   UNL     1      -8.927  -8.636  17.498  0.00  0.00    +0.012 C 
ATOM     19  C   UNL     1      -8.074 -10.137  14.809  0.00  0.00    +0.058 A 
ATOM     21  C   UNL     1     -12.188 -12.187  17.243  0.00  0.00    +0.016 C 
ATOM     22  C   UNL     1      -9.413 -10.092  14.478  0.00  0.00    +0.015 A 
ATOM     25  C   UNL     1      -7.895  -9.779  12.650  0.00  0.00    +0.165 A 
ATOM     27  C   UNL     1      -6.072  -9.506  10.981  0.00  0.00    +0.222 C 
ATOM     38  H   UNL     1      -8.130  -9.440  10.671  0.00  0.00    +0.157 HD
ENDROOT
BRANCH  27  26
ATOM     26  C   UNL     1      -5.902  -9.243   9.470  0.00  0.00    +0.075 C 
ATOM     28  C   UNL     1      -6.325 -10.368   8.502  0.00  0.00    +0.013 C 
ATOM     29  C   UNL     1      -4.482  -9.374   8.881  0.00  0.00    +0.013 C 
ATOM     30  C   UNL     1      -5.146  -9.935   7.606  0.00  0.00    +0.001 C 
ENDBRANCH  27  26
BRANCH  15   2
ATOM      2  O   UNL     1     -11.571 -11.848  20.129  0.00  0.00    -0.391 OA
ATOM     36  H   UNL     1     -12.126 -11.050  20.098  0.00  0.00    +0.210 HD
ENDBRANCH  15   2
BRANCH  12  20
ATOM     20  C   UNL     1     -12.057  -9.888  18.135  0.00  0.00    +0.165 C 
BRANCH  20   3
ATOM      3  O   UNL     1     -13.372 -10.327  18.393  0.00  0.00    -0.394 OA
ATOM     37  H   UNL     1     -13.768 -10.573  17.540  0.00  0.00    +0.209 HD
ENDBRANCH  20   3
ENDBRANCH  12  20
BRANCH  13  23
ATOM     23  C   UNL     1      -6.272  -9.643  16.492  0.00  0.00    +0.106 C 
BRANCH  23  24
ATOM      4  O   UNL     1      -5.173 -11.726  17.044  0.00  0.00    -0.276 OA
ATOM      9  N   UNL     1      -3.924  -9.960  16.191  0.00  0.00    -0.308 N 
ATOM     24  C   UNL     1      -5.092 -10.577  16.618  0.00  0.00    +0.214 C 
ATOM     39  H   UNL     1      -3.966  -9.008  15.840  0.00  0.00    +0.149 HD
BRANCH   9  31
ATOM     31  C   UNL     1      -2.636 -10.616  16.201  0.00  0.00    +0.178 C 
BRANCH  31  32
ATOM      6  O   UNL     1      -2.254 -10.237  13.833  0.00  0.00    -0.466 OA
ATOM     32  C   UNL     1      -2.336 -11.152  14.835  0.00  0.00    +0.122 A 
ATOM     33  C   UNL     1      -2.117 -12.420  14.349  0.00  0.00    +0.046 A 
ATOM     34  C   UNL     1      -1.886 -12.275  12.961  0.00  0.00    +0.041 A 
ATOM     35  C   UNL     1      -1.979 -10.928  12.696  0.00  0.00    +0.195 A 
ENDBRANCH  31  32
ENDBRANCH   9  31
ENDBRANCH  23  24
ENDBRANCH  13  23
TORSDOF 8
ENDMDL
MODEL 9
REMARK VINA RESULT:      -5.9      2.738      5.917
REMARK  Name = 11883092
REMARK  10 active torsions:
REMARK  status: ('A' for Active; 'I' for Inactive)
REMARK    1  A    between atoms: O_2  and  C_15
REMARK    2  A    between atoms: O_3  and  C_20
REMARK    3  A    between atoms: N_9  and  C_31
REMARK    4  A    between atoms: C_10  and  C_18
REMARK    5  A    between atoms: C_12  and  C_20
REMARK    6  A    between atoms: C_12  and  C_21
REMARK    7  A    between atoms: C_13  and  C_23
REMARK    8  A    between atoms: C_23  and  C_24
REMARK    9  A    between atoms: C_26  and  C_27
REMARK   10  A    between atoms: C_31  and  C_32
REMARK                            x       y       z     vdW  Elec       q    Type
REMARK                         _______ _______ _______ _____ _____    ______ ____
ROOT
ATOM      1  S   UNL     1      15.762   7.310   1.410  0.00  0.00    -0.057 S 
ATOM      5  O   UNL     1      12.186   4.498   2.356  0.00  0.00    -0.275 OA
ATOM      7  N   UNL     1      13.920   6.751   3.138  0.00  0.00    -0.229 NA
ATOM      8  N   UNL     1      13.993   5.392   1.149  0.00  0.00    -0.264 N 
ATOM     10  C   UNL     1      15.512   9.361   5.487  0.00  0.00    -0.019 C 
ATOM     11  C   UNL     1      16.022  10.257   4.274  0.00  0.00    +0.011 C 
ATOM     12  C   UNL     1      16.915  11.508   4.633  0.00  0.00    +0.021 C 
ATOM     13  C   UNL     1      14.307   8.455   4.957  0.00  0.00    +0.054 C 
ATOM     14  C   UNL     1      14.973  10.279   6.615  0.00  0.00    +0.010 C 
ATOM     15  C   UNL     1      16.256  12.286   5.807  0.00  0.00    +0.123 C 
ATOM     16  C   UNL     1      16.602   9.382   3.125  0.00  0.00    +0.049 C 
ATOM     17  C   UNL     1      15.924  11.402   7.003  0.00  0.00    +0.032 C 
ATOM     18  C   UNL     1      16.621   8.454   6.072  0.00  0.00    +0.012 C 
ATOM     19  C   UNL     1      14.652   7.810   3.639  0.00  0.00    +0.058 A 
ATOM     21  C   UNL     1      16.959  12.466   3.409  0.00  0.00    +0.016 C 
ATOM     22  C   UNL     1      15.675   8.254   2.825  0.00  0.00    +0.015 A 
ATOM     25  C   UNL     1      14.419   6.400   1.972  0.00  0.00    +0.165 A 
ATOM     27  C   UNL     1      12.924   4.506   1.367  0.00  0.00    +0.222 C 
ATOM     38  H   UNL     1      14.523   5.289   0.287  0.00  0.00    +0.157 HD
ENDROOT
BRANCH  27  26
ATOM     26  C   UNL     1      12.733   3.489   0.222  0.00  0.00    +0.075 C 
ATOM     28  C   UNL     1      13.674   3.606  -0.995  0.00  0.00    +0.013 C 
ATOM     29  C   UNL     1      11.564   3.730  -0.755  0.00  0.00    +0.013 C 
ATOM     30  C   UNL     1      12.477   3.169  -1.865  0.00  0.00    +0.001 C 
ENDBRANCH  27  26
BRANCH  15   2
ATOM      2  O   UNL     1      17.102  13.349   6.243  0.00  0.00    -0.391 OA
ATOM     36  H   UNL     1      18.021  13.034   6.195  0.00  0.00    +0.210 HD
ENDBRANCH  15   2
BRANCH  12  20
ATOM     20  C   UNL     1      18.388  11.173   4.952  0.00  0.00    +0.165 C 
BRANCH  20   3
ATOM      3  O   UNL     1      19.197  12.148   4.333  0.00  0.00    -0.394 OA
ATOM     37  H   UNL     1      20.001  12.242   4.872  0.00  0.00    +0.209 HD
ENDBRANCH  20   3
ENDBRANCH  12  20
BRANCH  13  23
ATOM     23  C   UNL     1      13.793   7.421   5.969  0.00  0.00    +0.106 C 
BRANCH  23  24
ATOM      4  O   UNL     1      11.600   8.382   6.316  0.00  0.00    -0.276 OA
ATOM      9  N   UNL     1      11.792   6.134   5.757  0.00  0.00    -0.308 N 
ATOM     24  C   UNL     1      12.284   7.400   6.040  0.00  0.00    +0.214 C 
ATOM     39  H   UNL     1      12.443   5.389   5.524  0.00  0.00    +0.149 HD
BRANCH   9  31
ATOM     31  C   UNL     1      10.382   5.818   5.753  0.00  0.00    +0.178 C 
BRANCH  31  32
ATOM      6  O   UNL     1       9.993   4.156   7.480  0.00  0.00    -0.466 OA
ATOM     32  C   UNL     1       9.943   5.471   7.143  0.00  0.00    +0.122 A 
ATOM     33  C   UNL     1       9.479   6.222   8.197  0.00  0.00    +0.046 A 
ATOM     34  C   UNL     1       9.228   5.310   9.250  0.00  0.00    +0.041 A 
ATOM     35  C   UNL     1       9.557   4.066   8.764  0.00  0.00    +0.195 A 
ENDBRANCH  31  32
ENDBRANCH   9  31
ENDBRANCH  23  24
ENDBRANCH  13  23
TORSDOF 8
ENDMDL
MODEL 10
REMARK VINA RESULT:      -5.9     31.400     36.048
REMARK  Name = 11883092
REMARK  10 active torsions:
REMARK  status: ('A' for Active; 'I' for Inactive)
REMARK    1  A    between atoms: O_2  and  C_15
REMARK    2  A    between atoms: O_3  and  C_20
REMARK    3  A    between atoms: N_9  and  C_31
REMARK    4  A    between atoms: C_10  and  C_18
REMARK    5  A    between atoms: C_12  and  C_20
REMARK    6  A    between atoms: C_12  and  C_21
REMARK    7  A    between atoms: C_13  and  C_23
REMARK    8  A    between atoms: C_23  and  C_24
REMARK    9  A    between atoms: C_26  and  C_27
REMARK   10  A    between atoms: C_31  and  C_32
REMARK                            x       y       z     vdW  Elec       q    Type
REMARK                         _______ _______ _______ _____ _____    ______ ____
ROOT
ATOM      1  S   UNL     1     -12.558   5.097  22.300  0.00  0.00    -0.057 S 
ATOM      5  O   UNL     1     -16.692   4.967  24.419  0.00  0.00    -0.275 OA
ATOM      7  N   UNL     1     -14.839   6.293  22.548  0.00  0.00    -0.229 NA
ATOM      8  N   UNL     1     -14.515   4.290  23.848  0.00  0.00    -0.264 N 
ATOM     10  C   UNL     1     -13.446   9.128  20.337  0.00  0.00    -0.019 C 
ATOM     11  C   UNL     1     -12.503   8.136  19.522  0.00  0.00    +0.011 C 
ATOM     12  C   UNL     1     -11.523   8.782  18.468  0.00  0.00    +0.021 C 
ATOM     13  C   UNL     1     -14.621   8.265  20.990  0.00  0.00    +0.054 C 
ATOM     14  C   UNL     1     -14.077  10.155  19.361  0.00  0.00    +0.010 C 
ATOM     15  C   UNL     1     -12.305   9.817  17.609  0.00  0.00    +0.123 C 
ATOM     16  C   UNL     1     -11.820   7.101  20.462  0.00  0.00    +0.049 C 
ATOM     17  C   UNL     1     -13.071  10.835  18.444  0.00  0.00    +0.032 C 
ATOM     18  C   UNL     1     -12.692   9.896  21.448  0.00  0.00    +0.012 C 
ATOM     19  C   UNL     1     -14.080   7.026  21.655  0.00  0.00    +0.058 A 
ATOM     21  C   UNL     1     -11.011   7.673  17.506  0.00  0.00    +0.016 C 
ATOM     22  C   UNL     1     -12.827   6.511  21.391  0.00  0.00    +0.015 A 
ATOM     25  C   UNL     1     -14.137   5.259  22.957  0.00  0.00    +0.165 A 
ATOM     27  C   UNL     1     -15.743   4.186  24.524  0.00  0.00    +0.222 C 
ATOM     38  H   UNL     1     -13.816   3.574  24.027  0.00  0.00    +0.157 HD
ENDROOT
BRANCH  27  26
ATOM     26  C   UNL     1     -15.820   2.962  25.461  0.00  0.00    +0.075 C 
ATOM     28  C   UNL     1     -17.063   2.055  25.344  0.00  0.00    +0.013 C 
ATOM     29  C   UNL     1     -16.235   3.213  26.925  0.00  0.00    +0.013 C 
ATOM     30  C   UNL     1     -16.965   1.854  26.871  0.00  0.00    +0.001 C 
ENDBRANCH  27  26
BRANCH  15   2
ATOM      2  O   UNL     1     -11.420  10.513  16.733  0.00  0.00    -0.391 OA
ATOM     36  H   UNL     1     -10.578  10.027  16.716  0.00  0.00    +0.210 HD
ENDBRANCH  15   2
BRANCH  12  20
ATOM     20  C   UNL     1     -10.256   9.420  19.080  0.00  0.00    +0.165 C 
BRANCH  20   3
ATOM      3  O   UNL     1      -9.254   9.425  18.088  0.00  0.00    -0.394 OA
ATOM     37  H   UNL     1      -9.614   8.964  17.310  0.00  0.00    +0.209 HD
ENDBRANCH  20   3
ENDBRANCH  12  20
BRANCH  13  23
ATOM     23  C   UNL     1     -15.542   9.052  21.933  0.00  0.00    +0.106 C 
BRANCH  23  24
ATOM      4  O   UNL     1     -17.915   9.494  22.095  0.00  0.00    -0.276 OA
ATOM      9  N   UNL     1     -17.161   7.757  20.747  0.00  0.00    -0.308 N 
ATOM     24  C   UNL     1     -17.002   8.821  21.623  0.00  0.00    +0.214 C 
ATOM     39  H   UNL     1     -16.338   7.272  20.401  0.00  0.00    +0.149 HD
BRANCH   9  31
ATOM     31  C   UNL     1     -18.451   7.307  20.277  0.00  0.00    +0.178 C 
BRANCH  31  32
ATOM      6  O   UNL     1     -18.142   5.160  21.370  0.00  0.00    -0.466 OA
ATOM     32  C   UNL     1     -18.471   5.810  20.223  0.00  0.00    +0.122 A 
ATOM     33  C   UNL     1     -18.759   4.909  19.224  0.00  0.00    +0.046 A 
ATOM     34  C   UNL     1     -18.597   3.624  19.794  0.00  0.00    +0.041 A 
ATOM     35  C   UNL     1     -18.221   3.830  21.101  0.00  0.00    +0.195 A 
ENDBRANCH  31  32
ENDBRANCH   9  31
ENDBRANCH  23  24
ENDBRANCH  13  23
TORSDOF 8
ENDMDL
