MODEL 1
REMARK VINA RESULT:      -6.7      0.000      0.000
REMARK  Name = 75537121
REMARK  3 active torsions:
REMARK  status: ('A' for Active; 'I' for Inactive)
REMARK    1  A    between atoms: N_3  and  C_7
REMARK    2  A    between atoms: N_5  and  C_18
REMARK    3  A    between atoms: C_18  and  C_19
REMARK                            x       y       z     vdW  Elec       q    Type
REMARK                         _______ _______ _______ _____ _____    ______ ____
ROOT
ATOM      2  O   UNL     1     -16.855   4.577  21.245  0.00  0.00    -0.252 OA
ATOM      3  N   UNL     1     -14.906   5.031  22.495  0.00  0.00    -0.281 N 
ATOM      4  N   UNL     1     -16.433   3.624  23.350  0.00  0.00    -0.278 N 
ATOM      5  N   UNL     1     -16.916   2.742  25.978  0.00  0.00    -0.295 NA
ATOM      6  C   UNL     1     -15.333   3.582  24.292  0.00  0.00    +0.109 C 
ATOM      8  C   UNL     1     -14.412   4.706  23.822  0.00  0.00    +0.133 C 
ATOM      9  C   UNL     1     -15.850   3.731  25.722  0.00  0.00    +0.109 C 
ATOM     12  C   UNL     1     -16.153   4.426  22.236  0.00  0.00    +0.305 C 
ATOM     13  C   UNL     1     -17.600   2.801  23.588  0.00  0.00    +0.125 C 
ATOM     14  C   UNL     1     -18.047   2.933  25.046  0.00  0.00    +0.104 C 
ENDROOT
BRANCH   3   7
ATOM      7  C   UNL     1     -14.239   5.985  21.643  0.00  0.00    +0.078 C 
ATOM     10  C   UNL     1     -12.727   5.755  21.660  0.00  0.00    +0.022 C 
ATOM     11  C   UNL     1     -14.590   7.418  22.054  0.00  0.00    +0.022 C 
ATOM     15  C   UNL     1     -11.991   6.785  20.807  0.00  0.00    +0.002 C 
ATOM     16  C   UNL     1     -13.852   8.445  21.200  0.00  0.00    +0.002 C 
ATOM     17  C   UNL     1     -12.344   8.212  21.217  0.00  0.00    +0.000 C 
ENDBRANCH   3   7
BRANCH   5  18
ATOM     18  C   UNL     1     -17.376   2.835  27.363  0.00  0.00    +0.119 C 
BRANCH  18  19
ATOM      1  F   UNL     1     -13.453   1.067  31.000  0.00  0.00    -0.205 F 
ATOM     19  C   UNL     1     -16.329   2.362  28.335  0.00  0.00    -0.033 A 
ATOM     20  C   UNL     1     -15.569   3.291  29.046  0.00  0.00    +0.008 A 
ATOM     21  C   UNL     1     -16.117   0.997  28.523  0.00  0.00    +0.008 A 
ATOM     22  C   UNL     1     -14.597   2.852  29.947  0.00  0.00    +0.038 A 
ATOM     23  C   UNL     1     -15.146   0.559  29.423  0.00  0.00    +0.038 A 
ATOM     24  C   UNL     1     -14.386   1.487  30.135  0.00  0.00    +0.123 A 
ENDBRANCH  18  19
ENDBRANCH   5  18
TORSDOF 3
ENDMDL
MODEL 2
REMARK VINA RESULT:      -6.5     30.561     33.792
REMARK  Name = 75537121
REMARK  3 active torsions:
REMARK  status: ('A' for Active; 'I' for Inactive)
REMARK    1  A    between atoms: N_3  and  C_7
REMARK    2  A    between atoms: N_5  and  C_18
REMARK    3  A    between atoms: C_18  and  C_19
REMARK                            x       y       z     vdW  Elec       q    Type
REMARK                         _______ _______ _______ _____ _____    ______ ____
ROOT
ATOM      2  O   UNL     1      20.132   7.963  22.625  0.00  0.00    -0.252 OA
ATOM      3  N   UNL     1      20.030   6.176  21.087  0.00  0.00    -0.281 N 
ATOM      4  N   UNL     1      18.302   7.606  21.195  0.00  0.00    -0.278 N 
ATOM      5  N   UNL     1      15.624   7.388  20.365  0.00  0.00    -0.295 NA
ATOM      6  C   UNL     1      17.979   6.729  20.090  0.00  0.00    +0.109 C 
ATOM      8  C   UNL     1      19.038   5.632  20.175  0.00  0.00    +0.133 C 
ATOM      9  C   UNL     1      16.536   6.238  20.204  0.00  0.00    +0.109 C 
ATOM     12  C   UNL     1      19.562   7.332  21.745  0.00  0.00    +0.305 C 
ATOM     13  C   UNL     1      17.394   8.682  21.535  0.00  0.00    +0.125 C 
ATOM     14  C   UNL     1      15.956   8.159  21.580  0.00  0.00    +0.104 C 
ENDROOT
BRANCH   3   7
ATOM      7  C   UNL     1      21.271   5.493  21.364  0.00  0.00    +0.078 C 
ATOM     10  C   UNL     1      22.433   6.178  20.641  0.00  0.00    +0.022 C 
ATOM     11  C   UNL     1      21.172   4.014  20.983  0.00  0.00    +0.022 C 
ATOM     15  C   UNL     1      23.751   5.444  20.875  0.00  0.00    +0.002 C 
ATOM     16  C   UNL     1      22.491   3.283  21.216  0.00  0.00    +0.002 C 
ATOM     17  C   UNL     1      23.649   3.969  20.497  0.00  0.00    +0.000 C 
ENDBRANCH   3   7
BRANCH   5  18
ATOM     18  C   UNL     1      14.234   6.934  20.414  0.00  0.00    +0.119 C 
BRANCH  18  19
ATOM      1  F   UNL     1      11.117   9.259  16.337  0.00  0.00    -0.205 F 
ATOM     19  C   UNL     1      13.402   7.555  19.325  0.00  0.00    -0.033 A 
ATOM     20  C   UNL     1      12.066   7.878  19.567  0.00  0.00    +0.008 A 
ATOM     21  C   UNL     1      13.965   7.808  18.075  0.00  0.00    +0.008 A 
ATOM     22  C   UNL     1      11.295   8.454  18.557  0.00  0.00    +0.038 A 
ATOM     23  C   UNL     1      13.193   8.383  17.065  0.00  0.00    +0.038 A 
ATOM     24  C   UNL     1      11.858   8.706  17.306  0.00  0.00    +0.123 A 
ENDBRANCH  18  19
ENDBRANCH   5  18
TORSDOF 3
ENDMDL
MODEL 3
REMARK VINA RESULT:      -6.5     21.329     23.442
REMARK  Name = 75537121
REMARK  3 active torsions:
REMARK  status: ('A' for Active; 'I' for Inactive)
REMARK    1  A    between atoms: N_3  and  C_7
REMARK    2  A    between atoms: N_5  and  C_18
REMARK    3  A    between atoms: C_18  and  C_19
REMARK                            x       y       z     vdW  Elec       q    Type
REMARK                         _______ _______ _______ _____ _____    ______ ____
ROOT
ATOM      2  O   UNL     1      -1.883 -10.701  16.325  0.00  0.00    -0.252 OA
ATOM      3  N   UNL     1      -4.224 -10.755  16.043  0.00  0.00    -0.281 N 
ATOM      4  N   UNL     1      -2.915 -10.867  14.222  0.00  0.00    -0.278 N 
ATOM      5  N   UNL     1      -3.427 -10.365  11.502  0.00  0.00    -0.295 NA
ATOM      6  C   UNL     1      -4.259 -11.049  13.715  0.00  0.00    +0.109 C 
ATOM      8  C   UNL     1      -5.146 -10.742  14.919  0.00  0.00    +0.133 C 
ATOM      9  C   UNL     1      -4.495 -10.153  12.499  0.00  0.00    +0.109 C 
ATOM     12  C   UNL     1      -2.880 -10.769  15.619  0.00  0.00    +0.305 C 
ATOM     13  C   UNL     1      -1.799 -10.907  13.301  0.00  0.00    +0.125 C 
ATOM     14  C   UNL     1      -2.102 -10.045  12.072  0.00  0.00    +0.104 C 
ENDROOT
BRANCH   3   7
ATOM      7  C   UNL     1      -4.677 -10.613  17.405  0.00  0.00    +0.078 C 
ATOM     10  C   UNL     1      -4.302 -11.849  18.226  0.00  0.00    +0.022 C 
ATOM     11  C   UNL     1      -6.185 -10.350  17.451  0.00  0.00    +0.022 C 
ATOM     15  C   UNL     1      -4.816 -11.748  19.661  0.00  0.00    +0.002 C 
ATOM     16  C   UNL     1      -6.695 -10.251  18.886  0.00  0.00    +0.002 C 
ATOM     17  C   UNL     1      -6.318 -11.483  19.704  0.00  0.00    +0.000 C 
ENDBRANCH   3   7
BRANCH   5  18
ATOM     18  C   UNL     1      -3.676  -9.558  10.308  0.00  0.00    +0.119 C 
BRANCH  18  19
ATOM      1  F   UNL     1      -5.731 -12.652   6.071  0.00  0.00    -0.205 F 
ATOM     19  C   UNL     1      -4.225 -10.384   9.176  0.00  0.00    -0.033 A 
ATOM     20  C   UNL     1      -4.093 -11.773   9.199  0.00  0.00    +0.008 A 
ATOM     21  C   UNL     1      -4.865  -9.762   8.105  0.00  0.00    +0.008 A 
ATOM     22  C   UNL     1      -4.602 -12.538   8.150  0.00  0.00    +0.038 A 
ATOM     23  C   UNL     1      -5.373 -10.528   7.055  0.00  0.00    +0.038 A 
ATOM     24  C   UNL     1      -5.242 -11.916   7.078  0.00  0.00    +0.123 A 
ENDBRANCH  18  19
ENDBRANCH   5  18
TORSDOF 3
ENDMDL
MODEL 4
REMARK VINA RESULT:      -6.5     17.678     18.904
REMARK  Name = 75537121
REMARK  3 active torsions:
REMARK  status: ('A' for Active; 'I' for Inactive)
REMARK    1  A    between atoms: N_3  and  C_7
REMARK    2  A    between atoms: N_5  and  C_18
REMARK    3  A    between atoms: C_18  and  C_19
REMARK                            x       y       z     vdW  Elec       q    Type
REMARK                         _______ _______ _______ _____ _____    ______ ____
ROOT
ATOM      2  O   UNL     1      -5.084 -12.128  18.194  0.00  0.00    -0.252 OA
ATOM      3  N   UNL     1      -5.143 -10.686  16.328  0.00  0.00    -0.281 N 
ATOM      4  N   UNL     1      -6.833 -10.608  17.804  0.00  0.00    -0.278 N 
ATOM      5  N   UNL     1      -9.460  -9.624  17.607  0.00  0.00    -0.295 NA
ATOM      6  C   UNL     1      -7.113  -9.534  16.874  0.00  0.00    +0.109 C 
ATOM      8  C   UNL     1      -6.092  -9.745  15.758  0.00  0.00    +0.133 C 
ATOM      9  C   UNL     1      -8.573  -9.584  16.427  0.00  0.00    +0.109 C 
ATOM     12  C   UNL     1      -5.618 -11.250  17.529  0.00  0.00    +0.305 C 
ATOM     13  C   UNL     1      -7.729 -10.832  18.919  0.00  0.00    +0.125 C 
ATOM     14  C   UNL     1      -9.181 -10.815  18.436  0.00  0.00    +0.104 C 
ENDROOT
BRANCH   3   7
ATOM      7  C   UNL     1      -3.941 -11.077  15.630  0.00  0.00    +0.078 C 
ATOM     10  C   UNL     1      -2.704 -10.524  16.342  0.00  0.00    +0.022 C 
ATOM     11  C   UNL     1      -3.992 -10.625  14.168  0.00  0.00    +0.022 C 
ATOM     15  C   UNL     1      -1.421 -10.879  15.595  0.00  0.00    +0.002 C 
ATOM     16  C   UNL     1      -2.708 -10.981  13.425  0.00  0.00    +0.002 C 
ATOM     17  C   UNL     1      -1.475 -10.431  14.137  0.00  0.00    +0.000 C 
ENDBRANCH   3   7
BRANCH   5  18
ATOM     18  C   UNL     1     -10.863  -9.611  17.191  0.00  0.00    +0.119 C 
BRANCH  18  19
ATOM      1  F   UNL     1     -12.127  -4.995  14.217  0.00  0.00    -0.205 F 
ATOM     19  C   UNL     1     -11.201  -8.378  16.397  0.00  0.00    -0.033 A 
ATOM     20  C   UNL     1     -11.798  -8.499  15.142  0.00  0.00    +0.008 A 
ATOM     21  C   UNL     1     -10.915  -7.115  16.915  0.00  0.00    +0.008 A 
ATOM     22  C   UNL     1     -12.111  -7.355  14.406  0.00  0.00    +0.038 A 
ATOM     23  C   UNL     1     -11.228  -5.972  16.179  0.00  0.00    +0.038 A 
ATOM     24  C   UNL     1     -11.826  -6.092  14.924  0.00  0.00    +0.123 A 
ENDBRANCH  18  19
ENDBRANCH   5  18
TORSDOF 3
ENDMDL
MODEL 5
REMARK VINA RESULT:      -6.5     19.957     21.924
REMARK  Name = 75537121
REMARK  3 active torsions:
REMARK  status: ('A' for Active; 'I' for Inactive)
REMARK    1  A    between atoms: N_3  and  C_7
REMARK    2  A    between atoms: N_5  and  C_18
REMARK    3  A    between atoms: C_18  and  C_19
REMARK                            x       y       z     vdW  Elec       q    Type
REMARK                         _______ _______ _______ _____ _____    ______ ____
ROOT
ATOM      2  O   UNL     1      -4.954 -10.625  18.238  0.00  0.00    -0.252 OA
ATOM      3  N   UNL     1      -6.560 -10.177  16.569  0.00  0.00    -0.281 N 
ATOM      4  N   UNL     1      -4.551 -10.966  15.949  0.00  0.00    -0.278 N 
ATOM      5  N   UNL     1      -3.188 -10.921  13.489  0.00  0.00    -0.295 NA
ATOM      6  C   UNL     1      -5.318 -10.922  14.722  0.00  0.00    +0.109 C 
ATOM      8  C   UNL     1      -6.590 -10.175  15.116  0.00  0.00    +0.133 C 
ATOM      9  C   UNL     1      -4.505 -10.263  13.609  0.00  0.00    +0.109 C 
ATOM     12  C   UNL     1      -5.310 -10.597  17.068  0.00  0.00    +0.305 C 
ATOM     13  C   UNL     1      -3.188 -11.456  15.916  0.00  0.00    +0.125 C 
ATOM     14  C   UNL     1      -2.429 -10.816  14.752  0.00  0.00    +0.104 C 
ENDROOT
BRANCH   3   7
ATOM      7  C   UNL     1      -7.651  -9.658  17.357  0.00  0.00    +0.078 C 
ATOM     10  C   UNL     1      -8.443 -10.802  17.995  0.00  0.00    +0.022 C 
ATOM     11  C   UNL     1      -8.554  -8.760  16.508  0.00  0.00    +0.022 C 
ATOM     15  C   UNL     1      -9.637 -10.282  18.793  0.00  0.00    +0.002 C 
ATOM     16  C   UNL     1      -9.746  -8.243  17.308  0.00  0.00    +0.002 C 
ATOM     17  C   UNL     1     -10.534  -9.384  17.946  0.00  0.00    +0.000 C 
ENDBRANCH   3   7
BRANCH   5  18
ATOM     18  C   UNL     1      -2.425 -10.338  12.385  0.00  0.00    +0.119 C 
BRANCH  18  19
ATOM      1  F   UNL     1      -5.160 -10.773   7.479  0.00  0.00    -0.205 F 
ATOM     19  C   UNL     1      -3.155 -10.454  11.075  0.00  0.00    -0.033 A 
ATOM     20  C   UNL     1      -3.461  -9.306  10.343  0.00  0.00    +0.008 A 
ATOM     21  C   UNL     1      -3.527 -11.709  10.592  0.00  0.00    +0.008 A 
ATOM     22  C   UNL     1      -4.139  -9.415   9.128  0.00  0.00    +0.038 A 
ATOM     23  C   UNL     1      -4.205 -11.817   9.378  0.00  0.00    +0.038 A 
ATOM     24  C   UNL     1      -4.510 -10.670   8.646  0.00  0.00    +0.123 A 
ENDBRANCH  18  19
ENDBRANCH   5  18
TORSDOF 3
ENDMDL
MODEL 6
REMARK VINA RESULT:      -6.1     33.765     36.831
REMARK  Name = 75537121
REMARK  3 active torsions:
REMARK  status: ('A' for Active; 'I' for Inactive)
REMARK    1  A    between atoms: N_3  and  C_7
REMARK    2  A    between atoms: N_5  and  C_18
REMARK    3  A    between atoms: C_18  and  C_19
REMARK                            x       y       z     vdW  Elec       q    Type
REMARK                         _______ _______ _______ _____ _____    ______ ____
ROOT
ATOM      2  O   UNL     1      24.595   6.273  20.830  0.00  0.00    -0.252 OA
ATOM      3  N   UNL     1      23.227   4.372  21.116  0.00  0.00    -0.281 N 
ATOM      4  N   UNL     1      22.256   6.334  20.620  0.00  0.00    -0.278 N 
ATOM      5  N   UNL     1      19.616   7.258  20.925  0.00  0.00    -0.295 NA
ATOM      6  C   UNL     1      21.170   5.376  20.602  0.00  0.00    +0.109 C 
ATOM      8  C   UNL     1      21.800   4.103  21.161  0.00  0.00    +0.133 C 
ATOM      9  C   UNL     1      19.979   5.907  21.399  0.00  0.00    +0.109 C 
ATOM     12  C   UNL     1      23.498   5.729  20.849  0.00  0.00    +0.305 C 
ATOM     13  C   UNL     1      21.981   7.723  20.315  0.00  0.00    +0.125 C 
ATOM     14  C   UNL     1      20.746   8.195  21.088  0.00  0.00    +0.104 C 
ENDROOT
BRANCH   3   7
ATOM      7  C   UNL     1      24.206   3.369  21.461  0.00  0.00    +0.078 C 
ATOM     10  C   UNL     1      23.719   1.979  21.044  0.00  0.00    +0.022 C 
ATOM     11  C   UNL     1      24.531   3.420  22.956  0.00  0.00    +0.022 C 
ATOM     15  C   UNL     1      24.713   0.891  21.445  0.00  0.00    +0.002 C 
ATOM     16  C   UNL     1      25.524   2.332  23.353  0.00  0.00    +0.002 C 
ATOM     17  C   UNL     1      25.038   0.947  22.935  0.00  0.00    +0.000 C 
ENDBRANCH   3   7
BRANCH   5  18
ATOM     18  C   UNL     1      18.439   7.750  21.639  0.00  0.00    +0.119 C 
BRANCH  18  19
ATOM      1  F   UNL     1      13.885   7.912  18.325  0.00  0.00    -0.205 F 
ATOM     19  C   UNL     1      17.223   7.793  20.753  0.00  0.00    -0.033 A 
ATOM     20  C   UNL     1      16.513   8.985  20.601  0.00  0.00    +0.008 A 
ATOM     21  C   UNL     1      16.804   6.642  20.087  0.00  0.00    +0.008 A 
ATOM     22  C   UNL     1      15.386   9.025  19.780  0.00  0.00    +0.038 A 
ATOM     23  C   UNL     1      15.676   6.682  19.266  0.00  0.00    +0.038 A 
ATOM     24  C   UNL     1      14.967   7.874  19.113  0.00  0.00    +0.123 A 
ENDBRANCH  18  19
ENDBRANCH   5  18
TORSDOF 3
ENDMDL
MODEL 7
REMARK VINA RESULT:      -6.1     15.815     16.668
REMARK  Name = 75537121
REMARK  3 active torsions:
REMARK  status: ('A' for Active; 'I' for Inactive)
REMARK    1  A    between atoms: N_3  and  C_7
REMARK    2  A    between atoms: N_5  and  C_18
REMARK    3  A    between atoms: C_18  and  C_19
REMARK                            x       y       z     vdW  Elec       q    Type
REMARK                         _______ _______ _______ _____ _____    ______ ____
ROOT
ATOM      2  O   UNL     1     -12.329  -8.046  13.041  0.00  0.00    -0.252 OA
ATOM      3  N   UNL     1     -11.781  -6.284  14.512  0.00  0.00    -0.281 N 
ATOM      4  N   UNL     1     -10.697  -8.240  14.720  0.00  0.00    -0.278 N 
ATOM      5  N   UNL     1      -9.238  -9.365  16.846  0.00  0.00    -0.295 NA
ATOM      6  C   UNL     1     -10.046  -7.360  15.669  0.00  0.00    +0.109 C 
ATOM      8  C   UNL     1     -10.935  -6.118  15.681  0.00  0.00    +0.133 C 
ATOM      9  C   UNL     1      -9.896  -8.055  17.022  0.00  0.00    +0.109 C 
ATOM     12  C   UNL     1     -11.682  -7.582  13.971  0.00  0.00    +0.305 C 
ATOM     13  C   UNL     1     -10.224  -9.600  14.576  0.00  0.00    +0.125 C 
ATOM     14  C   UNL     1     -10.031 -10.237  15.955  0.00  0.00    +0.104 C 
ENDROOT
BRANCH   3   7
ATOM      7  C   UNL     1     -12.709  -5.263  14.087  0.00  0.00    +0.078 C 
ATOM     10  C   UNL     1     -14.105  -5.856  13.889  0.00  0.00    +0.022 C 
ATOM     11  C   UNL     1     -12.210  -4.573  12.814  0.00  0.00    +0.022 C 
ATOM     15  C   UNL     1     -15.096  -4.807  13.388  0.00  0.00    +0.002 C 
ATOM     16  C   UNL     1     -13.202  -3.527  12.317  0.00  0.00    +0.002 C 
ATOM     17  C   UNL     1     -14.595  -4.119  12.122  0.00  0.00    +0.000 C 
ENDBRANCH   3   7
BRANCH   5  18
ATOM     18  C   UNL     1      -9.034 -10.012  18.142  0.00  0.00    +0.119 C 
BRANCH  18  19
ATOM      1  F   UNL     1      -3.667 -11.548  18.900  0.00  0.00    -0.205 F 
ATOM     19  C   UNL     1      -7.600 -10.422  18.344  0.00  0.00    -0.033 A 
ATOM     20  C   UNL     1      -7.232 -11.128  19.490  0.00  0.00    +0.008 A 
ATOM     21  C   UNL     1      -6.640 -10.097  17.387  0.00  0.00    +0.008 A 
ATOM     22  C   UNL     1      -5.903 -11.509  19.677  0.00  0.00    +0.038 A 
ATOM     23  C   UNL     1      -5.311 -10.477  17.574  0.00  0.00    +0.038 A 
ATOM     24  C   UNL     1      -4.942 -11.183  18.720  0.00  0.00    +0.123 A 
ENDBRANCH  18  19
ENDBRANCH   5  18
TORSDOF 3
ENDMDL
MODEL 8
REMARK VINA RESULT:      -6.1      7.436     10.399
REMARK  Name = 75537121
REMARK  3 active torsions:
REMARK  status: ('A' for Active; 'I' for Inactive)
REMARK    1  A    between atoms: N_3  and  C_7
REMARK    2  A    between atoms: N_5  and  C_18
REMARK    3  A    between atoms: C_18  and  C_19
REMARK                            x       y       z     vdW  Elec       q    Type
REMARK                         _______ _______ _______ _____ _____    ______ ____
ROOT
ATOM      2  O   UNL     1     -17.458   4.585  32.488  0.00  0.00    -0.252 OA
ATOM      3  N   UNL     1     -15.274   3.752  32.166  0.00  0.00    -0.281 N 
ATOM      4  N   UNL     1     -15.528   5.809  33.030  0.00  0.00    -0.278 N 
ATOM      5  N   UNL     1     -13.776   8.002  33.215  0.00  0.00    -0.295 NA
ATOM      6  C   UNL     1     -14.101   5.566  33.083  0.00  0.00    +0.109 C 
ATOM      8  C   UNL     1     -13.923   4.274  32.289  0.00  0.00    +0.133 C 
ATOM      9  C   UNL     1     -13.335   6.769  32.533  0.00  0.00    +0.109 C 
ATOM     12  C   UNL     1     -16.241   4.700  32.557  0.00  0.00    +0.305 C 
ATOM     13  C   UNL     1     -16.053   7.059  33.538  0.00  0.00    +0.125 C 
ATOM     14  C   UNL     1     -15.221   8.231  33.011  0.00  0.00    +0.104 C 
ENDROOT
BRANCH   3   7
ATOM      7  C   UNL     1     -15.546   2.468  31.567  0.00  0.00    +0.078 C 
ATOM     10  C   UNL     1     -14.663   1.386  32.194  0.00  0.00    +0.022 C 
ATOM     11  C   UNL     1     -15.360   2.528  30.048  0.00  0.00    +0.022 C 
ATOM     15  C   UNL     1     -14.894   0.025  31.541  0.00  0.00    +0.002 C 
ATOM     16  C   UNL     1     -15.590   1.166  29.400  0.00  0.00    +0.002 C 
ATOM     17  C   UNL     1     -14.711   0.088  30.027  0.00  0.00    +0.000 C 
ENDBRANCH   3   7
BRANCH   5  18
ATOM     18  C   UNL     1     -13.006   9.151  32.739  0.00  0.00    +0.119 C 
BRANCH  18  19
ATOM      1  F   UNL     1      -8.308   9.926  35.751  0.00  0.00    -0.205 F 
ATOM     19  C   UNL     1     -11.751   9.359  33.543  0.00  0.00    -0.033 A 
ATOM     20  C   UNL     1     -10.569   9.738  32.907  0.00  0.00    +0.008 A 
ATOM     21  C   UNL     1     -11.770   9.170  34.925  0.00  0.00    +0.008 A 
ATOM     22  C   UNL     1      -9.406   9.930  33.653  0.00  0.00    +0.038 A 
ATOM     23  C   UNL     1     -10.607   9.362  35.671  0.00  0.00    +0.038 A 
ATOM     24  C   UNL     1      -9.425   9.741  35.035  0.00  0.00    +0.123 A 
ENDBRANCH  18  19
ENDBRANCH   5  18
TORSDOF 3
ENDMDL
MODEL 9
REMARK VINA RESULT:      -6.0     32.436     35.627
REMARK  Name = 75537121
REMARK  3 active torsions:
REMARK  status: ('A' for Active; 'I' for Inactive)
REMARK    1  A    between atoms: N_3  and  C_7
REMARK    2  A    between atoms: N_5  and  C_18
REMARK    3  A    between atoms: C_18  and  C_19
REMARK                            x       y       z     vdW  Elec       q    Type
REMARK                         _______ _______ _______ _____ _____    ______ ____
ROOT
ATOM      2  O   UNL     1      22.532   7.207  22.662  0.00  0.00    -0.252 OA
ATOM      3  N   UNL     1      21.869   5.377  21.328  0.00  0.00    -0.281 N 
ATOM      4  N   UNL     1      20.541   7.186  21.416  0.00  0.00    -0.278 N 
ATOM      5  N   UNL     1      17.817   7.552  20.814  0.00  0.00    -0.295 NA
ATOM      6  C   UNL     1      19.916   6.324  20.434  0.00  0.00    +0.109 C 
ATOM      8  C   UNL     1      20.694   5.015  20.553  0.00  0.00    +0.133 C 
ATOM      9  C   UNL     1      18.417   6.206  20.705  0.00  0.00    +0.109 C 
ATOM     12  C   UNL     1      21.748   6.661  21.896  0.00  0.00    +0.305 C 
ATOM     13  C   UNL     1      19.945   8.472  21.710  0.00  0.00    +0.125 C 
ATOM     14  C   UNL     1      18.436   8.318  21.915  0.00  0.00    +0.104 C 
ENDROOT
BRANCH   3   7
ATOM      7  C   UNL     1      22.937   4.441  21.581  0.00  0.00    +0.078 C 
ATOM     10  C   UNL     1      23.630   4.051  20.273  0.00  0.00    +0.022 C 
ATOM     11  C   UNL     1      22.412   3.208  22.322  0.00  0.00    +0.022 C 
ATOM     15  C   UNL     1      24.731   3.019  20.506  0.00  0.00    +0.002 C 
ATOM     16  C   UNL     1      23.515   2.179  22.552  0.00  0.00    +0.002 C 
ATOM     17  C   UNL     1      24.207   1.793  21.248  0.00  0.00    +0.000 C 
ENDBRANCH   3   7
BRANCH   5  18
ATOM     18  C   UNL     1      16.372   7.451  21.013  0.00  0.00    +0.119 C 
BRANCH  18  19
ATOM      1  F   UNL     1      13.501   9.574  16.654  0.00  0.00    -0.205 F 
ATOM     19  C   UNL     1      15.605   8.018  19.849  0.00  0.00    -0.033 A 
ATOM     20  C   UNL     1      15.068   7.164  18.885  0.00  0.00    +0.008 A 
ATOM     21  C   UNL     1      15.431   9.397  19.733  0.00  0.00    +0.008 A 
ATOM     22  C   UNL     1      14.358   7.691  17.806  0.00  0.00    +0.038 A 
ATOM     23  C   UNL     1      14.721   9.923  18.654  0.00  0.00    +0.038 A 
ATOM     24  C   UNL     1      14.184   9.069  17.690  0.00  0.00    +0.123 A 
ENDBRANCH  18  19
ENDBRANCH   5  18
TORSDOF 3
ENDMDL
MODEL 10
REMARK VINA RESULT:      -5.9     30.171     32.640
REMARK  Name = 75537121
REMARK  3 active torsions:
REMARK  status: ('A' for Active; 'I' for Inactive)
REMARK    1  A    between atoms: N_3  and  C_7
REMARK    2  A    between atoms: N_5  and  C_18
REMARK    3  A    between atoms: C_18  and  C_19
REMARK                            x       y       z     vdW  Elec       q    Type
REMARK                         _______ _______ _______ _____ _____    ______ ____
ROOT
ATOM      2  O   UNL     1       9.785   4.052   5.503  0.00  0.00    -0.252 OA
ATOM      3  N   UNL     1      10.824   5.569   4.025  0.00  0.00    -0.281 N 
ATOM      4  N   UNL     1      10.342   6.252   6.109  0.00  0.00    -0.278 N 
ATOM      5  N   UNL     1      10.065   8.816   7.232  0.00  0.00    -0.295 NA
ATOM      6  C   UNL     1      11.070   7.358   5.523  0.00  0.00    +0.109 C 
ATOM      8  C   UNL     1      11.187   6.976   4.049  0.00  0.00    +0.133 C 
ATOM      9  C   UNL     1      10.341   8.675   5.788  0.00  0.00    +0.109 C 
ATOM     12  C   UNL     1      10.260   5.150   5.247  0.00  0.00    +0.305 C 
ATOM     13  C   UNL     1       9.891   6.349   7.481  0.00  0.00    +0.125 C 
ATOM     14  C   UNL     1       9.221   7.705   7.719  0.00  0.00    +0.104 C 
ENDROOT
BRANCH   3   7
ATOM      7  C   UNL     1      10.908   4.778   2.821  0.00  0.00    +0.078 C 
ATOM     10  C   UNL     1      12.369   4.571   2.417  0.00  0.00    +0.022 C 
ATOM     11  C   UNL     1      10.103   5.424   1.690  0.00  0.00    +0.022 C 
ATOM     15  C   UNL     1      12.486   3.781   1.115  0.00  0.00    +0.002 C 
ATOM     16  C   UNL     1      10.223   4.633   0.391  0.00  0.00    +0.002 C 
ATOM     17  C   UNL     1      11.681   4.425  -0.010  0.00  0.00    +0.000 C 
ENDBRANCH   3   7
BRANCH   5  18
ATOM     18  C   UNL     1       9.422  10.101   7.506  0.00  0.00    +0.119 C 
BRANCH  18  19
ATOM      1  F   UNL     1      11.512  12.553  12.128  0.00  0.00    -0.205 F 
ATOM     19  C   UNL     1       9.980  10.756   8.740  0.00  0.00    -0.033 A 
ATOM     20  C   UNL     1      11.346  11.022   8.831  0.00  0.00    +0.008 A 
ATOM     21  C   UNL     1       9.131  11.097   9.793  0.00  0.00    +0.008 A 
ATOM     22  C   UNL     1      11.863  11.629   9.976  0.00  0.00    +0.038 A 
ATOM     23  C   UNL     1       9.649  11.703  10.938  0.00  0.00    +0.038 A 
ATOM     24  C   UNL     1      11.015  11.970  11.029  0.00  0.00    +0.123 A 
ENDBRANCH  18  19
ENDBRANCH   5  18
TORSDOF 3
ENDMDL
