MODEL 1
REMARK VINA RESULT:      -7.2      0.000      0.000
REMARK  Name = 51137134
REMARK  6 active torsions:
REMARK  status: ('A' for Active; 'I' for Inactive)
REMARK    1  A    between atoms: S_1  and  C_19
REMARK    2  A    between atoms: S_1  and  C_24
REMARK    3  A    between atoms: N_7  and  C_14
REMARK    4  A    between atoms: C_9  and  C_13
REMARK    5  A    between atoms: C_14  and  C_15
REMARK    6  A    between atoms: C_24  and  C_28
REMARK                            x       y       z     vdW  Elec       q    Type
REMARK                         _______ _______ _______ _____ _____    ______ ____
ROOT
ATOM      7  N   UNL     1      -8.663 -10.103  17.627  0.00  0.00    -0.297 NA
ATOM      9  C   UNL     1     -10.004  -8.188  17.452  0.00  0.00    +0.090 C 
ATOM     10  C   UNL     1     -10.721  -9.241  18.316  0.00  0.00    +0.029 C 
ATOM     11  C   UNL     1      -8.892  -8.966  16.735  0.00  0.00    +0.097 C 
ATOM     12  C   UNL     1     -10.000 -10.550  18.021  0.00  0.00    +0.085 C 
ENDROOT
BRANCH   9  13
ATOM      4  O   UNL     1     -12.228  -7.737  16.562  0.00  0.00    -0.439 OA
ATOM      8  N   UNL     1     -10.570  -6.511  15.622  0.00  0.00    -0.213 NA
ATOM     13  C   UNL     1     -10.902  -7.430  16.502  0.00  0.00    +0.201 A 
ATOM     16  C   UNL     1     -11.772  -6.176  15.047  0.00  0.00    +0.111 A 
ATOM     17  C   UNL     1     -12.788  -6.924  15.620  0.00  0.00    +0.155 A 
ATOM     18  C   UNL     1     -12.093  -5.254  14.039  0.00  0.00    +0.058 A 
ATOM     19  C   UNL     1     -13.438  -5.135  13.659  0.00  0.00    +0.090 A 
ATOM     22  C   UNL     1     -14.131  -6.835  15.271  0.00  0.00    +0.050 A 
ATOM     23  C   UNL     1     -14.435  -5.911  14.265  0.00  0.00    +0.030 A 
BRANCH  19   1
ATOM      1  S   UNL     1     -13.876  -3.995  12.408  0.00  0.00    -0.003 S 
ATOM      5  O   UNL     1     -14.408  -4.731  11.269  0.00  0.00    -0.169 OA
ATOM      6  O   UNL     1     -14.668  -2.941  13.024  0.00  0.00    -0.169 OA
BRANCH   1  24
ATOM     24  C   UNL     1     -12.327  -3.290  11.895  0.00  0.00    +0.168 C 
ATOM     28  C   UNL     1     -12.018  -3.623  10.452  0.00  0.00    +0.028 C 
ENDBRANCH   1  24
ENDBRANCH  19   1
ENDBRANCH   9  13
BRANCH   7  14
ATOM     14  C   UNL     1      -7.891 -11.161  16.991  0.00  0.00    +0.119 C 
BRANCH  14  15
ATOM      2  F   UNL     1      -3.014 -11.275  16.863  0.00  0.00    -0.202 F 
ATOM      3  F   UNL     1      -2.913 -11.932  19.516  0.00  0.00    -0.202 F 
ATOM     15  C   UNL     1      -6.562 -11.368  17.666  0.00  0.00    -0.030 A 
ATOM     20  C   UNL     1      -5.380 -11.223  16.939  0.00  0.00    +0.046 A 
ATOM     21  C   UNL     1      -6.510 -11.701  19.019  0.00  0.00    +0.008 A 
ATOM     25  C   UNL     1      -4.147 -11.414  17.563  0.00  0.00    +0.159 A 
ATOM     26  C   UNL     1      -5.277 -11.892  19.645  0.00  0.00    +0.041 A 
ATOM     27  C   UNL     1      -4.097 -11.748  18.916  0.00  0.00    +0.158 A 
ENDBRANCH  14  15
ENDBRANCH   7  14
TORSDOF 5
ENDMDL
MODEL 2
REMARK VINA RESULT:      -7.1     15.991     17.898
REMARK  Name = 51137134
REMARK  6 active torsions:
REMARK  status: ('A' for Active; 'I' for Inactive)
REMARK    1  A    between atoms: S_1  and  C_19
REMARK    2  A    between atoms: S_1  and  C_24
REMARK    3  A    between atoms: N_7  and  C_14
REMARK    4  A    between atoms: C_9  and  C_13
REMARK    5  A    between atoms: C_14  and  C_15
REMARK    6  A    between atoms: C_24  and  C_28
REMARK                            x       y       z     vdW  Elec       q    Type
REMARK                         _______ _______ _______ _____ _____    ______ ____
ROOT
ATOM      7  N   UNL     1     -13.183   7.139  20.826  0.00  0.00    -0.297 NA
ATOM      9  C   UNL     1     -14.733   5.495  21.449  0.00  0.00    +0.090 C 
ATOM     10  C   UNL     1     -15.465   6.827  21.209  0.00  0.00    +0.029 C 
ATOM     11  C   UNL     1     -13.253   5.880  21.570  0.00  0.00    +0.097 C 
ATOM     12  C   UNL     1     -14.371   7.887  21.236  0.00  0.00    +0.085 C 
ENDROOT
BRANCH   9  13
ATOM      4  O   UNL     1     -16.196   3.773  22.364  0.00  0.00    -0.439 OA
ATOM      8  N   UNL     1     -14.865   4.787  23.892  0.00  0.00    -0.213 NA
ATOM     13  C   UNL     1     -15.235   4.701  22.633  0.00  0.00    +0.201 A 
ATOM     16  C   UNL     1     -15.642   3.841  24.515  0.00  0.00    +0.111 A 
ATOM     17  C   UNL     1     -16.458   3.219  23.583  0.00  0.00    +0.155 A 
ATOM     18  C   UNL     1     -15.721   3.445  25.859  0.00  0.00    +0.058 A 
ATOM     19  C   UNL     1     -16.630   2.430  26.193  0.00  0.00    +0.090 A 
ATOM     22  C   UNL     1     -17.369   2.211  23.876  0.00  0.00    +0.050 A 
ATOM     23  C   UNL     1     -17.436   1.826  25.219  0.00  0.00    +0.030 A 
BRANCH  19   1
ATOM      1  S   UNL     1     -16.755   1.908  27.858  0.00  0.00    -0.003 S 
ATOM      5  O   UNL     1     -18.117   2.137  28.320  0.00  0.00    -0.169 OA
ATOM      6  O   UNL     1     -16.171   0.578  27.953  0.00  0.00    -0.169 OA
BRANCH   1  24
ATOM     24  C   UNL     1     -15.707   3.033  28.750  0.00  0.00    +0.168 C 
ATOM     28  C   UNL     1     -15.451   2.551  30.161  0.00  0.00    +0.028 C 
ENDBRANCH   1  24
ENDBRANCH  19   1
ENDBRANCH   9  13
BRANCH   7  14
ATOM     14  C   UNL     1     -11.951   7.870  21.087  0.00  0.00    +0.119 C 
BRANCH  14  15
ATOM      2  F   UNL     1     -10.457   7.328  16.473  0.00  0.00    -0.202 F 
ATOM      3  F   UNL     1      -9.712   9.958  16.356  0.00  0.00    -0.202 F 
ATOM     15  C   UNL     1     -11.352   8.428  19.824  0.00  0.00    -0.030 A 
ATOM     20  C   UNL     1     -11.179   7.605  18.712  0.00  0.00    +0.046 A 
ATOM     21  C   UNL     1     -10.974   9.769  19.763  0.00  0.00    +0.008 A 
ATOM     25  C   UNL     1     -10.625   8.121  17.540  0.00  0.00    +0.159 A 
ATOM     26  C   UNL     1     -10.420  10.286  18.592  0.00  0.00    +0.041 A 
ATOM     27  C   UNL     1     -10.245   9.461  17.481  0.00  0.00    +0.158 A 
ENDBRANCH  14  15
ENDBRANCH   7  14
TORSDOF 5
ENDMDL
MODEL 3
REMARK VINA RESULT:      -6.9      6.105      9.080
REMARK  Name = 51137134
REMARK  6 active torsions:
REMARK  status: ('A' for Active; 'I' for Inactive)
REMARK    1  A    between atoms: S_1  and  C_19
REMARK    2  A    between atoms: S_1  and  C_24
REMARK    3  A    between atoms: N_7  and  C_14
REMARK    4  A    between atoms: C_9  and  C_13
REMARK    5  A    between atoms: C_14  and  C_15
REMARK    6  A    between atoms: C_24  and  C_28
REMARK                            x       y       z     vdW  Elec       q    Type
REMARK                         _______ _______ _______ _____ _____    ______ ____
ROOT
ATOM      7  N   UNL     1      -2.216 -10.969  13.722  0.00  0.00    -0.297 NA
ATOM      9  C   UNL     1      -3.438 -10.193  15.566  0.00  0.00    +0.090 C 
ATOM     10  C   UNL     1      -2.098 -10.779  16.046  0.00  0.00    +0.029 C 
ATOM     11  C   UNL     1      -3.598 -10.714  14.131  0.00  0.00    +0.097 C 
ATOM     12  C   UNL     1      -1.593 -11.614  14.877  0.00  0.00    +0.085 C 
ENDROOT
BRANCH   9  13
ATOM      4  O   UNL     1      -4.382 -11.371  17.480  0.00  0.00    -0.439 OA
ATOM      8  N   UNL     1      -5.858 -10.078  16.347  0.00  0.00    -0.213 NA
ATOM     13  C   UNL     1      -4.623 -10.516  16.447  0.00  0.00    +0.201 A 
ATOM     16  C   UNL     1      -6.496 -10.691  17.399  0.00  0.00    +0.111 A 
ATOM     17  C   UNL     1      -5.595 -11.483  18.094  0.00  0.00    +0.155 A 
ATOM     18  C   UNL     1      -7.828 -10.634  17.836  0.00  0.00    +0.058 A 
ATOM     19  C   UNL     1      -8.183 -11.387  18.965  0.00  0.00    +0.090 A 
ATOM     22  C   UNL     1      -5.910 -12.243  19.215  0.00  0.00    +0.050 A 
ATOM     23  C   UNL     1      -7.241 -12.175  19.639  0.00  0.00    +0.030 A 
BRANCH  19   1
ATOM      1  S   UNL     1      -9.834 -11.339  19.541  0.00  0.00    -0.003 S 
ATOM      5  O   UNL     1     -10.254 -12.693  19.874  0.00  0.00    -0.169 OA
ATOM      6  O   UNL     1      -9.927 -10.285  20.540  0.00  0.00    -0.169 OA
BRANCH   1  24
ATOM     24  C   UNL     1     -10.779 -10.835  18.122  0.00  0.00    +0.168 C 
ATOM     28  C   UNL     1     -11.386  -9.464  18.319  0.00  0.00    +0.028 C 
ENDBRANCH   1  24
ENDBRANCH  19   1
ENDBRANCH   9  13
BRANCH   7  14
ATOM     14  C   UNL     1      -2.136 -11.787  12.520  0.00  0.00    +0.119 C 
BRANCH  14  15
ATOM      2  F   UNL     1      -5.109 -11.981   8.655  0.00  0.00    -0.202 F 
ATOM      3  F   UNL     1      -4.684  -9.329   8.136  0.00  0.00    -0.202 F 
ATOM     15  C   UNL     1      -2.816 -11.130  11.349  0.00  0.00    -0.030 A 
ATOM     20  C   UNL     1      -3.664 -11.874  10.528  0.00  0.00    +0.046 A 
ATOM     21  C   UNL     1      -2.600  -9.778  11.085  0.00  0.00    +0.008 A 
ATOM     25  C   UNL     1      -4.295 -11.266   9.443  0.00  0.00    +0.159 A 
ATOM     26  C   UNL     1      -3.231  -9.169  10.000  0.00  0.00    +0.041 A 
ATOM     27  C   UNL     1      -4.078  -9.914   9.179  0.00  0.00    +0.158 A 
ENDBRANCH  14  15
ENDBRANCH   7  14
TORSDOF 5
ENDMDL
MODEL 4
REMARK VINA RESULT:      -6.7      5.505      7.900
REMARK  Name = 51137134
REMARK  6 active torsions:
REMARK  status: ('A' for Active; 'I' for Inactive)
REMARK    1  A    between atoms: S_1  and  C_19
REMARK    2  A    between atoms: S_1  and  C_24
REMARK    3  A    between atoms: N_7  and  C_14
REMARK    4  A    between atoms: C_9  and  C_13
REMARK    5  A    between atoms: C_14  and  C_15
REMARK    6  A    between atoms: C_24  and  C_28
REMARK                            x       y       z     vdW  Elec       q    Type
REMARK                         _______ _______ _______ _____ _____    ______ ____
ROOT
ATOM      7  N   UNL     1      -4.114 -10.650  14.786  0.00  0.00    -0.297 NA
ATOM      9  C   UNL     1      -5.506  -9.709  16.421  0.00  0.00    +0.090 C 
ATOM     10  C   UNL     1      -4.289 -10.364  17.097  0.00  0.00    +0.029 C 
ATOM     11  C   UNL     1      -5.515 -10.281  14.997  0.00  0.00    +0.097 C 
ATOM     12  C   UNL     1      -3.697 -11.284  16.037  0.00  0.00    +0.085 C 
ENDROOT
BRANCH   9  13
ATOM      4  O   UNL     1      -6.840 -10.908  18.072  0.00  0.00    -0.439 OA
ATOM      8  N   UNL     1      -7.942  -9.244  16.998  0.00  0.00    -0.213 NA
ATOM     13  C   UNL     1      -6.818  -9.909  17.145  0.00  0.00    +0.201 A 
ATOM     16  C   UNL     1      -8.786  -9.847  17.900  0.00  0.00    +0.111 A 
ATOM     17  C   UNL     1      -8.114 -10.866  18.559  0.00  0.00    +0.155 A 
ATOM     18  C   UNL     1     -10.128  -9.599  18.225  0.00  0.00    +0.058 A 
ATOM     19  C   UNL     1     -10.727 -10.400  19.208  0.00  0.00    +0.090 A 
ATOM     22  C   UNL     1      -8.673 -11.679  19.537  0.00  0.00    +0.050 A 
ATOM     23  C   UNL     1     -10.011 -11.419  19.850  0.00  0.00    +0.030 A 
BRANCH  19   1
ATOM      1  S   UNL     1     -12.397 -10.118  19.641  0.00  0.00    -0.003 S 
ATOM      5  O   UNL     1     -12.440  -9.448  20.933  0.00  0.00    -0.169 OA
ATOM      6  O   UNL     1     -13.060  -9.519  18.492  0.00  0.00    -0.169 OA
BRANCH   1  24
ATOM     24  C   UNL     1     -13.071 -11.746  19.876  0.00  0.00    +0.168 C 
ATOM     28  C   UNL     1     -13.460 -11.982  21.319  0.00  0.00    +0.028 C 
ENDBRANCH   1  24
ENDBRANCH  19   1
ENDBRANCH   9  13
BRANCH   7  14
ATOM     14  C   UNL     1      -3.937 -11.525  13.636  0.00  0.00    +0.119 C 
BRANCH  14  15
ATOM      2  F   UNL     1      -1.368  -8.906  10.417  0.00  0.00    -0.202 F 
ATOM      3  F   UNL     1      -3.572  -8.616   8.823  0.00  0.00    -0.202 F 
ATOM     15  C   UNL     1      -3.841 -10.747  12.350  0.00  0.00    -0.030 A 
ATOM     20  C   UNL     1      -2.626 -10.176  11.971  0.00  0.00    +0.046 A 
ATOM     21  C   UNL     1      -4.964 -10.601  11.537  0.00  0.00    +0.008 A 
ATOM     25  C   UNL     1      -2.535  -9.455  10.780  0.00  0.00    +0.159 A 
ATOM     26  C   UNL     1      -4.873  -9.880  10.345  0.00  0.00    +0.041 A 
ATOM     27  C   UNL     1      -3.659  -9.308   9.967  0.00  0.00    +0.158 A 
ENDBRANCH  14  15
ENDBRANCH   7  14
TORSDOF 5
ENDMDL
MODEL 5
REMARK VINA RESULT:      -6.6     16.092     17.011
REMARK  Name = 51137134
REMARK  6 active torsions:
REMARK  status: ('A' for Active; 'I' for Inactive)
REMARK    1  A    between atoms: S_1  and  C_19
REMARK    2  A    between atoms: S_1  and  C_24
REMARK    3  A    between atoms: N_7  and  C_14
REMARK    4  A    between atoms: C_9  and  C_13
REMARK    5  A    between atoms: C_14  and  C_15
REMARK    6  A    between atoms: C_24  and  C_28
REMARK                            x       y       z     vdW  Elec       q    Type
REMARK                         _______ _______ _______ _____ _____    ______ ____
ROOT
ATOM      7  N   UNL     1     -17.005   4.061  25.711  0.00  0.00    -0.297 NA
ATOM      9  C   UNL     1     -16.621   4.537  23.448  0.00  0.00    +0.090 C 
ATOM     10  C   UNL     1     -16.183   3.094  23.751  0.00  0.00    +0.029 C 
ATOM     11  C   UNL     1     -16.758   5.200  24.825  0.00  0.00    +0.097 C 
ATOM     12  C   UNL     1     -16.069   3.028  25.268  0.00  0.00    +0.085 C 
ENDROOT
BRANCH   9  13
ATOM      4  O   UNL     1     -14.369   5.099  22.704  0.00  0.00    -0.439 OA
ATOM      8  N   UNL     1     -16.027   6.121  21.545  0.00  0.00    -0.213 NA
ATOM     13  C   UNL     1     -15.704   5.296  22.516  0.00  0.00    +0.201 A 
ATOM     16  C   UNL     1     -14.808   6.510  21.043  0.00  0.00    +0.111 A 
ATOM     17  C   UNL     1     -13.792   5.886  21.750  0.00  0.00    +0.155 A 
ATOM     18  C   UNL     1     -14.471   7.381  19.997  0.00  0.00    +0.058 A 
ATOM     19  C   UNL     1     -13.111   7.579  19.716  0.00  0.00    +0.090 A 
ATOM     22  C   UNL     1     -12.435   6.057  21.502  0.00  0.00    +0.050 A 
ATOM     23  C   UNL     1     -12.115   6.928  20.455  0.00  0.00    +0.030 A 
BRANCH  19   1
ATOM      1  S   UNL     1     -12.652   8.656  18.417  0.00  0.00    -0.003 S 
ATOM      5  O   UNL     1     -13.334   8.239  17.200  0.00  0.00    -0.169 OA
ATOM      6  O   UNL     1     -12.798  10.021  18.898  0.00  0.00    -0.169 OA
BRANCH   1  24
ATOM     24  C   UNL     1     -10.919   8.341  18.177  0.00  0.00    +0.168 C 
ATOM     28  C   UNL     1     -10.087   9.570  18.469  0.00  0.00    +0.028 C 
ENDBRANCH   1  24
ENDBRANCH  19   1
ENDBRANCH   9  13
BRANCH   7  14
ATOM     14  C   UNL     1     -16.830   4.402  27.115  0.00  0.00    +0.119 C 
BRANCH  14  15
ATOM      2  F   UNL     1     -13.908   1.933  30.146  0.00  0.00    -0.202 F 
ATOM      3  F   UNL     1     -15.692  -0.139  30.252  0.00  0.00    -0.202 F 
ATOM     15  C   UNL     1     -16.526   3.189  27.953  0.00  0.00    -0.030 A 
ATOM     20  C   UNL     1     -15.336   3.121  28.676  0.00  0.00    +0.046 A 
ATOM     21  C   UNL     1     -17.436   2.133  28.008  0.00  0.00    +0.008 A 
ATOM     25  C   UNL     1     -15.053   1.997  29.453  0.00  0.00    +0.159 A 
ATOM     26  C   UNL     1     -17.154   1.009  28.785  0.00  0.00    +0.041 A 
ATOM     27  C   UNL     1     -15.963   0.941  29.507  0.00  0.00    +0.158 A 
ENDBRANCH  14  15
ENDBRANCH   7  14
TORSDOF 5
ENDMDL
MODEL 6
REMARK VINA RESULT:      -6.6      5.170      7.094
REMARK  Name = 51137134
REMARK  6 active torsions:
REMARK  status: ('A' for Active; 'I' for Inactive)
REMARK    1  A    between atoms: S_1  and  C_19
REMARK    2  A    between atoms: S_1  and  C_24
REMARK    3  A    between atoms: N_7  and  C_14
REMARK    4  A    between atoms: C_9  and  C_13
REMARK    5  A    between atoms: C_14  and  C_15
REMARK    6  A    between atoms: C_24  and  C_28
REMARK                            x       y       z     vdW  Elec       q    Type
REMARK                         _______ _______ _______ _____ _____    ______ ____
ROOT
ATOM      7  N   UNL     1      -4.733 -11.733  17.377  0.00  0.00    -0.297 NA
ATOM      9  C   UNL     1      -6.391 -10.551  18.540  0.00  0.00    +0.090 C 
ATOM     10  C   UNL     1      -5.651 -11.488  19.510  0.00  0.00    +0.029 C 
ATOM     11  C   UNL     1      -6.013 -11.061  17.143  0.00  0.00    +0.097 C 
ATOM     12  C   UNL     1      -4.923 -12.485  18.618  0.00  0.00    +0.085 C 
ENDROOT
BRANCH   9  13
ATOM      4  O   UNL     1      -8.574  -9.711  17.856  0.00  0.00    -0.439 OA
ATOM      8  N   UNL     1      -8.608 -11.036  19.694  0.00  0.00    -0.213 NA
ATOM     13  C   UNL     1      -7.885 -10.469  18.754  0.00  0.00    +0.201 A 
ATOM     16  C   UNL     1      -9.886 -10.622  19.403  0.00  0.00    +0.111 A 
ATOM     17  C   UNL     1      -9.868  -9.811  18.278  0.00  0.00    +0.155 A 
ATOM     18  C   UNL     1     -11.112 -10.884  20.032  0.00  0.00    +0.058 A 
ATOM     19  C   UNL     1     -12.268 -10.306  19.487  0.00  0.00    +0.090 A 
ATOM     22  C   UNL     1     -10.992  -9.222  17.710  0.00  0.00    +0.050 A 
ATOM     23  C   UNL     1     -12.206  -9.492  18.349  0.00  0.00    +0.030 A 
BRANCH  19   1
ATOM      1  S   UNL     1     -13.815 -10.611  20.244  0.00  0.00    -0.003 S 
ATOM      5  O   UNL     1     -14.316  -9.365  20.805  0.00  0.00    -0.169 OA
ATOM      6  O   UNL     1     -14.631 -11.363  19.302  0.00  0.00    -0.169 OA
BRANCH   1  24
ATOM     24  C   UNL     1     -13.431 -11.680  21.612  0.00  0.00    +0.168 C 
ATOM     28  C   UNL     1     -14.629 -11.876  22.515  0.00  0.00    +0.028 C 
ENDBRANCH   1  24
ENDBRANCH  19   1
ENDBRANCH   9  13
BRANCH   7  14
ATOM     14  C   UNL     1      -4.344 -12.588  16.265  0.00  0.00    +0.119 C 
BRANCH  14  15
ATOM      2  F   UNL     1      -0.808  -9.445  15.065  0.00  0.00    -0.202 F 
ATOM      3  F   UNL     1      -1.353  -9.776  12.405  0.00  0.00    -0.202 F 
ATOM     15  C   UNL     1      -3.546 -11.837  15.234  0.00  0.00    -0.030 A 
ATOM     20  C   UNL     1      -2.527 -10.972  15.634  0.00  0.00    +0.046 A 
ATOM     21  C   UNL     1      -3.822 -12.006  13.877  0.00  0.00    +0.008 A 
ATOM     25  C   UNL     1      -1.786 -10.276  14.679  0.00  0.00    +0.159 A 
ATOM     26  C   UNL     1      -3.082 -11.310  12.921  0.00  0.00    +0.041 A 
ATOM     27  C   UNL     1      -2.064 -10.445  13.323  0.00  0.00    +0.158 A 
ENDBRANCH  14  15
ENDBRANCH   7  14
TORSDOF 5
ENDMDL
MODEL 7
REMARK VINA RESULT:      -6.6      5.468     10.495
REMARK  Name = 51137134
REMARK  6 active torsions:
REMARK  status: ('A' for Active; 'I' for Inactive)
REMARK    1  A    between atoms: S_1  and  C_19
REMARK    2  A    between atoms: S_1  and  C_24
REMARK    3  A    between atoms: N_7  and  C_14
REMARK    4  A    between atoms: C_9  and  C_13
REMARK    5  A    between atoms: C_14  and  C_15
REMARK    6  A    between atoms: C_24  and  C_28
REMARK                            x       y       z     vdW  Elec       q    Type
REMARK                         _______ _______ _______ _____ _____    ______ ____
ROOT
ATOM      7  N   UNL     1     -12.770  -6.623  14.222  0.00  0.00    -0.297 NA
ATOM      9  C   UNL     1     -11.853  -7.410  16.231  0.00  0.00    +0.090 C 
ATOM     10  C   UNL     1     -11.517  -5.918  16.061  0.00  0.00    +0.029 C 
ATOM     11  C   UNL     1     -12.305  -7.867  14.838  0.00  0.00    +0.097 C 
ATOM     12  C   UNL     1     -11.768  -5.622  14.589  0.00  0.00    +0.085 C 
ENDROOT
BRANCH   9  13
ATOM      4  O   UNL     1      -9.525  -8.127  16.175  0.00  0.00    -0.439 OA
ATOM      8  N   UNL     1     -10.769  -9.091  17.806  0.00  0.00    -0.213 NA
ATOM     13  C   UNL     1     -10.732  -8.252  16.794  0.00  0.00    +0.201 A 
ATOM     16  C   UNL     1      -9.481  -9.567  17.868  0.00  0.00    +0.111 A 
ATOM     17  C   UNL     1      -8.717  -8.979  16.872  0.00  0.00    +0.155 A 
ATOM     18  C   UNL     1      -8.875 -10.492  18.731  0.00  0.00    +0.058 A 
ATOM     19  C   UNL     1      -7.515 -10.778  18.540  0.00  0.00    +0.090 A 
ATOM     22  C   UNL     1      -7.369  -9.236  16.652  0.00  0.00    +0.050 A 
ATOM     23  C   UNL     1      -6.779 -10.161  17.520  0.00  0.00    +0.030 A 
BRANCH  19   1
ATOM      1  S   UNL     1      -6.725 -11.925  19.598  0.00  0.00    -0.003 S 
ATOM      5  O   UNL     1      -6.144 -11.203  20.721  0.00  0.00    -0.169 OA
ATOM      6  O   UNL     1      -7.653 -13.019  19.841  0.00  0.00    -0.169 OA
BRANCH   1  24
ATOM     24  C   UNL     1      -5.374 -12.556  18.630  0.00  0.00    +0.168 C 
ATOM     28  C   UNL     1      -4.042 -12.062  19.149  0.00  0.00    +0.028 C 
ENDBRANCH   1  24
ENDBRANCH  19   1
ENDBRANCH   9  13
BRANCH   7  14
ATOM     14  C   UNL     1     -12.930  -6.744  12.780  0.00  0.00    +0.119 C 
BRANCH  14  15
ATOM      2  F   UNL     1     -12.762  -3.234   9.392  0.00  0.00    -0.202 F 
ATOM      3  F   UNL     1     -14.948  -2.008  10.488  0.00  0.00    -0.202 F 
ATOM     15  C   UNL     1     -13.469  -5.478  12.168  0.00  0.00    -0.030 A 
ATOM     20  C   UNL     1     -12.855  -4.932  11.042  0.00  0.00    +0.046 A 
ATOM     21  C   UNL     1     -14.585  -4.854  12.726  0.00  0.00    +0.008 A 
ATOM     25  C   UNL     1     -13.354  -3.759  10.474  0.00  0.00    +0.159 A 
ATOM     26  C   UNL     1     -15.084  -3.681  12.158  0.00  0.00    +0.041 A 
ATOM     27  C   UNL     1     -14.468  -3.134  11.033  0.00  0.00    +0.158 A 
ENDBRANCH  14  15
ENDBRANCH   7  14
TORSDOF 5
ENDMDL
MODEL 8
REMARK VINA RESULT:      -6.4      7.395     11.598
REMARK  Name = 51137134
REMARK  6 active torsions:
REMARK  status: ('A' for Active; 'I' for Inactive)
REMARK    1  A    between atoms: S_1  and  C_19
REMARK    2  A    between atoms: S_1  and  C_24
REMARK    3  A    between atoms: N_7  and  C_14
REMARK    4  A    between atoms: C_9  and  C_13
REMARK    5  A    between atoms: C_14  and  C_15
REMARK    6  A    between atoms: C_24  and  C_28
REMARK                            x       y       z     vdW  Elec       q    Type
REMARK                         _______ _______ _______ _____ _____    ______ ____
ROOT
ATOM      7  N   UNL     1      -9.586  -7.609   7.879  0.00  0.00    -0.297 NA
ATOM      9  C   UNL     1      -7.321  -7.871   8.423  0.00  0.00    +0.090 C 
ATOM     10  C   UNL     1      -7.670  -8.772   7.225  0.00  0.00    +0.029 C 
ATOM     11  C   UNL     1      -8.678  -7.473   9.019  0.00  0.00    +0.097 C 
ATOM     12  C   UNL     1      -9.190  -8.857   7.227  0.00  0.00    +0.085 C 
ENDROOT
BRANCH   9  13
ATOM      4  O   UNL     1      -5.086  -8.604   9.061  0.00  0.00    -0.439 OA
ATOM      8  N   UNL     1      -6.677  -8.950  10.637  0.00  0.00    -0.213 NA
ATOM     13  C   UNL     1      -6.391  -8.497   9.437  0.00  0.00    +0.201 A 
ATOM     16  C   UNL     1      -5.465  -9.399  11.102  0.00  0.00    +0.111 A 
ATOM     17  C   UNL     1      -4.489  -9.189  10.140  0.00  0.00    +0.155 A 
ATOM     18  C   UNL     1      -5.101  -9.995  12.319  0.00  0.00    +0.058 A 
ATOM     19  C   UNL     1      -3.756 -10.350  12.503  0.00  0.00    +0.090 A 
ATOM     22  C   UNL     1      -3.148  -9.527  10.285  0.00  0.00    +0.050 A 
ATOM     23  C   UNL     1      -2.801 -10.119  11.504  0.00  0.00    +0.030 A 
BRANCH  19   1
ATOM      1  S   UNL     1      -3.265 -11.093  14.008  0.00  0.00    -0.003 S 
ATOM      5  O   UNL     1      -4.174 -10.664  15.061  0.00  0.00    -0.169 OA
ATOM      6  O   UNL     1      -3.061 -12.512  13.759  0.00  0.00    -0.169 OA
BRANCH   1  24
ATOM     24  C   UNL     1      -1.681 -10.365  14.360  0.00  0.00    +0.168 C 
ATOM     28  C   UNL     1      -1.356 -10.432  15.836  0.00  0.00    +0.028 C 
ENDBRANCH   1  24
ENDBRANCH  19   1
ENDBRANCH   9  13
BRANCH   7  14
ATOM     14  C   UNL     1     -10.985  -7.613   8.282  0.00  0.00    +0.119 C 
BRANCH  14  15
ATOM      2  F   UNL     1     -11.108  -2.773   8.897  0.00  0.00    -0.202 F 
ATOM      3  F   UNL     1     -12.301  -3.067  11.341  0.00  0.00    -0.202 F 
ATOM     15  C   UNL     1     -11.336  -6.399   9.100  0.00  0.00    -0.030 A 
ATOM     20  C   UNL     1     -11.054  -5.123   8.611  0.00  0.00    +0.046 A 
ATOM     21  C   UNL     1     -11.946  -6.549  10.345  0.00  0.00    +0.008 A 
ATOM     25  C   UNL     1     -11.380  -3.997   9.367  0.00  0.00    +0.159 A 
ATOM     26  C   UNL     1     -12.272  -5.423  11.102  0.00  0.00    +0.041 A 
ATOM     27  C   UNL     1     -11.988  -4.148  10.613  0.00  0.00    +0.158 A 
ENDBRANCH  14  15
ENDBRANCH   7  14
TORSDOF 5
ENDMDL
MODEL 9
REMARK VINA RESULT:      -6.4      2.733      4.390
REMARK  Name = 51137134
REMARK  6 active torsions:
REMARK  status: ('A' for Active; 'I' for Inactive)
REMARK    1  A    between atoms: S_1  and  C_19
REMARK    2  A    between atoms: S_1  and  C_24
REMARK    3  A    between atoms: N_7  and  C_14
REMARK    4  A    between atoms: C_9  and  C_13
REMARK    5  A    between atoms: C_14  and  C_15
REMARK    6  A    between atoms: C_24  and  C_28
REMARK                            x       y       z     vdW  Elec       q    Type
REMARK                         _______ _______ _______ _____ _____    ______ ____
ROOT
ATOM      7  N   UNL     1      -5.278 -11.514  17.666  0.00  0.00    -0.297 NA
ATOM      9  C   UNL     1      -6.961  -9.970  18.194  0.00  0.00    +0.090 C 
ATOM     10  C   UNL     1      -6.969 -11.113  19.225  0.00  0.00    +0.029 C 
ATOM     11  C   UNL     1      -6.125 -10.508  17.025  0.00  0.00    +0.097 C 
ATOM     12  C   UNL     1      -6.169 -12.234  18.577  0.00  0.00    +0.085 C 
ENDROOT
BRANCH   9  13
ATOM      4  O   UNL     1      -9.389 -10.127  18.343  0.00  0.00    -0.439 OA
ATOM      8  N   UNL     1      -8.633  -8.535  16.918  0.00  0.00    -0.213 NA
ATOM     13  C   UNL     1      -8.330  -9.490  17.770  0.00  0.00    +0.201 A 
ATOM     16  C   UNL     1     -10.007  -8.533  16.922  0.00  0.00    +0.111 A 
ATOM     17  C   UNL     1     -10.473  -9.506  17.793  0.00  0.00    +0.155 A 
ATOM     18  C   UNL     1     -10.935  -7.748  16.223  0.00  0.00    +0.058 A 
ATOM     19  C   UNL     1     -12.300  -7.988  16.443  0.00  0.00    +0.090 A 
ATOM     22  C   UNL     1     -11.815  -9.773  18.037  0.00  0.00    +0.050 A 
ATOM     23  C   UNL     1     -12.728  -8.981  17.333  0.00  0.00    +0.030 A 
BRANCH  19   1
ATOM      1  S   UNL     1     -13.486  -7.026  15.591  0.00  0.00    -0.003 S 
ATOM      5  O   UNL     1     -14.657  -6.866  16.442  0.00  0.00    -0.169 OA
ATOM      6  O   UNL     1     -12.810  -5.853  15.059  0.00  0.00    -0.169 OA
BRANCH   1  24
ATOM     24  C   UNL     1     -13.976  -8.047  14.220  0.00  0.00    +0.168 C 
ATOM     28  C   UNL     1     -12.893  -8.116  13.166  0.00  0.00    +0.028 C 
ENDBRANCH   1  24
ENDBRANCH  19   1
ENDBRANCH   9  13
BRANCH   7  14
ATOM     14  C   UNL     1      -4.639 -12.399  16.702  0.00  0.00    +0.119 C 
BRANCH  14  15
ATOM      2  F   UNL     1      -0.563  -9.820  15.959  0.00  0.00    -0.202 F 
ATOM      3  F   UNL     1      -1.132  -9.601  13.292  0.00  0.00    -0.202 F 
ATOM     15  C   UNL     1      -3.703 -11.651  15.791  0.00  0.00    -0.030 A 
ATOM     20  C   UNL     1      -2.544 -11.071  16.306  0.00  0.00    +0.046 A 
ATOM     21  C   UNL     1      -3.992 -11.540  14.431  0.00  0.00    +0.008 A 
ATOM     25  C   UNL     1      -1.675 -10.378  15.462  0.00  0.00    +0.159 A 
ATOM     26  C   UNL     1      -3.124 -10.848  13.587  0.00  0.00    +0.041 A 
ATOM     27  C   UNL     1      -1.966 -10.267  14.103  0.00  0.00    +0.158 A 
ENDBRANCH  14  15
ENDBRANCH   7  14
TORSDOF 5
ENDMDL
MODEL 10
REMARK VINA RESULT:      -6.3     15.076     17.554
REMARK  Name = 51137134
REMARK  6 active torsions:
REMARK  status: ('A' for Active; 'I' for Inactive)
REMARK    1  A    between atoms: S_1  and  C_19
REMARK    2  A    between atoms: S_1  and  C_24
REMARK    3  A    between atoms: N_7  and  C_14
REMARK    4  A    between atoms: C_9  and  C_13
REMARK    5  A    between atoms: C_14  and  C_15
REMARK    6  A    between atoms: C_24  and  C_28
REMARK                            x       y       z     vdW  Elec       q    Type
REMARK                         _______ _______ _______ _____ _____    ______ ____
ROOT
ATOM      7  N   UNL     1     -12.873   7.952  20.494  0.00  0.00    -0.297 NA
ATOM      9  C   UNL     1     -14.879   6.893  21.087  0.00  0.00    +0.090 C 
ATOM     10  C   UNL     1     -14.731   8.200  21.885  0.00  0.00    +0.029 C 
ATOM     11  C   UNL     1     -13.476   6.618  20.529  0.00  0.00    +0.097 C 
ATOM     12  C   UNL     1     -13.261   8.575  21.759  0.00  0.00    +0.085 C 
ENDROOT
BRANCH   9  13
ATOM      4  O   UNL     1     -14.865   5.500  23.087  0.00  0.00    -0.439 OA
ATOM      8  N   UNL     1     -16.411   4.910  21.539  0.00  0.00    -0.213 NA
ATOM     13  C   UNL     1     -15.439   5.730  21.873  0.00  0.00    +0.201 A 
ATOM     16  C   UNL     1     -16.493   4.061  22.616  0.00  0.00    +0.111 A 
ATOM     17  C   UNL     1     -15.548   4.420  23.566  0.00  0.00    +0.155 A 
ATOM     18  C   UNL     1     -17.333   2.967  22.874  0.00  0.00    +0.058 A 
ATOM     19  C   UNL     1     -17.172   2.286  24.089  0.00  0.00    +0.090 A 
ATOM     22  C   UNL     1     -15.360   3.769  24.780  0.00  0.00    +0.050 A 
ATOM     23  C   UNL     1     -16.205   2.681  25.022  0.00  0.00    +0.030 A 
BRANCH  19   1
ATOM      1  S   UNL     1     -18.203   0.918  24.446  0.00  0.00    -0.003 S 
ATOM      5  O   UNL     1     -17.370  -0.197  24.874  0.00  0.00    -0.169 OA
ATOM      6  O   UNL     1     -19.284   1.386  25.299  0.00  0.00    -0.169 OA
BRANCH   1  24
ATOM     24  C   UNL     1     -18.899   0.472  22.872  0.00  0.00    +0.168 C 
ATOM     28  C   UNL     1     -19.179  -1.013  22.791  0.00  0.00    +0.028 C 
ENDBRANCH   1  24
ENDBRANCH  19   1
ENDBRANCH   9  13
BRANCH   7  14
ATOM     14  C   UNL     1     -11.428   7.903  20.320  0.00  0.00    +0.119 C 
BRANCH  14  15
ATOM      2  F   UNL     1     -10.298   8.300  15.588  0.00  0.00    -0.202 F 
ATOM      3  F   UNL     1      -9.747  10.962  15.895  0.00  0.00    -0.202 F 
ATOM     15  C   UNL     1     -10.979   8.721  19.138  0.00  0.00    -0.030 A 
ATOM     20  C   UNL     1     -10.844   8.121  17.886  0.00  0.00    +0.046 A 
ATOM     21  C   UNL     1     -10.699  10.078  19.294  0.00  0.00    +0.008 A 
ATOM     25  C   UNL     1     -10.428   8.877  16.790  0.00  0.00    +0.159 A 
ATOM     26  C   UNL     1     -10.283  10.835  18.199  0.00  0.00    +0.041 A 
ATOM     27  C   UNL     1     -10.147  10.235  16.947  0.00  0.00    +0.158 A 
ENDBRANCH  14  15
ENDBRANCH   7  14
TORSDOF 5
ENDMDL
