REMARK  Name = 44716362
REMARK  8 active torsions:
REMARK  status: ('A' for Active; 'I' for Inactive)
REMARK    1  A    between atoms: O_4  and  C_18
REMARK    2  A    between atoms: O_4  and  C_23
REMARK    3  A    between atoms: N_7  and  C_21
REMARK    4  A    between atoms: N_9  and  C_29
REMARK    5  A    between atoms: C_11  and  C_17
REMARK    6  A    between atoms: C_12  and  C_18
REMARK    7  A    between atoms: C_20  and  C_22
REMARK    8  A    between atoms: C_36  and  C_39
REMARK                            x       y       z     vdW  Elec       q    Type
REMARK                         _______ _______ _______ _____ _____    ______ ____
ROOT
ATOM      6  N   UNL     1       1.623   4.688  -0.461  0.00  0.00    -0.296 NA
ATOM     10  C   UNL     1       2.474   3.403   1.639  0.00  0.00    +0.002 C 
ATOM     11  C   UNL     1       3.389   3.114   0.416  0.00  0.00    +0.055 C 
ATOM     12  C   UNL     1       0.500   3.949   0.173  0.00  0.00    +0.095 C 
ATOM     13  C   UNL     1       1.020   3.020   1.291  0.00  0.00    +0.026 C 
ATOM     14  C   UNL     1       2.499   4.931   1.862  0.00  0.00    +0.019 C 
ATOM     15  C   UNL     1       2.708   3.745  -0.832  0.00  0.00    +0.094 C 
ATOM     16  C   UNL     1       2.161   5.641   0.540  0.00  0.00    +0.085 C 
ENDROOT
BRANCH  11  17
ATOM      7  N   UNL     1       5.015   1.351  -0.412  0.00  0.00    -0.270 N 
ATOM      8  N   UNL     1       5.212   0.028  -0.541  0.00  0.00    -0.171 NA
ATOM     17  C   UNL     1       3.826   1.677   0.170  0.00  0.00    +0.044 A 
ATOM     19  C   UNL     1       3.201   0.484   0.441  0.00  0.00    +0.053 A 
ATOM     20  C   UNL     1       4.101  -0.497  -0.017  0.00  0.00    +0.093 A 
ATOM     21  C   UNL     1       6.031   2.264  -0.882  0.00  0.00    +0.172 C 
BRANCH  20  22
ATOM     22  C   UNL     1       3.918  -1.924   0.033  0.00  0.00    +0.003 A 
ATOM     24  C   UNL     1       2.634  -2.466  -0.035  0.00  0.00    +0.018 A 
ATOM     25  C   UNL     1       5.023  -2.763   0.149  0.00  0.00    +0.011 A 
ATOM     26  C   UNL     1       2.439  -3.856   0.013  0.00  0.00    -0.017 A 
ATOM     27  C   UNL     1       4.848  -4.146   0.197  0.00  0.00    +0.009 A 
ATOM     28  C   UNL     1       3.563  -4.708   0.130  0.00  0.00    -0.018 A 
ATOM     30  C   UNL     1       1.154  -4.418  -0.054  0.00  0.00    +0.008 A 
ATOM     31  C   UNL     1       3.368  -6.098   0.178  0.00  0.00    +0.008 A 
ATOM     34  C   UNL     1       0.979  -5.801  -0.005  0.00  0.00    +0.001 A 
ATOM     35  C   UNL     1       2.084  -6.640   0.110  0.00  0.00    +0.001 A 
ENDBRANCH  20  22
ENDBRANCH  11  17
BRANCH  12  18
ATOM     18  C   UNL     1      -0.348   3.190  -0.850  0.00  0.00    +0.252 C 
BRANCH  18   4
ATOM      4  O   UNL     1      -1.449   2.611  -0.176  0.00  0.00    -0.449 OA
BRANCH   4  23
ATOM      5  O   UNL     1      -2.192   1.727  -2.150  0.00  0.00    -0.226 OA
ATOM      9  N   UNL     1      -3.339   1.389  -0.137  0.00  0.00    -0.251 N 
ATOM     23  C   UNL     1      -2.331   1.882  -0.943  0.00  0.00    +0.405 C 
ATOM     40  H   UNL     1      -3.282   1.626   0.850  0.00  0.00    +0.158 HD
BRANCH   9  29
ATOM     29  C   UNL     1      -4.445   0.593  -0.515  0.00  0.00    +0.037 A 
ATOM     32  C   UNL     1      -5.372   0.185   0.444  0.00  0.00    +0.035 A 
ATOM     33  C   UNL     1      -4.609   0.217  -1.849  0.00  0.00    +0.023 A 
ATOM     36  C   UNL     1      -6.463  -0.599   0.070  0.00  0.00    +0.057 A 
ATOM     37  C   UNL     1      -5.700  -0.568  -2.222  0.00  0.00    +0.002 A 
ATOM     38  C   UNL     1      -6.627  -0.976  -1.263  0.00  0.00    +0.012 A 
BRANCH  36  39
ATOM      1  F   UNL     1      -8.456  -1.796   0.566  0.00  0.00    -0.166 F 
ATOM      2  F   UNL     1      -6.910  -1.793   2.095  0.00  0.00    -0.166 F 
ATOM      3  F   UNL     1      -8.076  -0.001   1.731  0.00  0.00    -0.166 F 
ATOM     39  C   UNL     1      -7.453  -1.037   1.095  0.00  0.00    +0.417 C 
ENDBRANCH  36  39
ENDBRANCH   9  29
ENDBRANCH   4  23
ENDBRANCH  18   4
ENDBRANCH  12  18
TORSDOF 7
