MODEL 1
REMARK VINA RESULT:      -6.7      0.000      0.000
REMARK  Name = 11882073
REMARK  10 active torsions:
REMARK  status: ('A' for Active; 'I' for Inactive)
REMARK    1  A    between atoms: O_6  and  C_35
REMARK    2  A    between atoms: O_6  and  C_38
REMARK    3  A    between atoms: N_8  and  C_14
REMARK    4  A    between atoms: N_9  and  C_20
REMARK    5  A    between atoms: N_10  and  C_27
REMARK    6  A    between atoms: C_15  and  C_18
REMARK    7  A    between atoms: C_19  and  C_22
REMARK    8  A    between atoms: C_20  and  C_23
REMARK    9  A    between atoms: C_20  and  C_24
REMARK   10  A    between atoms: C_23  and  C_26
REMARK                            x       y       z     vdW  Elec       q    Type
REMARK                         _______ _______ _______ _____ _____    ______ ____
ROOT
ATOM      3  O   UNL     1      -7.255 -11.877   8.337  0.00  0.00    -0.268 OA
ATOM      7  N   UNL     1      -5.729 -10.275   9.067  0.00  0.00    -0.283 N 
ATOM     14  C   UNL     1      -5.498  -9.034  11.074  0.00  0.00    +0.105 C 
ATOM     15  C   UNL     1      -6.493  -9.823  10.225  0.00  0.00    +0.182 C 
ATOM     16  C   UNL     1      -4.492  -8.509  10.048  0.00  0.00    +0.043 C 
ATOM     17  C   UNL     1      -4.424  -9.618   9.005  0.00  0.00    +0.111 C 
ATOM     19  C   UNL     1      -6.154 -11.333   8.275  0.00  0.00    +0.267 C 
ENDROOT
BRANCH  14   8
ATOM      4  O   UNL     1      -6.532  -9.813  13.630  0.00  0.00    -0.252 OA
ATOM      8  N   UNL     1      -4.850  -9.883  12.044  0.00  0.00    -0.294 N 
ATOM     10  N   UNL     1      -4.572 -11.050  14.002  0.00  0.00    -0.269 N 
ATOM     21  C   UNL     1      -5.427 -10.216  13.276  0.00  0.00    +0.304 C 
ATOM     39  H   UNL     1      -3.963 -10.312  11.798  0.00  0.00    +0.151 HD
ATOM     41  H   UNL     1      -3.687 -11.291  13.563  0.00  0.00    +0.156 HD
BRANCH  10  27
ATOM     27  C   UNL     1      -4.785 -11.604  15.285  0.00  0.00    +0.038 A 
ATOM     30  C   UNL     1      -4.880 -10.770  16.399  0.00  0.00    +0.069 A 
ATOM     32  C   UNL     1      -4.900 -12.986  15.437  0.00  0.00    +0.023 A 
ATOM     35  C   UNL     1      -5.090 -11.318  17.664  0.00  0.00    +0.122 A 
ATOM     36  C   UNL     1      -5.111 -13.534  16.702  0.00  0.00    +0.005 A 
ATOM     37  C   UNL     1      -5.206 -12.700  17.816  0.00  0.00    +0.046 A 
BRANCH  35   6
ATOM      6  O   UNL     1      -5.184 -10.504  18.751  0.00  0.00    -0.495 OA
ATOM     38  C   UNL     1      -6.085 -10.900  19.785  0.00  0.00    +0.277 C 
ENDBRANCH  35   6
ENDBRANCH  10  27
ENDBRANCH  14   8
BRANCH  19  22
ATOM     11  N   UNL     1      -5.219 -11.269   6.068  0.00  0.00    -0.247 NA
ATOM     13  N   UNL     1      -3.465 -13.368   6.683  0.00  0.00    -0.259 NA
ATOM     22  C   UNL     1      -5.203 -11.851   7.283  0.00  0.00    +0.144 A 
ATOM     25  C   UNL     1      -4.341 -12.883   7.585  0.00  0.00    +0.143 A 
ATOM     29  C   UNL     1      -4.343 -11.753   5.166  0.00  0.00    +0.131 A 
ATOM     31  C   UNL     1      -3.481 -12.785   5.468  0.00  0.00    +0.130 A 
ENDBRANCH  19  22
BRANCH  15  18
ATOM      2  O   UNL     1      -8.581  -8.673  10.361  0.00  0.00    -0.274 OA
ATOM      9  N   UNL     1      -7.342  -8.530   8.396  0.00  0.00    -0.302 N 
ATOM     18  C   UNL     1      -7.587  -8.946   9.693  0.00  0.00    +0.236 C 
ATOM     40  H   UNL     1      -6.522  -8.887   7.913  0.00  0.00    +0.150 HD
BRANCH   9  20
ATOM     20  C   UNL     1      -8.253  -7.695   7.647  0.00  0.00    +0.163 C 
BRANCH  20  24
ATOM      5  O   UNL     1      -8.603  -7.431   5.257  0.00  0.00    -0.274 OA
ATOM     12  N   UNL     1      -6.749  -8.580   5.975  0.00  0.00    -0.328 N 
ATOM     24  C   UNL     1      -7.924  -7.885   6.174  0.00  0.00    +0.231 C 
ATOM     42  H   UNL     1      -6.405  -8.762   5.038  0.00  0.00    +0.145 HD
ATOM     43  H   UNL     1      -6.194  -8.947   6.742  0.00  0.00    +0.145 HD
ENDBRANCH  20  24
BRANCH  20  23
ATOM     23  C   UNL     1      -8.139  -6.216   8.035  0.00  0.00    +0.074 C 
BRANCH  23  26
ATOM      1  S   UNL     1     -10.889  -6.574   8.299  0.00  0.00    -0.102 S 
ATOM     26  C   UNL     1      -9.476  -5.612   8.394  0.00  0.00    -0.008 A 
ATOM     28  C   UNL     1      -9.752  -4.328   8.812  0.00  0.00    +0.011 A 
ATOM     33  C   UNL     1     -11.142  -4.134   9.057  0.00  0.00    +0.008 A 
ATOM     34  C   UNL     1     -11.875  -5.274   8.817  0.00  0.00    +0.045 A 
ENDBRANCH  23  26
ENDBRANCH  20  23
ENDBRANCH   9  20
ENDBRANCH  15  18
TORSDOF 9
ENDMDL
MODEL 2
REMARK VINA RESULT:      -6.6     28.549     31.074
REMARK  Name = 11882073
REMARK  10 active torsions:
REMARK  status: ('A' for Active; 'I' for Inactive)
REMARK    1  A    between atoms: O_6  and  C_35
REMARK    2  A    between atoms: O_6  and  C_38
REMARK    3  A    between atoms: N_8  and  C_14
REMARK    4  A    between atoms: N_9  and  C_20
REMARK    5  A    between atoms: N_10  and  C_27
REMARK    6  A    between atoms: C_15  and  C_18
REMARK    7  A    between atoms: C_19  and  C_22
REMARK    8  A    between atoms: C_20  and  C_23
REMARK    9  A    between atoms: C_20  and  C_24
REMARK   10  A    between atoms: C_23  and  C_26
REMARK                            x       y       z     vdW  Elec       q    Type
REMARK                         _______ _______ _______ _____ _____    ______ ____
ROOT
ATOM      3  O   UNL     1      16.752   9.873  22.268  0.00  0.00    -0.268 OA
ATOM      7  N   UNL     1      16.200   8.325  20.617  0.00  0.00    -0.283 N 
ATOM     14  C   UNL     1      14.477   8.213  18.993  0.00  0.00    +0.105 C 
ATOM     15  C   UNL     1      14.871   8.851  20.324  0.00  0.00    +0.182 C 
ATOM     16  C   UNL     1      15.250   6.893  18.988  0.00  0.00    +0.043 C 
ATOM     17  C   UNL     1      16.546   7.228  19.715  0.00  0.00    +0.111 C 
ATOM     19  C   UNL     1      17.055   8.951  21.514  0.00  0.00    +0.267 C 
ENDROOT
BRANCH  14   8
ATOM      4  O   UNL     1      12.892  10.236  17.727  0.00  0.00    -0.252 OA
ATOM      8  N   UNL     1      14.868   9.044  17.879  0.00  0.00    -0.294 N 
ATOM     10  N   UNL     1      14.674  10.659  16.259  0.00  0.00    -0.269 N 
ATOM     21  C   UNL     1      14.029  10.014  17.317  0.00  0.00    +0.304 C 
ATOM     39  H   UNL     1      15.817   8.968  17.527  0.00  0.00    +0.151 HD
ATOM     41  H   UNL     1      15.620  10.353  16.046  0.00  0.00    +0.156 HD
BRANCH  10  27
ATOM     27  C   UNL     1      14.170  11.694  15.437  0.00  0.00    +0.038 A 
ATOM     30  C   UNL     1      13.492  11.382  14.259  0.00  0.00    +0.069 A 
ATOM     32  C   UNL     1      14.352  13.027  15.805  0.00  0.00    +0.023 A 
ATOM     35  C   UNL     1      12.995  12.404  13.450  0.00  0.00    +0.122 A 
ATOM     36  C   UNL     1      13.855  14.049  14.996  0.00  0.00    +0.005 A 
ATOM     37  C   UNL     1      13.177  13.737  13.818  0.00  0.00    +0.046 A 
BRANCH  35   6
ATOM      6  O   UNL     1      12.333  12.099  12.300  0.00  0.00    -0.495 OA
ATOM     38  C   UNL     1      11.785  13.188  11.558  0.00  0.00    +0.277 C 
ENDBRANCH  35   6
ENDBRANCH  10  27
ENDBRANCH  14   8
BRANCH  19  22
ATOM     11  N   UNL     1      19.399   9.358  21.214  0.00  0.00    -0.247 NA
ATOM     13  N   UNL     1      20.017   6.734  21.985  0.00  0.00    -0.259 NA
ATOM     22  C   UNL     1      18.444   8.473  21.561  0.00  0.00    +0.144 A 
ATOM     25  C   UNL     1      18.747   7.183  21.939  0.00  0.00    +0.143 A 
ATOM     29  C   UNL     1      20.669   8.909  21.260  0.00  0.00    +0.131 A 
ATOM     31  C   UNL     1      20.973   7.619  21.638  0.00  0.00    +0.130 A 
ENDBRANCH  19  22
BRANCH  15  18
ATOM      2  O   UNL     1      14.403   7.706  22.366  0.00  0.00    -0.274 OA
ATOM      9  N   UNL     1      12.675   8.825  21.279  0.00  0.00    -0.302 N 
ATOM     18  C   UNL     1      13.981   8.397  21.442  0.00  0.00    +0.236 C 
ATOM     40  H   UNL     1      12.424   9.324  20.431  0.00  0.00    +0.150 HD
BRANCH   9  20
ATOM     20  C   UNL     1      11.615   8.502  22.207  0.00  0.00    +0.163 C 
BRANCH  20  24
ATOM      5  O   UNL     1      11.339   6.536  20.806  0.00  0.00    -0.274 OA
ATOM     12  N   UNL     1       9.598   7.172  22.162  0.00  0.00    -0.328 N 
ATOM     24  C   UNL     1      10.861   7.314  21.628  0.00  0.00    +0.231 C 
ATOM     42  H   UNL     1       8.994   6.410  21.873  0.00  0.00    +0.145 HD
ATOM     43  H   UNL     1       9.216   7.821  22.844  0.00  0.00    +0.145 HD
ENDBRANCH  20  24
BRANCH  20  23
ATOM     23  C   UNL     1      10.662   9.681  22.435  0.00  0.00    +0.074 C 
BRANCH  23  26
ATOM      1  S   UNL     1      12.347  11.381  23.860  0.00  0.00    -0.102 S 
ATOM     26  C   UNL     1      11.388  11.004  22.492  0.00  0.00    -0.008 A 
ATOM     28  C   UNL     1      11.400  12.017  21.559  0.00  0.00    +0.011 A 
ATOM     33  C   UNL     1      12.206  13.116  21.972  0.00  0.00    +0.008 A 
ATOM     34  C   UNL     1      12.780  12.902  23.206  0.00  0.00    +0.045 A 
ENDBRANCH  23  26
ENDBRANCH  20  23
ENDBRANCH   9  20
ENDBRANCH  15  18
TORSDOF 9
ENDMDL
MODEL 3
REMARK VINA RESULT:      -6.4     31.431     34.243
REMARK  Name = 11882073
REMARK  10 active torsions:
REMARK  status: ('A' for Active; 'I' for Inactive)
REMARK    1  A    between atoms: O_6  and  C_35
REMARK    2  A    between atoms: O_6  and  C_38
REMARK    3  A    between atoms: N_8  and  C_14
REMARK    4  A    between atoms: N_9  and  C_20
REMARK    5  A    between atoms: N_10  and  C_27
REMARK    6  A    between atoms: C_15  and  C_18
REMARK    7  A    between atoms: C_19  and  C_22
REMARK    8  A    between atoms: C_20  and  C_23
REMARK    9  A    between atoms: C_20  and  C_24
REMARK   10  A    between atoms: C_23  and  C_26
REMARK                            x       y       z     vdW  Elec       q    Type
REMARK                         _______ _______ _______ _____ _____    ______ ____
ROOT
ATOM      3  O   UNL     1      21.262   5.852  24.566  0.00  0.00    -0.268 OA
ATOM      7  N   UNL     1      20.296   7.514  23.249  0.00  0.00    -0.283 N 
ATOM     14  C   UNL     1      18.811   7.479  21.402  0.00  0.00    +0.105 C 
ATOM     15  C   UNL     1      19.815   6.636  22.188  0.00  0.00    +0.182 C 
ATOM     16  C   UNL     1      19.304   8.911  21.614  0.00  0.00    +0.043 C 
ATOM     17  C   UNL     1      19.869   8.895  23.029  0.00  0.00    +0.111 C 
ATOM     19  C   UNL     1      20.907   7.016  24.393  0.00  0.00    +0.267 C 
ENDROOT
BRANCH  14   8
ATOM      4  O   UNL     1      16.367   8.188  20.086  0.00  0.00    -0.252 OA
ATOM      8  N   UNL     1      17.473   7.311  21.917  0.00  0.00    -0.294 N 
ATOM     10  N   UNL     1      15.179   7.405  21.952  0.00  0.00    -0.269 N 
ATOM     21  C   UNL     1      16.327   7.687  21.206  0.00  0.00    +0.304 C 
ATOM     39  H   UNL     1      17.352   6.841  22.809  0.00  0.00    +0.151 HD
ATOM     41  H   UNL     1      15.321   6.988  22.868  0.00  0.00    +0.156 HD
BRANCH  10  27
ATOM     27  C   UNL     1      13.831   7.633  21.589  0.00  0.00    +0.038 A 
ATOM     30  C   UNL     1      13.183   8.796  22.005  0.00  0.00    +0.069 A 
ATOM     32  C   UNL     1      13.150   6.693  20.816  0.00  0.00    +0.023 A 
ATOM     35  C   UNL     1      11.854   9.019  21.646  0.00  0.00    +0.122 A 
ATOM     36  C   UNL     1      11.821   6.917  20.456  0.00  0.00    +0.005 A 
ATOM     37  C   UNL     1      11.173   8.080  20.873  0.00  0.00    +0.046 A 
BRANCH  35   6
ATOM      6  O   UNL     1      11.222  10.154  22.051  0.00  0.00    -0.495 OA
ATOM     38  C   UNL     1      11.675  10.754  23.263  0.00  0.00    +0.277 C 
ENDBRANCH  35   6
ENDBRANCH  10  27
ENDBRANCH  14   8
BRANCH  19  22
ATOM     11  N   UNL     1      22.268   8.699  25.425  0.00  0.00    -0.247 NA
ATOM     13  N   UNL     1      20.458   8.944  27.553  0.00  0.00    -0.259 NA
ATOM     22  C   UNL     1      21.142   7.962  25.493  0.00  0.00    +0.144 A 
ATOM     25  C   UNL     1      20.252   8.082  26.538  0.00  0.00    +0.143 A 
ATOM     29  C   UNL     1      22.473   9.561  26.440  0.00  0.00    +0.131 A 
ATOM     31  C   UNL     1      21.584   9.682  27.486  0.00  0.00    +0.130 A 
ENDBRANCH  19  22
BRANCH  15  18
ATOM      2  O   UNL     1      21.364   6.969  20.403  0.00  0.00    -0.274 OA
ATOM      9  N   UNL     1      21.618   5.112  21.784  0.00  0.00    -0.302 N 
ATOM     18  C   UNL     1      21.012   6.282  21.358  0.00  0.00    +0.236 C 
ATOM     40  H   UNL     1      21.188   4.584  22.538  0.00  0.00    +0.150 HD
BRANCH   9  20
ATOM     20  C   UNL     1      22.777   4.541  21.138  0.00  0.00    +0.163 C 
BRANCH  20  24
ATOM      5  O   UNL     1      22.664   2.612  22.612  0.00  0.00    -0.274 OA
ATOM     12  N   UNL     1      22.908   2.258  20.356  0.00  0.00    -0.328 N 
ATOM     24  C   UNL     1      22.790   3.057  21.474  0.00  0.00    +0.231 C 
ATOM     42  H   UNL     1      22.913   1.247  20.438  0.00  0.00    +0.145 HD
ATOM     43  H   UNL     1      23.008   2.639  19.419  0.00  0.00    +0.145 HD
ENDBRANCH  20  24
BRANCH  20  23
ATOM     23  C   UNL     1      24.083   5.204  21.594  0.00  0.00    +0.074 C 
BRANCH  23  26
ATOM      1  S   UNL     1      25.438   7.049  20.007  0.00  0.00    -0.102 S 
ATOM     26  C   UNL     1      25.037   5.443  20.447  0.00  0.00    -0.008 A 
ATOM     28  C   UNL     1      25.672   4.515  19.652  0.00  0.00    +0.011 A 
ATOM     33  C   UNL     1      26.499   5.130  18.669  0.00  0.00    +0.008 A 
ATOM     34  C   UNL     1      26.465   6.504  18.749  0.00  0.00    +0.045 A 
ENDBRANCH  23  26
ENDBRANCH  20  23
ENDBRANCH   9  20
ENDBRANCH  15  18
TORSDOF 9
ENDMDL
MODEL 4
REMARK VINA RESULT:      -6.3     31.510     34.586
REMARK  Name = 11882073
REMARK  10 active torsions:
REMARK  status: ('A' for Active; 'I' for Inactive)
REMARK    1  A    between atoms: O_6  and  C_35
REMARK    2  A    between atoms: O_6  and  C_38
REMARK    3  A    between atoms: N_8  and  C_14
REMARK    4  A    between atoms: N_9  and  C_20
REMARK    5  A    between atoms: N_10  and  C_27
REMARK    6  A    between atoms: C_15  and  C_18
REMARK    7  A    between atoms: C_19  and  C_22
REMARK    8  A    between atoms: C_20  and  C_23
REMARK    9  A    between atoms: C_20  and  C_24
REMARK   10  A    between atoms: C_23  and  C_26
REMARK                            x       y       z     vdW  Elec       q    Type
REMARK                         _______ _______ _______ _____ _____    ______ ____
ROOT
ATOM      3  O   UNL     1      20.604   6.208  25.917  0.00  0.00    -0.268 OA
ATOM      7  N   UNL     1      20.585   8.058  24.501  0.00  0.00    -0.283 N 
ATOM     14  C   UNL     1      19.815   8.413  22.287  0.00  0.00    +0.105 C 
ATOM     15  C   UNL     1      20.255   7.335  23.277  0.00  0.00    +0.182 C 
ATOM     16  C   UNL     1      20.574   9.656  22.753  0.00  0.00    +0.043 C 
ATOM     17  C   UNL     1      20.631   9.500  24.268  0.00  0.00    +0.111 C 
ATOM     19  C   UNL     1      20.643   7.423  25.734  0.00  0.00    +0.267 C 
ENDROOT
BRANCH  14   8
ATOM      4  O   UNL     1      17.853   7.388  20.469  0.00  0.00    -0.252 OA
ATOM      8  N   UNL     1      18.388   8.626  22.347  0.00  0.00    -0.294 N 
ATOM     10  N   UNL     1      16.184   8.459  21.725  0.00  0.00    -0.269 N 
ATOM     21  C   UNL     1      17.495   8.086  21.414  0.00  0.00    +0.304 C 
ATOM     39  H   UNL     1      18.007   9.136  23.137  0.00  0.00    +0.151 HD
ATOM     41  H   UNL     1      16.059   9.045  22.546  0.00  0.00    +0.156 HD
BRANCH  10  27
ATOM     27  C   UNL     1      14.999   8.121  21.033  0.00  0.00    +0.038 A 
ATOM     30  C   UNL     1      13.971   7.449  21.695  0.00  0.00    +0.069 A 
ATOM     32  C   UNL     1      14.857   8.460  19.687  0.00  0.00    +0.023 A 
ATOM     35  C   UNL     1      12.802   7.116  21.010  0.00  0.00    +0.122 A 
ATOM     36  C   UNL     1      13.688   8.127  19.003  0.00  0.00    +0.005 A 
ATOM     37  C   UNL     1      12.661   7.454  19.665  0.00  0.00    +0.046 A 
BRANCH  35   6
ATOM      6  O   UNL     1      11.799   6.461  21.656  0.00  0.00    -0.495 OA
ATOM     38  C   UNL     1      10.565   7.159  21.819  0.00  0.00    +0.277 C 
ENDBRANCH  35   6
ENDBRANCH  10  27
ENDBRANCH  14   8
BRANCH  19  22
ATOM     11  N   UNL     1      22.001   8.591  27.328  0.00  0.00    -0.247 NA
ATOM     13  N   UNL     1      19.726   9.517  28.680  0.00  0.00    -0.259 NA
ATOM     22  C   UNL     1      20.755   8.278  26.924  0.00  0.00    +0.144 A 
ATOM     25  C   UNL     1      19.636   8.733  27.588  0.00  0.00    +0.143 A 
ATOM     29  C   UNL     1      22.091   9.375  28.421  0.00  0.00    +0.131 A 
ATOM     31  C   UNL     1      20.973   9.831  29.085  0.00  0.00    +0.130 A 
ENDBRANCH  19  22
BRANCH  15  18
ATOM      2  O   UNL     1      22.497   7.293  22.460  0.00  0.00    -0.274 OA
ATOM      9  N   UNL     1      21.412   5.276  22.879  0.00  0.00    -0.302 N 
ATOM     18  C   UNL     1      21.516   6.656  22.834  0.00  0.00    +0.236 C 
ATOM     40  H   UNL     1      20.520   4.859  23.129  0.00  0.00    +0.150 HD
BRANCH   9  20
ATOM     20  C   UNL     1      22.482   4.390  22.482  0.00  0.00    +0.163 C 
BRANCH  20  24
ATOM      5  O   UNL     1      21.131   3.215  20.837  0.00  0.00    -0.274 OA
ATOM     12  N   UNL     1      23.053   4.259  20.137  0.00  0.00    -0.328 N 
ATOM     24  C   UNL     1      22.138   3.871  21.093  0.00  0.00    +0.231 C 
ATOM     42  H   UNL     1      22.934   3.993  19.165  0.00  0.00    +0.145 HD
ATOM     43  H   UNL     1      23.880   4.805  20.361  0.00  0.00    +0.145 HD
ENDBRANCH  20  24
BRANCH  20  23
ATOM     23  C   UNL     1      22.663   3.222  23.458  0.00  0.00    +0.074 C 
BRANCH  23  26
ATOM      1  S   UNL     1      25.406   2.990  23.883  0.00  0.00    -0.102 S 
ATOM     26  C   UNL     1      23.933   2.447  23.198  0.00  0.00    -0.008 A 
ATOM     28  C   UNL     1      24.102   1.303  22.450  0.00  0.00    +0.011 A 
ATOM     33  C   UNL     1      25.458   0.866  22.439  0.00  0.00    +0.008 A 
ATOM     34  C   UNL     1      26.274   1.693  23.178  0.00  0.00    +0.045 A 
ENDBRANCH  23  26
ENDBRANCH  20  23
ENDBRANCH   9  20
ENDBRANCH  15  18
TORSDOF 9
ENDMDL
MODEL 5
REMARK VINA RESULT:      -6.3      3.737      6.667
REMARK  Name = 11882073
REMARK  10 active torsions:
REMARK  status: ('A' for Active; 'I' for Inactive)
REMARK    1  A    between atoms: O_6  and  C_35
REMARK    2  A    between atoms: O_6  and  C_38
REMARK    3  A    between atoms: N_8  and  C_14
REMARK    4  A    between atoms: N_9  and  C_20
REMARK    5  A    between atoms: N_10  and  C_27
REMARK    6  A    between atoms: C_15  and  C_18
REMARK    7  A    between atoms: C_19  and  C_22
REMARK    8  A    between atoms: C_20  and  C_23
REMARK    9  A    between atoms: C_20  and  C_24
REMARK   10  A    between atoms: C_23  and  C_26
REMARK                            x       y       z     vdW  Elec       q    Type
REMARK                         _______ _______ _______ _____ _____    ______ ____
ROOT
ATOM      3  O   UNL     1      -4.157 -14.089  12.445  0.00  0.00    -0.268 OA
ATOM      7  N   UNL     1      -2.935 -12.509  13.644  0.00  0.00    -0.283 N 
ATOM     14  C   UNL     1      -3.394 -10.303  14.381  0.00  0.00    +0.105 C 
ATOM     15  C   UNL     1      -3.805 -11.371  13.368  0.00  0.00    +0.182 C 
ATOM     16  C   UNL     1      -1.924 -10.623  14.659  0.00  0.00    +0.043 C 
ATOM     17  C   UNL     1      -1.858 -12.142  14.563  0.00  0.00    +0.111 C 
ATOM     19  C   UNL     1      -3.249 -13.793  13.219  0.00  0.00    +0.267 C 
ENDROOT
BRANCH  14   8
ATOM      4  O   UNL     1      -6.206  -9.819  14.635  0.00  0.00    -0.252 OA
ATOM      8  N   UNL     1      -4.180 -10.397  15.588  0.00  0.00    -0.294 N 
ATOM     10  N   UNL     1      -6.045 -10.313  16.924  0.00  0.00    -0.269 N 
ATOM     21  C   UNL     1      -5.556 -10.143  15.626  0.00  0.00    +0.304 C 
ATOM     39  H   UNL     1      -3.729 -10.726  16.436  0.00  0.00    +0.151 HD
ATOM     41  H   UNL     1      -5.371 -10.583  17.634  0.00  0.00    +0.156 HD
BRANCH  10  27
ATOM     27  C   UNL     1      -7.375 -10.151  17.378  0.00  0.00    +0.038 A 
ATOM     30  C   UNL     1      -8.071  -8.976  17.095  0.00  0.00    +0.069 A 
ATOM     32  C   UNL     1      -7.990 -11.168  18.108  0.00  0.00    +0.023 A 
ATOM     35  C   UNL     1      -9.383  -8.818  17.544  0.00  0.00    +0.122 A 
ATOM     36  C   UNL     1      -9.302 -11.011  18.556  0.00  0.00    +0.005 A 
ATOM     37  C   UNL     1      -9.998  -9.835  18.274  0.00  0.00    +0.046 A 
BRANCH  35   6
ATOM      6  O   UNL     1     -10.063  -7.672  17.268  0.00  0.00    -0.495 OA
ATOM     38  C   UNL     1     -10.038  -7.211  15.918  0.00  0.00    +0.277 C 
ENDBRANCH  35   6
ENDBRANCH  10  27
ENDBRANCH  14   8
BRANCH  19  22
ATOM     11  N   UNL     1      -2.918 -15.553  14.813  0.00  0.00    -0.247 NA
ATOM     13  N   UNL     1      -0.460 -16.232  13.645  0.00  0.00    -0.259 NA
ATOM     22  C   UNL     1      -2.429 -14.893  13.745  0.00  0.00    +0.144 A 
ATOM     25  C   UNL     1      -1.222 -15.226  13.171  0.00  0.00    +0.143 A 
ATOM     29  C   UNL     1      -2.157 -16.559  15.287  0.00  0.00    +0.131 A 
ATOM     31  C   UNL     1      -0.949 -16.893  14.713  0.00  0.00    +0.130 A 
ENDBRANCH  19  22
BRANCH  15  18
ATOM      2  O   UNL     1      -2.418 -10.483  11.640  0.00  0.00    -0.274 OA
ATOM      9  N   UNL     1      -4.598 -11.114  11.123  0.00  0.00    -0.302 N 
ATOM     18  C   UNL     1      -3.510 -10.945  11.961  0.00  0.00    +0.236 C 
ATOM     40  H   UNL     1      -5.478 -11.430  11.520  0.00  0.00    +0.150 HD
BRANCH   9  20
ATOM     20  C   UNL     1      -4.580 -10.757   9.723  0.00  0.00    +0.163 C 
BRANCH  20  24
ATOM      5  O   UNL     1      -5.958  -8.850  10.333  0.00  0.00    -0.274 OA
ATOM     12  N   UNL     1      -4.388  -8.587   8.678  0.00  0.00    -0.328 N 
ATOM     24  C   UNL     1      -5.074  -9.322   9.622  0.00  0.00    +0.231 C 
ATOM     42  H   UNL     1      -4.607  -7.609   8.520  0.00  0.00    +0.145 HD
ATOM     43  H   UNL     1      -3.656  -8.988   8.098  0.00  0.00    +0.145 HD
ENDBRANCH  20  24
BRANCH  20  23
ATOM     23  C   UNL     1      -5.458 -11.686   8.875  0.00  0.00    +0.074 C 
BRANCH  23  26
ATOM      1  S   UNL     1      -5.283 -11.161   6.144  0.00  0.00    -0.102 S 
ATOM     26  C   UNL     1      -4.821 -12.026   7.549  0.00  0.00    -0.008 A 
ATOM     28  C   UNL     1      -3.867 -12.982   7.275  0.00  0.00    +0.011 A 
ATOM     33  C   UNL     1      -3.512 -13.004   5.896  0.00  0.00    +0.008 A 
ATOM     34  C   UNL     1      -4.207 -12.066   5.167  0.00  0.00    +0.045 A 
ENDBRANCH  23  26
ENDBRANCH  20  23
ENDBRANCH   9  20
ENDBRANCH  15  18
TORSDOF 9
ENDMDL
MODEL 6
REMARK VINA RESULT:      -6.2     26.928     28.877
REMARK  Name = 11882073
REMARK  10 active torsions:
REMARK  status: ('A' for Active; 'I' for Inactive)
REMARK    1  A    between atoms: O_6  and  C_35
REMARK    2  A    between atoms: O_6  and  C_38
REMARK    3  A    between atoms: N_8  and  C_14
REMARK    4  A    between atoms: N_9  and  C_20
REMARK    5  A    between atoms: N_10  and  C_27
REMARK    6  A    between atoms: C_15  and  C_18
REMARK    7  A    between atoms: C_19  and  C_22
REMARK    8  A    between atoms: C_20  and  C_23
REMARK    9  A    between atoms: C_20  and  C_24
REMARK   10  A    between atoms: C_23  and  C_26
REMARK                            x       y       z     vdW  Elec       q    Type
REMARK                         _______ _______ _______ _____ _____    ______ ____
ROOT
ATOM      3  O   UNL     1      13.042   4.688   2.445  0.00  0.00    -0.268 OA
ATOM      7  N   UNL     1      13.925   6.768   1.878  0.00  0.00    -0.283 N 
ATOM     14  C   UNL     1      15.384   8.279   2.977  0.00  0.00    +0.105 C 
ATOM     15  C   UNL     1      14.424   7.112   3.204  0.00  0.00    +0.182 C 
ATOM     16  C   UNL     1      14.840   8.947   1.713  0.00  0.00    +0.043 C 
ATOM     17  C   UNL     1      14.296   7.783   0.893  0.00  0.00    +0.111 C 
ATOM     19  C   UNL     1      13.350   5.534   1.607  0.00  0.00    +0.267 C 
ENDROOT
BRANCH  14   8
ATOM      4  O   UNL     1      17.714   9.084   4.437  0.00  0.00    -0.252 OA
ATOM      8  N   UNL     1      16.735   7.811   2.773  0.00  0.00    -0.294 N 
ATOM     10  N   UNL     1      18.999   7.633   3.113  0.00  0.00    -0.269 N 
ATOM     21  C   UNL     1      17.822   8.258   3.534  0.00  0.00    +0.304 C 
ATOM     39  H   UNL     1      16.896   7.077   2.090  0.00  0.00    +0.151 HD
ATOM     41  H   UNL     1      18.915   6.971   2.346  0.00  0.00    +0.156 HD
BRANCH  10  27
ATOM     27  C   UNL     1      20.305   7.810   3.624  0.00  0.00    +0.038 A 
ATOM     30  C   UNL     1      21.225   8.597   2.931  0.00  0.00    +0.069 A 
ATOM     32  C   UNL     1      20.674   7.196   4.821  0.00  0.00    +0.023 A 
ATOM     35  C   UNL     1      22.514   8.771   3.436  0.00  0.00    +0.122 A 
ATOM     36  C   UNL     1      21.963   7.370   5.326  0.00  0.00    +0.005 A 
ATOM     37  C   UNL     1      22.883   8.157   4.633  0.00  0.00    +0.046 A 
BRANCH  35   6
ATOM      6  O   UNL     1      23.411   9.540   2.761  0.00  0.00    -0.495 OA
ATOM     38  C   UNL     1      24.344  10.287   3.541  0.00  0.00    +0.277 C 
ENDBRANCH  35   6
ENDBRANCH  10  27
ENDBRANCH  14   8
BRANCH  19  22
ATOM     11  N   UNL     1      11.926   5.636  -0.319  0.00  0.00    -0.247 NA
ATOM     13  N   UNL     1      13.783   4.193  -1.845  0.00  0.00    -0.259 NA
ATOM     22  C   UNL     1      13.094   5.208   0.197  0.00  0.00    +0.144 A 
ATOM     25  C   UNL     1      14.007   4.499  -0.552  0.00  0.00    +0.143 A 
ATOM     29  C   UNL     1      11.702   5.330  -1.612  0.00  0.00    +0.131 A 
ATOM     31  C   UNL     1      12.614   4.621  -2.363  0.00  0.00    +0.130 A 
ENDBRANCH  19  22
BRANCH  15  18
ATOM      2  O   UNL     1      12.652   8.590   3.814  0.00  0.00    -0.274 OA
ATOM      9  N   UNL     1      12.905   6.593   4.982  0.00  0.00    -0.302 N 
ATOM     18  C   UNL     1      13.230   7.525   4.012  0.00  0.00    +0.236 C 
ATOM     40  H   UNL     1      13.507   5.784   5.106  0.00  0.00    +0.150 HD
BRANCH   9  20
ATOM     20  C   UNL     1      11.808   6.764   5.907  0.00  0.00    +0.163 C 
BRANCH  20  24
ATOM      5  O   UNL     1      11.530   5.849   8.141  0.00  0.00    -0.274 OA
ATOM     12  N   UNL     1      13.658   6.253   7.377  0.00  0.00    -0.328 N 
ATOM     24  C   UNL     1      12.283   6.256   7.261  0.00  0.00    +0.231 C 
ATOM     42  H   UNL     1      14.107   5.923   8.225  0.00  0.00    +0.145 HD
ATOM     43  H   UNL     1      14.270   6.590   6.640  0.00  0.00    +0.145 HD
ENDBRANCH  20  24
BRANCH  20  23
ATOM     23  C   UNL     1      10.550   6.008   5.464  0.00  0.00    +0.074 C 
BRANCH  23  26
ATOM      1  S   UNL     1       9.630   6.951   3.010  0.00  0.00    -0.102 S 
ATOM     26  C   UNL     1       9.579   6.895   4.721  0.00  0.00    -0.008 A 
ATOM     28  C   UNL     1       8.600   7.717   5.235  0.00  0.00    +0.011 A 
ATOM     33  C   UNL     1       7.883   8.400   4.212  0.00  0.00    +0.008 A 
ATOM     34  C   UNL     1       8.340   8.076   2.954  0.00  0.00    +0.045 A 
ENDBRANCH  23  26
ENDBRANCH  20  23
ENDBRANCH   9  20
ENDBRANCH  15  18
TORSDOF 9
ENDMDL
MODEL 7
REMARK VINA RESULT:      -6.2      5.201     10.568
REMARK  Name = 11882073
REMARK  10 active torsions:
REMARK  status: ('A' for Active; 'I' for Inactive)
REMARK    1  A    between atoms: O_6  and  C_35
REMARK    2  A    between atoms: O_6  and  C_38
REMARK    3  A    between atoms: N_8  and  C_14
REMARK    4  A    between atoms: N_9  and  C_20
REMARK    5  A    between atoms: N_10  and  C_27
REMARK    6  A    between atoms: C_15  and  C_18
REMARK    7  A    between atoms: C_19  and  C_22
REMARK    8  A    between atoms: C_20  and  C_23
REMARK    9  A    between atoms: C_20  and  C_24
REMARK   10  A    between atoms: C_23  and  C_26
REMARK                            x       y       z     vdW  Elec       q    Type
REMARK                         _______ _______ _______ _____ _____    ______ ____
ROOT
ATOM      3  O   UNL     1     -12.095 -10.852  14.765  0.00  0.00    -0.268 OA
ATOM      7  N   UNL     1     -10.462  -9.686  15.948  0.00  0.00    -0.283 N 
ATOM     14  C   UNL     1      -8.114  -9.929  16.164  0.00  0.00    +0.105 C 
ATOM     15  C   UNL     1      -9.397 -10.669  15.787  0.00  0.00    +0.182 C 
ATOM     16  C   UNL     1      -8.594  -8.862  17.149  0.00  0.00    +0.043 C 
ATOM     17  C   UNL     1      -9.979  -8.488  16.633  0.00  0.00    +0.111 C 
ATOM     19  C   UNL     1     -11.700  -9.839  15.338  0.00  0.00    +0.267 C 
ENDROOT
BRANCH  14   8
ATOM      4  O   UNL     1      -6.506 -11.246  14.192  0.00  0.00    -0.252 OA
ATOM      8  N   UNL     1      -7.501  -9.324  15.006  0.00  0.00    -0.294 N 
ATOM     10  N   UNL     1      -6.267  -9.196  13.074  0.00  0.00    -0.269 N 
ATOM     21  C   UNL     1      -6.726 -10.042  14.087  0.00  0.00    +0.304 C 
ATOM     39  H   UNL     1      -7.692  -8.345  14.811  0.00  0.00    +0.151 HD
ATOM     41  H   UNL     1      -6.540  -8.219  13.136  0.00  0.00    +0.156 HD
BRANCH  10  27
ATOM     27  C   UNL     1      -5.459  -9.532  11.963  0.00  0.00    +0.038 A 
ATOM     30  C   UNL     1      -5.900  -9.255  10.669  0.00  0.00    +0.069 A 
ATOM     32  C   UNL     1      -4.221 -10.142  12.162  0.00  0.00    +0.023 A 
ATOM     35  C   UNL     1      -5.102  -9.588   9.575  0.00  0.00    +0.122 A 
ATOM     36  C   UNL     1      -3.422 -10.474  11.067  0.00  0.00    +0.005 A 
ATOM     37  C   UNL     1      -3.864 -10.198   9.773  0.00  0.00    +0.046 A 
BRANCH  35   6
ATOM      6  O   UNL     1      -5.532  -9.316   8.312  0.00  0.00    -0.495 OA
ATOM     38  C   UNL     1      -5.298 -10.312   7.317  0.00  0.00    +0.277 C 
ENDBRANCH  35   6
ENDBRANCH  10  27
ENDBRANCH  14   8
BRANCH  19  22
ATOM     11  N   UNL     1     -13.528  -8.675  16.364  0.00  0.00    -0.247 NA
ATOM     13  N   UNL     1     -13.364  -6.617  14.466  0.00  0.00    -0.259 NA
ATOM     22  C   UNL     1     -12.613  -8.688  15.376  0.00  0.00    +0.144 A 
ATOM     25  C   UNL     1     -12.531  -7.677  14.443  0.00  0.00    +0.143 A 
ATOM     29  C   UNL     1     -14.360  -7.615  16.387  0.00  0.00    +0.131 A 
ATOM     31  C   UNL     1     -14.279  -6.604  15.455  0.00  0.00    +0.130 A 
ENDBRANCH  19  22
BRANCH  15  18
ATOM      2  O   UNL     1     -10.301 -12.792  16.400  0.00  0.00    -0.274 OA
ATOM      9  N   UNL     1      -9.246 -11.505  18.027  0.00  0.00    -0.302 N 
ATOM     18  C   UNL     1      -9.699 -11.780  16.748  0.00  0.00    +0.236 C 
ATOM     40  H   UNL     1      -8.832 -10.597  18.216  0.00  0.00    +0.150 HD
BRANCH   9  20
ATOM     20  C   UNL     1      -9.433 -12.404  19.142  0.00  0.00    +0.163 C 
BRANCH  20  24
ATOM      5  O   UNL     1     -11.305 -12.281  20.687  0.00  0.00    -0.274 OA
ATOM     12  N   UNL     1     -10.042 -10.395  20.340  0.00  0.00    -0.328 N 
ATOM     24  C   UNL     1     -10.375 -11.715  20.119  0.00  0.00    +0.231 C 
ATOM     42  H   UNL     1     -10.580  -9.824  20.982  0.00  0.00    +0.145 HD
ATOM     43  H   UNL     1      -9.267  -9.940  19.866  0.00  0.00    +0.145 HD
ENDBRANCH  20  24
BRANCH  20  23
ATOM     23  C   UNL     1      -8.110 -12.756  19.834  0.00  0.00    +0.074 C 
BRANCH  23  26
ATOM      1  S   UNL     1      -6.209 -12.924  17.805  0.00  0.00    -0.102 S 
ATOM     26  C   UNL     1      -6.919 -12.131  19.146  0.00  0.00    -0.008 A 
ATOM     28  C   UNL     1      -6.276 -10.951  19.448  0.00  0.00    +0.011 A 
ATOM     33  C   UNL     1      -5.186 -10.695  18.567  0.00  0.00    +0.008 A 
ATOM     34  C   UNL     1      -5.037 -11.689  17.625  0.00  0.00    +0.045 A 
ENDBRANCH  23  26
ENDBRANCH  20  23
ENDBRANCH   9  20
ENDBRANCH  15  18
TORSDOF 9
ENDMDL
MODEL 8
REMARK VINA RESULT:      -6.2      6.866     11.295
REMARK  Name = 11882073
REMARK  10 active torsions:
REMARK  status: ('A' for Active; 'I' for Inactive)
REMARK    1  A    between atoms: O_6  and  C_35
REMARK    2  A    between atoms: O_6  and  C_38
REMARK    3  A    between atoms: N_8  and  C_14
REMARK    4  A    between atoms: N_9  and  C_20
REMARK    5  A    between atoms: N_10  and  C_27
REMARK    6  A    between atoms: C_15  and  C_18
REMARK    7  A    between atoms: C_19  and  C_22
REMARK    8  A    between atoms: C_20  and  C_23
REMARK    9  A    between atoms: C_20  and  C_24
REMARK   10  A    between atoms: C_23  and  C_26
REMARK                            x       y       z     vdW  Elec       q    Type
REMARK                         _______ _______ _______ _____ _____    ______ ____
ROOT
ATOM      3  O   UNL     1      -7.878  -9.032  17.816  0.00  0.00    -0.268 OA
ATOM      7  N   UNL     1      -9.360 -10.819  17.617  0.00  0.00    -0.283 N 
ATOM     14  C   UNL     1      -9.729 -12.785  18.889  0.00  0.00    +0.105 C 
ATOM     15  C   UNL     1      -8.702 -11.697  18.578  0.00  0.00    +0.182 C 
ATOM     16  C   UNL     1     -10.572 -12.853  17.614  0.00  0.00    +0.043 C 
ATOM     17  C   UNL     1     -10.600 -11.413  17.119  0.00  0.00    +0.111 C 
ATOM     19  C   UNL     1      -8.923  -9.520  17.391  0.00  0.00    +0.267 C 
ENDROOT
BRANCH  14   8
ATOM      4  O   UNL     1     -11.207 -14.572  20.571  0.00  0.00    -0.252 OA
ATOM      8  N   UNL     1     -10.542 -12.426  20.027  0.00  0.00    -0.294 N 
ATOM     10  N   UNL     1     -11.932 -12.728  21.829  0.00  0.00    -0.269 N 
ATOM     21  C   UNL     1     -11.235 -13.366  20.799  0.00  0.00    +0.304 C 
ATOM     39  H   UNL     1     -10.561 -11.454  20.321  0.00  0.00    +0.151 HD
ATOM     41  H   UNL     1     -11.849 -11.716  21.878  0.00  0.00    +0.156 HD
BRANCH  10  27
ATOM     27  C   UNL     1     -12.747 -13.320  22.821  0.00  0.00    +0.038 A 
ATOM     30  C   UNL     1     -14.123 -13.092  22.821  0.00  0.00    +0.069 A 
ATOM     32  C   UNL     1     -12.175 -14.133  23.799  0.00  0.00    +0.023 A 
ATOM     35  C   UNL     1     -14.926 -13.677  23.800  0.00  0.00    +0.122 A 
ATOM     36  C   UNL     1     -12.978 -14.719  24.778  0.00  0.00    +0.005 A 
ATOM     37  C   UNL     1     -14.354 -14.490  24.778  0.00  0.00    +0.046 A 
BRANCH  35   6
ATOM      6  O   UNL     1     -16.269 -13.455  23.801  0.00  0.00    -0.495 OA
ATOM     38  C   UNL     1     -16.818 -12.786  22.665  0.00  0.00    +0.277 C 
ENDBRANCH  35   6
ENDBRANCH  10  27
ENDBRANCH  14   8
BRANCH  19  22
ATOM     11  N   UNL     1     -10.436  -7.667  17.233  0.00  0.00    -0.247 NA
ATOM     13  N   UNL     1     -10.723  -8.057  14.471  0.00  0.00    -0.259 NA
ATOM     22  C   UNL     1      -9.790  -8.653  16.581  0.00  0.00    +0.144 A 
ATOM     25  C   UNL     1      -9.930  -8.845  15.224  0.00  0.00    +0.143 A 
ATOM     29  C   UNL     1     -11.229  -6.879  16.480  0.00  0.00    +0.131 A 
ATOM     31  C   UNL     1     -11.370  -7.070  15.123  0.00  0.00    +0.130 A 
ENDBRANCH  19  22
BRANCH  15  18
ATOM      2  O   UNL     1      -7.535 -13.319  17.271  0.00  0.00    -0.274 OA
ATOM      9  N   UNL     1      -6.379 -11.453  18.046  0.00  0.00    -0.302 N 
ATOM     18  C   UNL     1      -7.496 -12.255  17.884  0.00  0.00    +0.236 C 
ATOM     40  H   UNL     1      -6.446 -10.635  18.644  0.00  0.00    +0.150 HD
BRANCH   9  20
ATOM     20  C   UNL     1      -5.084 -11.779  17.495  0.00  0.00    +0.163 C 
BRANCH  20  24
ATOM      5  O   UNL     1      -3.823 -12.226  19.523  0.00  0.00    -0.274 OA
ATOM     12  N   UNL     1      -4.458 -14.001  18.212  0.00  0.00    -0.328 N 
ATOM     24  C   UNL     1      -4.374 -12.658  18.514  0.00  0.00    +0.231 C 
ATOM     42  H   UNL     1      -4.039 -14.698  18.819  0.00  0.00    +0.145 HD
ATOM     43  H   UNL     1      -4.920 -14.346  17.375  0.00  0.00    +0.145 HD
ENDBRANCH  20  24
BRANCH  20  23
ATOM     23  C   UNL     1      -4.249 -10.530  17.192  0.00  0.00    +0.074 C 
BRANCH  23  26
ATOM      1  S   UNL     1      -1.832 -10.667  15.813  0.00  0.00    -0.102 S 
ATOM     26  C   UNL     1      -3.544 -10.619  15.859  0.00  0.00    -0.008 A 
ATOM     28  C   UNL     1      -4.096 -10.672  14.598  0.00  0.00    +0.011 A 
ATOM     33  C   UNL     1      -3.102 -10.752  13.582  0.00  0.00    +0.008 A 
ATOM     34  C   UNL     1      -1.827 -10.758  14.103  0.00  0.00    +0.045 A 
ENDBRANCH  23  26
ENDBRANCH  20  23
ENDBRANCH   9  20
ENDBRANCH  15  18
TORSDOF 9
ENDMDL
MODEL 9
REMARK VINA RESULT:      -6.0      2.803      8.374
REMARK  Name = 11882073
REMARK  10 active torsions:
REMARK  status: ('A' for Active; 'I' for Inactive)
REMARK    1  A    between atoms: O_6  and  C_35
REMARK    2  A    between atoms: O_6  and  C_38
REMARK    3  A    between atoms: N_8  and  C_14
REMARK    4  A    between atoms: N_9  and  C_20
REMARK    5  A    between atoms: N_10  and  C_27
REMARK    6  A    between atoms: C_15  and  C_18
REMARK    7  A    between atoms: C_19  and  C_22
REMARK    8  A    between atoms: C_20  and  C_23
REMARK    9  A    between atoms: C_20  and  C_24
REMARK   10  A    between atoms: C_23  and  C_26
REMARK                            x       y       z     vdW  Elec       q    Type
REMARK                         _______ _______ _______ _____ _____    ______ ____
ROOT
ATOM      3  O   UNL     1      -4.628  -8.160  10.157  0.00  0.00    -0.268 OA
ATOM      7  N   UNL     1      -5.208 -10.293   9.421  0.00  0.00    -0.283 N 
ATOM     14  C   UNL     1      -5.754 -11.198   7.299  0.00  0.00    +0.105 C 
ATOM     15  C   UNL     1      -5.681  -9.898   8.099  0.00  0.00    +0.182 C 
ATOM     16  C   UNL     1      -6.001 -12.262   8.369  0.00  0.00    +0.043 C 
ATOM     17  C   UNL     1      -5.229 -11.747   9.578  0.00  0.00    +0.111 C 
ATOM     19  C   UNL     1      -4.640  -9.381  10.300  0.00  0.00    +0.267 C 
ENDROOT
BRANCH  14   8
ATOM      4  O   UNL     1      -5.380 -12.946   5.060  0.00  0.00    -0.252 OA
ATOM      8  N   UNL     1      -4.518 -11.449   6.597  0.00  0.00    -0.294 N 
ATOM     10  N   UNL     1      -3.107 -12.363   5.033  0.00  0.00    -0.269 N 
ATOM     21  C   UNL     1      -4.421 -12.322   5.507  0.00  0.00    +0.304 C 
ATOM     39  H   UNL     1      -3.693 -10.919   6.863  0.00  0.00    +0.151 HD
ATOM     41  H   UNL     1      -2.428 -11.783   5.520  0.00  0.00    +0.156 HD
BRANCH  10  27
ATOM     27  C   UNL     1      -2.598 -13.119   3.952  0.00  0.00    +0.038 A 
ATOM     30  C   UNL     1      -2.766 -12.667   2.643  0.00  0.00    +0.069 A 
ATOM     32  C   UNL     1      -1.927 -14.318   4.195  0.00  0.00    +0.023 A 
ATOM     35  C   UNL     1      -2.264 -13.415   1.578  0.00  0.00    +0.122 A 
ATOM     36  C   UNL     1      -1.424 -15.065   3.130  0.00  0.00    +0.005 A 
ATOM     37  C   UNL     1      -1.593 -14.613   1.821  0.00  0.00    +0.046 A 
BRANCH  35   6
ATOM      6  O   UNL     1      -2.427 -12.973   0.301  0.00  0.00    -0.495 OA
ATOM     38  C   UNL     1      -3.291 -13.733  -0.543  0.00  0.00    +0.277 C 
ENDBRANCH  35   6
ENDBRANCH  10  27
ENDBRANCH  14   8
BRANCH  19  22
ATOM     11  N   UNL     1      -4.782 -10.132  12.573  0.00  0.00    -0.247 NA
ATOM     13  N   UNL     1      -2.035 -10.696  12.623  0.00  0.00    -0.259 NA
ATOM     22  C   UNL     1      -3.991  -9.923  11.502  0.00  0.00    +0.144 A 
ATOM     25  C   UNL     1      -2.642 -10.200  11.526  0.00  0.00    +0.143 A 
ATOM     29  C   UNL     1      -4.175 -10.628  13.669  0.00  0.00    +0.131 A 
ATOM     31  C   UNL     1      -2.826 -10.905  13.694  0.00  0.00    +0.130 A 
ENDBRANCH  19  22
BRANCH  15  18
ATOM      2  O   UNL     1      -7.734  -9.570   9.272  0.00  0.00    -0.274 OA
ATOM      9  N   UNL     1      -7.388  -8.437   7.268  0.00  0.00    -0.302 N 
ATOM     18  C   UNL     1      -7.038  -9.292   8.299  0.00  0.00    +0.236 C 
ATOM     40  H   UNL     1      -6.763  -8.347   6.472  0.00  0.00    +0.150 HD
BRANCH   9  20
ATOM     20  C   UNL     1      -8.655  -7.745   7.212  0.00  0.00    +0.163 C 
BRANCH  20  24
ATOM      5  O   UNL     1     -10.226  -7.921   5.366  0.00  0.00    -0.274 OA
ATOM     12  N   UNL     1      -8.047  -7.362   4.904  0.00  0.00    -0.328 N 
ATOM     24  C   UNL     1      -9.079  -7.709   5.750  0.00  0.00    +0.231 C 
ATOM     42  H   UNL     1      -8.198  -7.287   3.903  0.00  0.00    +0.145 HD
ATOM     43  H   UNL     1      -7.103  -7.186   5.235  0.00  0.00    +0.145 HD
ENDBRANCH  20  24
BRANCH  20  23
ATOM     23  C   UNL     1      -8.566  -6.322   7.777  0.00  0.00    +0.074 C 
BRANCH  23  26
ATOM      1  S   UNL     1     -10.165  -4.319   8.868  0.00  0.00    -0.102 S 
ATOM     26  C   UNL     1      -9.762  -5.966   8.628  0.00  0.00    -0.008 A 
ATOM     28  C   UNL     1     -10.631  -6.812   9.281  0.00  0.00    +0.011 A 
ATOM     33  C   UNL     1     -11.642  -6.098   9.987  0.00  0.00    +0.008 A 
ATOM     34  C   UNL     1     -11.506  -4.734   9.848  0.00  0.00    +0.045 A 
ENDBRANCH  23  26
ENDBRANCH  20  23
ENDBRANCH   9  20
ENDBRANCH  15  18
TORSDOF 9
ENDMDL
MODEL 10
REMARK VINA RESULT:      -5.9     32.099     34.492
REMARK  Name = 11882073
REMARK  10 active torsions:
REMARK  status: ('A' for Active; 'I' for Inactive)
REMARK    1  A    between atoms: O_6  and  C_35
REMARK    2  A    between atoms: O_6  and  C_38
REMARK    3  A    between atoms: N_8  and  C_14
REMARK    4  A    between atoms: N_9  and  C_20
REMARK    5  A    between atoms: N_10  and  C_27
REMARK    6  A    between atoms: C_15  and  C_18
REMARK    7  A    between atoms: C_19  and  C_22
REMARK    8  A    between atoms: C_20  and  C_23
REMARK    9  A    between atoms: C_20  and  C_24
REMARK   10  A    between atoms: C_23  and  C_26
REMARK                            x       y       z     vdW  Elec       q    Type
REMARK                         _______ _______ _______ _____ _____    ______ ____
ROOT
ATOM      3  O   UNL     1      22.678   5.922  20.366  0.00  0.00    -0.268 OA
ATOM      7  N   UNL     1      21.552   6.903  22.155  0.00  0.00    -0.283 N 
ATOM     14  C   UNL     1      19.722   8.401  22.309  0.00  0.00    +0.105 C 
ATOM     15  C   UNL     1      20.819   7.894  21.375  0.00  0.00    +0.182 C 
ATOM     16  C   UNL     1      20.322   8.206  23.702  0.00  0.00    +0.043 C 
ATOM     17  C   UNL     1      21.162   6.943  23.563  0.00  0.00    +0.111 C 
ATOM     19  C   UNL     1      22.357   5.944  21.553  0.00  0.00    +0.267 C 
ENDROOT
BRANCH  14   8
ATOM      4  O   UNL     1      17.260   9.295  21.149  0.00  0.00    -0.252 OA
ATOM      8  N   UNL     1      18.510   7.632  22.156  0.00  0.00    -0.294 N 
ATOM     10  N   UNL     1      16.339   7.176  21.563  0.00  0.00    -0.269 N 
ATOM     21  C   UNL     1      17.345   8.146  21.576  0.00  0.00    +0.304 C 
ATOM     39  H   UNL     1      18.521   6.652  22.423  0.00  0.00    +0.151 HD
ATOM     41  H   UNL     1      16.574   6.270  21.960  0.00  0.00    +0.156 HD
BRANCH  10  27
ATOM     27  C   UNL     1      15.022   7.299  21.065  0.00  0.00    +0.038 A 
ATOM     30  C   UNL     1      14.018   7.839  21.869  0.00  0.00    +0.069 A 
ATOM     32  C   UNL     1      14.725   6.879  19.768  0.00  0.00    +0.023 A 
ATOM     35  C   UNL     1      12.719   7.960  21.376  0.00  0.00    +0.122 A 
ATOM     36  C   UNL     1      13.426   7.000  19.274  0.00  0.00    +0.005 A 
ATOM     37  C   UNL     1      12.423   7.540  20.079  0.00  0.00    +0.046 A 
BRANCH  35   6
ATOM      6  O   UNL     1      11.740   8.488  22.161  0.00  0.00    -0.495 OA
ATOM     38  C   UNL     1      10.530   7.742  22.281  0.00  0.00    +0.277 C 
ENDBRANCH  35   6
ENDBRANCH  10  27
ENDBRANCH  14   8
BRANCH  19  22
ATOM     11  N   UNL     1      22.027   3.823  22.621  0.00  0.00    -0.247 NA
ATOM     13  N   UNL     1      24.595   3.920  23.743  0.00  0.00    -0.259 NA
ATOM     22  C   UNL     1      22.860   4.860  22.406  0.00  0.00    +0.144 A 
ATOM     25  C   UNL     1      24.123   4.908  22.957  0.00  0.00    +0.143 A 
ATOM     29  C   UNL     1      22.500   2.835  23.406  0.00  0.00    +0.131 A 
ATOM     31  C   UNL     1      23.762   2.882  23.957  0.00  0.00    +0.130 A 
ENDBRANCH  19  22
BRANCH  15  18
ATOM      2  O   UNL     1      21.912   9.989  21.720  0.00  0.00    -0.274 OA
ATOM      9  N   UNL     1      22.514   8.693  19.882  0.00  0.00    -0.302 N 
ATOM     18  C   UNL     1      21.802   8.975  21.035  0.00  0.00    +0.236 C 
ATOM     40  H   UNL     1      22.280   7.859  19.353  0.00  0.00    +0.150 HD
BRANCH   9  20
ATOM     20  C   UNL     1      23.507   9.585  19.328  0.00  0.00    +0.163 C 
BRANCH  20  24
ATOM      5  O   UNL     1      22.862  10.075  17.036  0.00  0.00    -0.274 OA
ATOM     12  N   UNL     1      22.113  11.461  18.708  0.00  0.00    -0.328 N 
ATOM     24  C   UNL     1      22.824  10.382  18.225  0.00  0.00    +0.231 C 
ATOM     42  H   UNL     1      21.598  12.067  18.079  0.00  0.00    +0.145 HD
ATOM     43  H   UNL     1      22.088  11.702  19.694  0.00  0.00    +0.145 HD
ENDBRANCH  20  24
BRANCH  20  23
ATOM     23  C   UNL     1      24.720   8.831  18.770  0.00  0.00    +0.074 C 
BRANCH  23  26
ATOM      1  S   UNL     1      26.146   6.595  19.622  0.00  0.00    -0.102 S 
ATOM     26  C   UNL     1      25.541   8.180  19.858  0.00  0.00    -0.008 A 
ATOM     28  C   UNL     1      25.901   8.693  21.085  0.00  0.00    +0.011 A 
ATOM     33  C   UNL     1      26.683   7.774  21.840  0.00  0.00    +0.008 A 
ATOM     34  C   UNL     1      26.891   6.592  21.164  0.00  0.00    +0.045 A 
ENDBRANCH  23  26
ENDBRANCH  20  23
ENDBRANCH   9  20
ENDBRANCH  15  18
TORSDOF 9
ENDMDL
