MODEL 1
REMARK VINA RESULT:      -6.7      0.000      0.000
REMARK  Name = 45784297
REMARK  5 active torsions:
REMARK  status: ('A' for Active; 'I' for Inactive)
REMARK    1  A    between atoms: O_1  and  C_19
REMARK    2  A    between atoms: O_1  and  C_23
REMARK    3  A    between atoms: N_2  and  C_11
REMARK    4  A    between atoms: C_6  and  C_10
REMARK    5  A    between atoms: C_11  and  C_12
REMARK                            x       y       z     vdW  Elec       q    Type
REMARK                         _______ _______ _______ _____ _____    ______ ____
ROOT
ATOM      2  N   UNL     1      21.259   4.949  21.110  0.00  0.00    -0.297 NA
ATOM      6  C   UNL     1      19.581   6.491  20.557  0.00  0.00    +0.070 C 
ATOM      7  C   UNL     1      20.248   6.908  21.880  0.00  0.00    +0.028 C 
ATOM      8  C   UNL     1      20.012   5.032  20.348  0.00  0.00    +0.096 C 
ATOM      9  C   UNL     1      20.988   5.665  22.356  0.00  0.00    +0.085 C 
ENDROOT
BRANCH   6  10
ATOM      3  N   UNL     1      17.388   7.093  21.617  0.00  0.00    -0.341 N 
ATOM      4  N   UNL     1      17.293   6.468  19.486  0.00  0.00    -0.232 NA
ATOM     10  C   UNL     1      18.082   6.674  20.516  0.00  0.00    +0.113 A 
ATOM     13  C   UNL     1      16.062   7.162  21.273  0.00  0.00    +0.070 A 
ATOM     14  C   UNL     1      16.029   6.767  19.938  0.00  0.00    +0.089 A 
ATOM     15  C   UNL     1      14.923   7.524  21.994  0.00  0.00    +0.073 A 
ATOM     16  C   UNL     1      14.796   6.726  19.266  0.00  0.00    +0.033 A 
ATOM     19  C   UNL     1      13.704   7.478  21.308  0.00  0.00    +0.122 A 
ATOM     20  C   UNL     1      13.639   7.086  19.970  0.00  0.00    +0.048 A 
ATOM     24  H   UNL     1      17.777   7.313  22.524  0.00  0.00    +0.167 HD
BRANCH  19   1
ATOM      1  O   UNL     1      12.557   7.822  21.963  0.00  0.00    -0.495 OA
ATOM     23  C   UNL     1      11.380   7.090  21.630  0.00  0.00    +0.277 C 
ENDBRANCH  19   1
ENDBRANCH   6  10
BRANCH   2  11
ATOM     11  C   UNL     1      21.677   3.574  21.341  0.00  0.00    +0.121 C 
BRANCH  11  12
ATOM      5  N   UNL     1      25.093   4.164  19.819  0.00  0.00    -0.263 NA
ATOM     12  C   UNL     1      23.107   3.345  20.929  0.00  0.00    -0.015 A 
ATOM     17  C   UNL     1      23.763   2.161  21.245  0.00  0.00    +0.008 A 
ATOM     18  C   UNL     1      23.809   4.306  20.220  0.00  0.00    +0.115 A 
ATOM     21  C   UNL     1      25.084   1.976  20.849  0.00  0.00    +0.020 A 
ATOM     22  C   UNL     1      25.697   2.999  20.144  0.00  0.00    +0.111 A 
ENDBRANCH  11  12
ENDBRANCH   2  11
TORSDOF 4
ENDMDL
MODEL 2
REMARK VINA RESULT:      -6.7      4.308     10.380
REMARK  Name = 45784297
REMARK  5 active torsions:
REMARK  status: ('A' for Active; 'I' for Inactive)
REMARK    1  A    between atoms: O_1  and  C_19
REMARK    2  A    between atoms: O_1  and  C_23
REMARK    3  A    between atoms: N_2  and  C_11
REMARK    4  A    between atoms: C_6  and  C_10
REMARK    5  A    between atoms: C_11  and  C_12
REMARK                            x       y       z     vdW  Elec       q    Type
REMARK                         _______ _______ _______ _____ _____    ______ ____
ROOT
ATOM      2  N   UNL     1      11.469   9.592  21.319  0.00  0.00    -0.297 NA
ATOM      6  C   UNL     1      13.300   9.099  19.939  0.00  0.00    +0.070 C 
ATOM      7  C   UNL     1      12.033   8.440  19.367  0.00  0.00    +0.028 C 
ATOM      8  C   UNL     1      12.927   9.472  21.381  0.00  0.00    +0.096 C 
ATOM      9  C   UNL     1      11.031   8.451  20.514  0.00  0.00    +0.085 C 
ENDROOT
BRANCH   6  10
ATOM      3  N   UNL     1      15.580   8.418  20.738  0.00  0.00    -0.341 N 
ATOM      4  N   UNL     1      14.800   7.308  18.977  0.00  0.00    -0.232 NA
ATOM     10  C   UNL     1      14.549   8.253  19.854  0.00  0.00    +0.113 A 
ATOM     13  C   UNL     1      16.561   7.517  20.408  0.00  0.00    +0.070 A 
ATOM     14  C   UNL     1      16.051   6.837  19.306  0.00  0.00    +0.089 A 
ATOM     15  C   UNL     1      17.813   7.250  20.963  0.00  0.00    +0.073 A 
ATOM     16  C   UNL     1      16.821   5.825  18.710  0.00  0.00    +0.033 A 
ATOM     19  C   UNL     1      18.566   6.239  20.356  0.00  0.00    +0.122 A 
ATOM     20  C   UNL     1      18.081   5.538  19.250  0.00  0.00    +0.048 A 
ATOM     24  H   UNL     1      15.616   9.083  21.499  0.00  0.00    +0.167 HD
BRANCH  19   1
ATOM      1  O   UNL     1      19.798   5.933  20.856  0.00  0.00    -0.495 OA
ATOM     23  C   UNL     1      20.100   6.411  22.165  0.00  0.00    +0.277 C 
ENDBRANCH  19   1
ENDBRANCH   6  10
BRANCH   2  11
ATOM     11  C   UNL     1      10.857   9.605  22.639  0.00  0.00    +0.121 C 
BRANCH  11  12
ATOM      5  N   UNL     1      11.067  12.296  25.294  0.00  0.00    -0.263 NA
ATOM     12  C   UNL     1      10.934  10.966  23.279  0.00  0.00    -0.015 A 
ATOM     17  C   UNL     1      10.941  12.122  22.507  0.00  0.00    +0.008 A 
ATOM     18  C   UNL     1      10.998  11.106  24.656  0.00  0.00    +0.115 A 
ATOM     21  C   UNL     1      11.011  13.365  23.126  0.00  0.00    +0.020 A 
ATOM     22  C   UNL     1      11.071  13.397  24.510  0.00  0.00    +0.111 A 
ENDBRANCH  11  12
ENDBRANCH   2  11
TORSDOF 4
ENDMDL
MODEL 3
REMARK VINA RESULT:      -6.5     28.035     29.887
REMARK  Name = 45784297
REMARK  5 active torsions:
REMARK  status: ('A' for Active; 'I' for Inactive)
REMARK    1  A    between atoms: O_1  and  C_19
REMARK    2  A    between atoms: O_1  and  C_23
REMARK    3  A    between atoms: N_2  and  C_11
REMARK    4  A    between atoms: C_6  and  C_10
REMARK    5  A    between atoms: C_11  and  C_12
REMARK                            x       y       z     vdW  Elec       q    Type
REMARK                         _______ _______ _______ _____ _____    ______ ____
ROOT
ATOM      2  N   UNL     1      -2.519 -11.314  12.793  0.00  0.00    -0.297 NA
ATOM      6  C   UNL     1      -2.911 -10.516  14.963  0.00  0.00    +0.070 C 
ATOM      7  C   UNL     1      -1.614 -11.344  14.945  0.00  0.00    +0.028 C 
ATOM      8  C   UNL     1      -3.623 -10.881  13.652  0.00  0.00    +0.096 C 
ATOM      9  C   UNL     1      -1.676 -12.145  13.651  0.00  0.00    +0.085 C 
ENDROOT
BRANCH   6  10
ATOM      3  N   UNL     1      -5.066 -10.259  16.224  0.00  0.00    -0.341 N 
ATOM      4  N   UNL     1      -3.441 -11.335  17.294  0.00  0.00    -0.232 NA
ATOM     10  C   UNL     1      -3.780 -10.723  16.182  0.00  0.00    +0.113 A 
ATOM     13  C   UNL     1      -5.591 -10.595  17.446  0.00  0.00    +0.070 A 
ATOM     14  C   UNL     1      -4.558 -11.266  18.095  0.00  0.00    +0.089 A 
ATOM     15  C   UNL     1      -6.843 -10.376  18.022  0.00  0.00    +0.073 A 
ATOM     16  C   UNL     1      -4.769 -11.754  19.396  0.00  0.00    +0.033 A 
ATOM     19  C   UNL     1      -7.035 -10.869  19.317  0.00  0.00    +0.122 A 
ATOM     20  C   UNL     1      -6.018 -11.545  19.993  0.00  0.00    +0.048 A 
ATOM     24  H   UNL     1      -5.547  -9.758  15.490  0.00  0.00    +0.167 HD
BRANCH  19   1
ATOM      1  O   UNL     1      -8.240 -10.684  19.929  0.00  0.00    -0.495 OA
ATOM     23  C   UNL     1      -9.406 -10.984  19.165  0.00  0.00    +0.277 C 
ENDBRANCH  19   1
ENDBRANCH   6  10
BRANCH   2  11
ATOM     11  C   UNL     1      -2.983 -12.028  11.613  0.00  0.00    +0.121 C 
BRANCH  11  12
ATOM      5  N   UNL     1      -5.248 -10.722   8.875  0.00  0.00    -0.263 NA
ATOM     12  C   UNL     1      -3.595 -11.098  10.598  0.00  0.00    -0.015 A 
ATOM     17  C   UNL     1      -3.112  -9.806  10.427  0.00  0.00    +0.008 A 
ATOM     18  C   UNL     1      -4.654 -11.505   9.804  0.00  0.00    +0.115 A 
ATOM     21  C   UNL     1      -3.696  -8.971   9.481  0.00  0.00    +0.020 A 
ATOM     22  C   UNL     1      -4.751  -9.472   8.737  0.00  0.00    +0.111 A 
ENDBRANCH  11  12
ENDBRANCH   2  11
TORSDOF 4
ENDMDL
MODEL 4
REMARK VINA RESULT:      -6.4     14.268     15.693
REMARK  Name = 45784297
REMARK  5 active torsions:
REMARK  status: ('A' for Active; 'I' for Inactive)
REMARK    1  A    between atoms: O_1  and  C_19
REMARK    2  A    between atoms: O_1  and  C_23
REMARK    3  A    between atoms: N_2  and  C_11
REMARK    4  A    between atoms: C_6  and  C_10
REMARK    5  A    between atoms: C_11  and  C_12
REMARK                            x       y       z     vdW  Elec       q    Type
REMARK                         _______ _______ _______ _____ _____    ______ ____
ROOT
ATOM      2  N   UNL     1      16.244   8.626   5.045  0.00  0.00    -0.297 NA
ATOM      6  C   UNL     1      14.176   7.520   5.020  0.00  0.00    +0.070 C 
ATOM      7  C   UNL     1      14.177   8.633   3.957  0.00  0.00    +0.028 C 
ATOM      8  C   UNL     1      15.372   7.846   5.926  0.00  0.00    +0.096 C 
ATOM      9  C   UNL     1      15.345   9.535   4.333  0.00  0.00    +0.085 C 
ENDROOT
BRANCH   6  10
ATOM      3  N   UNL     1      12.702   6.364   6.690  0.00  0.00    -0.341 N 
ATOM      4  N   UNL     1      11.820   8.142   5.689  0.00  0.00    -0.232 NA
ATOM     10  C   UNL     1      12.881   7.373   5.784  0.00  0.00    +0.113 A 
ATOM     13  C   UNL     1      11.440   6.492   7.214  0.00  0.00    +0.070 A 
ATOM     14  C   UNL     1      10.911   7.609   6.573  0.00  0.00    +0.089 A 
ATOM     15  C   UNL     1      10.739   5.749   8.163  0.00  0.00    +0.073 A 
ATOM     16  C   UNL     1       9.606   8.024   6.887  0.00  0.00    +0.033 A 
ATOM     19  C   UNL     1       9.441   6.176   8.463  0.00  0.00    +0.122 A 
ATOM     20  C   UNL     1       8.883   7.293   7.837  0.00  0.00    +0.048 A 
ATOM     24  H   UNL     1      13.375   5.650   6.933  0.00  0.00    +0.167 HD
BRANCH  19   1
ATOM      1  O   UNL     1       8.708   5.488   9.385  0.00  0.00    -0.495 OA
ATOM     23  C   UNL     1       9.400   4.512  10.162  0.00  0.00    +0.277 C 
ENDBRANCH  19   1
ENDBRANCH   6  10
BRANCH   2  11
ATOM     11  C   UNL     1      17.282   9.335   5.777  0.00  0.00    +0.121 C 
BRANCH  11  12
ATOM      5  N   UNL     1      20.190   7.385   4.338  0.00  0.00    -0.263 NA
ATOM     12  C   UNL     1      18.615   8.643   5.673  0.00  0.00    -0.015 A 
ATOM     17  C   UNL     1      19.489   8.604   6.754  0.00  0.00    +0.008 A 
ATOM     18  C   UNL     1      19.009   8.024   4.498  0.00  0.00    +0.115 A 
ATOM     21  C   UNL     1      20.713   7.956   6.629  0.00  0.00    +0.020 A 
ATOM     22  C   UNL     1      21.013   7.367   5.411  0.00  0.00    +0.111 A 
ENDBRANCH  11  12
ENDBRANCH   2  11
TORSDOF 4
ENDMDL
MODEL 5
REMARK VINA RESULT:      -6.1     17.783     20.353
REMARK  Name = 45784297
REMARK  5 active torsions:
REMARK  status: ('A' for Active; 'I' for Inactive)
REMARK    1  A    between atoms: O_1  and  C_19
REMARK    2  A    between atoms: O_1  and  C_23
REMARK    3  A    between atoms: N_2  and  C_11
REMARK    4  A    between atoms: C_6  and  C_10
REMARK    5  A    between atoms: C_11  and  C_12
REMARK                            x       y       z     vdW  Elec       q    Type
REMARK                         _______ _______ _______ _____ _____    ______ ____
ROOT
ATOM      2  N   UNL     1      11.952   3.786   0.632  0.00  0.00    -0.297 NA
ATOM      6  C   UNL     1      10.591   4.153   2.507  0.00  0.00    +0.070 C 
ATOM      7  C   UNL     1      10.173   5.106   1.373  0.00  0.00    +0.028 C 
ATOM      8  C   UNL     1      11.974   3.635   2.088  0.00  0.00    +0.096 C 
ATOM      9  C   UNL     1      11.344   5.096   0.399  0.00  0.00    +0.085 C 
ENDROOT
BRANCH   6  10
ATOM      3  N   UNL     1      10.076   4.093   4.962  0.00  0.00    -0.341 N 
ATOM      4  N   UNL     1      11.037   5.955   4.221  0.00  0.00    -0.232 NA
ATOM     10  C   UNL     1      10.585   4.767   3.887  0.00  0.00    +0.113 A 
ATOM     13  C   UNL     1      10.209   4.901   6.063  0.00  0.00    +0.070 A 
ATOM     14  C   UNL     1      10.812   6.056   5.574  0.00  0.00    +0.089 A 
ATOM     15  C   UNL     1       9.864   4.724   7.403  0.00  0.00    +0.073 A 
ATOM     16  C   UNL     1      11.094   7.109   6.461  0.00  0.00    +0.033 A 
ATOM     19  C   UNL     1      10.153   5.782   8.272  0.00  0.00    +0.122 A 
ATOM     20  C   UNL     1      10.757   6.954   7.811  0.00  0.00    +0.048 A 
ATOM     24  H   UNL     1       9.672   3.166   4.952  0.00  0.00    +0.167 HD
BRANCH  19   1
ATOM      1  O   UNL     1       9.838   5.665   9.594  0.00  0.00    -0.495 OA
ATOM     23  C   UNL     1       9.133   4.490   9.988  0.00  0.00    +0.277 C 
ENDBRANCH  19   1
ENDBRANCH   6  10
BRANCH   2  11
ATOM     11  C   UNL     1      13.278   3.678   0.042  0.00  0.00    +0.121 C 
BRANCH  11  12
ATOM      5  N   UNL     1      14.017   4.413  -3.597  0.00  0.00    -0.263 NA
ATOM     12  C   UNL     1      13.220   3.610  -1.461  0.00  0.00    -0.015 A 
ATOM     17  C   UNL     1      12.358   2.729  -2.105  0.00  0.00    +0.008 A 
ATOM     18  C   UNL     1      14.021   4.423  -2.245  0.00  0.00    +0.115 A 
ATOM     21  C   UNL     1      12.325   2.689  -3.495  0.00  0.00    +0.020 A 
ATOM     22  C   UNL     1      13.166   3.544  -4.188  0.00  0.00    +0.111 A 
ENDBRANCH  11  12
ENDBRANCH   2  11
TORSDOF 4
ENDMDL
MODEL 6
REMARK VINA RESULT:      -6.1     29.216     33.250
REMARK  Name = 45784297
REMARK  5 active torsions:
REMARK  status: ('A' for Active; 'I' for Inactive)
REMARK    1  A    between atoms: O_1  and  C_19
REMARK    2  A    between atoms: O_1  and  C_23
REMARK    3  A    between atoms: N_2  and  C_11
REMARK    4  A    between atoms: C_6  and  C_10
REMARK    5  A    between atoms: C_11  and  C_12
REMARK                            x       y       z     vdW  Elec       q    Type
REMARK                         _______ _______ _______ _____ _____    ______ ____
ROOT
ATOM      2  N   UNL     1     -11.814  -7.285  14.837  0.00  0.00    -0.297 NA
ATOM      6  C   UNL     1     -10.606  -8.370  16.529  0.00  0.00    +0.070 C 
ATOM      7  C   UNL     1     -10.784  -6.886  16.895  0.00  0.00    +0.028 C 
ATOM      8  C   UNL     1     -10.941  -8.444  15.032  0.00  0.00    +0.096 C 
ATOM      9  C   UNL     1     -11.180  -6.204  15.592  0.00  0.00    +0.085 C 
ENDROOT
BRANCH   6  10
ATOM      3  N   UNL     1      -8.198  -8.828  15.989  0.00  0.00    -0.341 N 
ATOM      4  N   UNL     1      -8.913  -9.598  17.947  0.00  0.00    -0.232 NA
ATOM     10  C   UNL     1      -9.248  -8.947  16.857  0.00  0.00    +0.113 A 
ATOM     13  C   UNL     1      -7.113  -9.445  16.559  0.00  0.00    +0.070 A 
ATOM     14  C   UNL     1      -7.585  -9.917  17.780  0.00  0.00    +0.089 A 
ATOM     15  C   UNL     1      -5.800  -9.624  16.123  0.00  0.00    +0.073 A 
ATOM     16  C   UNL     1      -6.709 -10.612  18.631  0.00  0.00    +0.033 A 
ATOM     19  C   UNL     1      -4.942 -10.318  16.983  0.00  0.00    +0.122 A 
ATOM     20  C   UNL     1      -5.386 -10.804  18.214  0.00  0.00    +0.048 A 
ATOM     24  H   UNL     1      -8.214  -8.370  15.088  0.00  0.00    +0.167 HD
BRANCH  19   1
ATOM      1  O   UNL     1      -3.646 -10.523  16.609  0.00  0.00    -0.495 OA
ATOM     23  C   UNL     1      -3.403 -10.760  15.224  0.00  0.00    +0.277 C 
ENDBRANCH  19   1
ENDBRANCH   6  10
BRANCH   2  11
ATOM     11  C   UNL     1     -11.987  -6.951  13.431  0.00  0.00    +0.121 C 
BRANCH  11  12
ATOM      5  N   UNL     1     -13.186  -3.449  12.637  0.00  0.00    -0.263 NA
ATOM     12  C   UNL     1     -12.905  -5.772  13.243  0.00  0.00    -0.015 A 
ATOM     17  C   UNL     1     -14.270  -5.882  13.485  0.00  0.00    +0.008 A 
ATOM     18  C   UNL     1     -12.417  -4.545  12.825  0.00  0.00    +0.115 A 
ATOM     21  C   UNL     1     -15.093  -4.776  13.304  0.00  0.00    +0.020 A 
ATOM     22  C   UNL     1     -14.507  -3.593  12.883  0.00  0.00    +0.111 A 
ENDBRANCH  11  12
ENDBRANCH   2  11
TORSDOF 4
ENDMDL
MODEL 7
REMARK VINA RESULT:      -6.1     27.181     31.161
REMARK  Name = 45784297
REMARK  5 active torsions:
REMARK  status: ('A' for Active; 'I' for Inactive)
REMARK    1  A    between atoms: O_1  and  C_19
REMARK    2  A    between atoms: O_1  and  C_23
REMARK    3  A    between atoms: N_2  and  C_11
REMARK    4  A    between atoms: C_6  and  C_10
REMARK    5  A    between atoms: C_11  and  C_12
REMARK                            x       y       z     vdW  Elec       q    Type
REMARK                         _______ _______ _______ _____ _____    ______ ____
ROOT
ATOM      2  N   UNL     1      -4.804 -11.366  17.630  0.00  0.00    -0.297 NA
ATOM      6  C   UNL     1      -6.578 -10.415  18.834  0.00  0.00    +0.070 C 
ATOM      7  C   UNL     1      -5.787 -11.366  19.749  0.00  0.00    +0.028 C 
ATOM      8  C   UNL     1      -6.128 -10.779  17.412  0.00  0.00    +0.096 C 
ATOM      9  C   UNL     1      -4.962 -12.227  18.801  0.00  0.00    +0.085 C 
ENDROOT
BRANCH   6  10
ATOM      3  N   UNL     1      -8.908  -9.688  18.251  0.00  0.00    -0.341 N 
ATOM      4  N   UNL     1      -8.745 -11.217  19.855  0.00  0.00    -0.232 NA
ATOM     10  C   UNL     1      -8.078 -10.467  19.008  0.00  0.00    +0.113 A 
ATOM     13  C   UNL     1     -10.198  -9.955  18.636  0.00  0.00    +0.070 A 
ATOM     14  C   UNL     1     -10.069 -10.912  19.638  0.00  0.00    +0.089 A 
ATOM     15  C   UNL     1     -11.428  -9.454  18.206  0.00  0.00    +0.073 A 
ATOM     16  C   UNL     1     -11.225 -11.412  20.260  0.00  0.00    +0.033 A 
ATOM     19  C   UNL     1     -12.568  -9.964  18.836  0.00  0.00    +0.122 A 
ATOM     20  C   UNL     1     -12.471 -10.925  19.845  0.00  0.00    +0.048 A 
ATOM     24  H   UNL     1      -8.627  -9.032  17.534  0.00  0.00    +0.167 HD
BRANCH  19   1
ATOM      1  O   UNL     1     -13.798  -9.512  18.457  0.00  0.00    -0.495 OA
ATOM     23  C   UNL     1     -13.888  -8.880  17.182  0.00  0.00    +0.277 C 
ENDBRANCH  19   1
ENDBRANCH   6  10
BRANCH   2  11
ATOM     11  C   UNL     1      -4.321 -12.095  16.467  0.00  0.00    +0.121 C 
BRANCH  11  12
ATOM      5  N   UNL     1      -2.492 -10.380  13.630  0.00  0.00    -0.263 NA
ATOM     12  C   UNL     1      -3.268 -11.323  15.717  0.00  0.00    -0.015 A 
ATOM     17  C   UNL     1      -2.132 -10.847  16.362  0.00  0.00    +0.008 A 
ATOM     18  C   UNL     1      -3.400 -11.065  14.362  0.00  0.00    +0.115 A 
ATOM     21  C   UNL     1      -1.176 -10.139  15.644  0.00  0.00    +0.020 A 
ATOM     22  C   UNL     1      -1.401  -9.934  14.292  0.00  0.00    +0.111 A 
ENDBRANCH  11  12
ENDBRANCH   2  11
TORSDOF 4
ENDMDL
MODEL 8
REMARK VINA RESULT:      -6.0      1.624      2.265
REMARK  Name = 45784297
REMARK  5 active torsions:
REMARK  status: ('A' for Active; 'I' for Inactive)
REMARK    1  A    between atoms: O_1  and  C_19
REMARK    2  A    between atoms: O_1  and  C_23
REMARK    3  A    between atoms: N_2  and  C_11
REMARK    4  A    between atoms: C_6  and  C_10
REMARK    5  A    between atoms: C_11  and  C_12
REMARK                            x       y       z     vdW  Elec       q    Type
REMARK                         _______ _______ _______ _____ _____    ______ ____
ROOT
ATOM      2  N   UNL     1      22.021   5.180  21.767  0.00  0.00    -0.297 NA
ATOM      6  C   UNL     1      20.276   6.041  20.457  0.00  0.00    +0.070 C 
ATOM      7  C   UNL     1      21.169   7.194  20.947  0.00  0.00    +0.028 C 
ATOM      8  C   UNL     1      20.657   4.849  21.347  0.00  0.00    +0.096 C 
ATOM      9  C   UNL     1      21.979   6.605  22.094  0.00  0.00    +0.085 C 
ENDROOT
BRANCH   6  10
ATOM      3  N   UNL     1      18.032   6.193  19.344  0.00  0.00    -0.341 N 
ATOM      4  N   UNL     1      18.083   6.742  21.497  0.00  0.00    -0.232 NA
ATOM     10  C   UNL     1      18.794   6.335  20.470  0.00  0.00    +0.113 A 
ATOM     13  C   UNL     1      16.742   6.531  19.667  0.00  0.00    +0.070 A 
ATOM     14  C   UNL     1      16.800   6.870  21.016  0.00  0.00    +0.089 A 
ATOM     15  C   UNL     1      15.566   6.569  18.917  0.00  0.00    +0.073 A 
ATOM     16  C   UNL     1      15.625   7.272  21.672  0.00  0.00    +0.033 A 
ATOM     19  C   UNL     1      14.406   6.971  19.587  0.00  0.00    +0.122 A 
ATOM     20  C   UNL     1      14.433   7.317  20.939  0.00  0.00    +0.048 A 
ATOM     24  H   UNL     1      18.356   5.893  18.434  0.00  0.00    +0.167 HD
BRANCH  19   1
ATOM      1  O   UNL     1      13.226   7.026  18.904  0.00  0.00    -0.495 OA
ATOM     23  C   UNL     1      12.540   8.276  18.900  0.00  0.00    +0.277 C 
ENDBRANCH  19   1
ENDBRANCH   6  10
BRANCH   2  11
ATOM     11  C   UNL     1      22.469   4.367  22.887  0.00  0.00    +0.121 C 
BRANCH  11  12
ATOM      5  N   UNL     1      24.150   0.976  22.953  0.00  0.00    -0.263 NA
ATOM     12  C   UNL     1      23.221   3.146  22.430  0.00  0.00    -0.015 A 
ATOM     17  C   UNL     1      23.680   3.036  21.122  0.00  0.00    +0.008 A 
ATOM     18  C   UNL     1      23.480   2.099  23.299  0.00  0.00    +0.115 A 
ATOM     21  C   UNL     1      24.375   1.897  20.729  0.00  0.00    +0.020 A 
ATOM     22  C   UNL     1      24.581   0.905  21.673  0.00  0.00    +0.111 A 
ENDBRANCH  11  12
ENDBRANCH   2  11
TORSDOF 4
ENDMDL
MODEL 9
REMARK VINA RESULT:      -6.0     28.886     30.829
REMARK  Name = 45784297
REMARK  5 active torsions:
REMARK  status: ('A' for Active; 'I' for Inactive)
REMARK    1  A    between atoms: O_1  and  C_19
REMARK    2  A    between atoms: O_1  and  C_23
REMARK    3  A    between atoms: N_2  and  C_11
REMARK    4  A    between atoms: C_6  and  C_10
REMARK    5  A    between atoms: C_11  and  C_12
REMARK                            x       y       z     vdW  Elec       q    Type
REMARK                         _______ _______ _______ _____ _____    ______ ____
ROOT
ATOM      2  N   UNL     1      -4.185 -10.628  14.613  0.00  0.00    -0.297 NA
ATOM      6  C   UNL     1      -5.475  -9.711  16.345  0.00  0.00    +0.070 C 
ATOM      7  C   UNL     1      -4.239 -10.412  16.938  0.00  0.00    +0.028 C 
ATOM      8  C   UNL     1      -5.567 -10.238  14.906  0.00  0.00    +0.096 C 
ATOM      9  C   UNL     1      -3.722 -11.310  15.822  0.00  0.00    +0.085 C 
ENDROOT
BRANCH   6  10
ATOM      3  N   UNL     1      -7.886  -9.205  16.823  0.00  0.00    -0.341 N 
ATOM      4  N   UNL     1      -6.937 -10.725  18.139  0.00  0.00    -0.232 NA
ATOM     10  C   UNL     1      -6.753  -9.908  17.127  0.00  0.00    +0.113 A 
ATOM     13  C   UNL     1      -8.867  -9.596  17.698  0.00  0.00    +0.070 A 
ATOM     14  C   UNL     1      -8.251 -10.545  18.508  0.00  0.00    +0.089 A 
ATOM     15  C   UNL     1     -10.201  -9.212  17.845  0.00  0.00    +0.073 A 
ATOM     16  C   UNL     1      -8.993 -11.158  19.532  0.00  0.00    +0.033 A 
ATOM     19  C   UNL     1     -10.924  -9.833  18.869  0.00  0.00    +0.122 A 
ATOM     20  C   UNL     1     -10.333 -10.788  19.698  0.00  0.00    +0.048 A 
ATOM     24  H   UNL     1      -7.987  -8.519  16.086  0.00  0.00    +0.167 HD
BRANCH  19   1
ATOM      1  O   UNL     1     -12.233  -9.497  19.059  0.00  0.00    -0.495 OA
ATOM     23  C   UNL     1     -12.788  -9.764  20.345  0.00  0.00    +0.277 C 
ENDBRANCH  19   1
ENDBRANCH   6  10
BRANCH   2  11
ATOM     11  C   UNL     1      -4.085 -11.469  13.430  0.00  0.00    +0.121 C 
BRANCH  11  12
ATOM      5  N   UNL     1      -4.867  -9.612  10.225  0.00  0.00    -0.263 NA
ATOM     12  C   UNL     1      -3.895 -10.655  12.177  0.00  0.00    -0.015 A 
ATOM     17  C   UNL     1      -2.636 -10.203  11.801  0.00  0.00    +0.008 A 
ATOM     18  C   UNL     1      -4.969 -10.336  11.363  0.00  0.00    +0.115 A 
ATOM     21  C   UNL     1      -2.490  -9.455  10.638  0.00  0.00    +0.020 A 
ATOM     22  C   UNL     1      -3.627  -9.190   9.892  0.00  0.00    +0.111 A 
ENDBRANCH  11  12
ENDBRANCH   2  11
TORSDOF 4
ENDMDL
MODEL 10
REMARK VINA RESULT:      -6.0     29.746     32.970
REMARK  Name = 45784297
REMARK  5 active torsions:
REMARK  status: ('A' for Active; 'I' for Inactive)
REMARK    1  A    between atoms: O_1  and  C_19
REMARK    2  A    between atoms: O_1  and  C_23
REMARK    3  A    between atoms: N_2  and  C_11
REMARK    4  A    between atoms: C_6  and  C_10
REMARK    5  A    between atoms: C_11  and  C_12
REMARK                            x       y       z     vdW  Elec       q    Type
REMARK                         _______ _______ _______ _____ _____    ______ ____
ROOT
ATOM      2  N   UNL     1      -9.402  -8.741  16.590  0.00  0.00    -0.297 NA
ATOM      6  C   UNL     1     -11.010  -7.041  16.424  0.00  0.00    +0.070 C 
ATOM      7  C   UNL     1     -11.619  -8.258  17.142  0.00  0.00    +0.028 C 
ATOM      8  C   UNL     1      -9.734  -7.580  15.761  0.00  0.00    +0.096 C 
ATOM      9  C   UNL     1     -10.679  -9.414  16.826  0.00  0.00    +0.085 C 
ENDROOT
BRANCH   6  10
ATOM      3  N   UNL     1     -11.469  -5.402  14.580  0.00  0.00    -0.341 N 
ATOM      4  N   UNL     1     -13.224  -6.554  15.310  0.00  0.00    -0.232 NA
ATOM     10  C   UNL     1     -11.934  -6.351  15.448  0.00  0.00    +0.113 A 
ATOM     13  C   UNL     1     -12.533  -4.964  13.832  0.00  0.00    +0.070 A 
ATOM     14  C   UNL     1     -13.616  -5.698  14.306  0.00  0.00    +0.089 A 
ATOM     15  C   UNL     1     -12.635  -4.017  12.812  0.00  0.00    +0.073 A 
ATOM     16  C   UNL     1     -14.885  -5.489  13.741  0.00  0.00    +0.033 A 
ATOM     19  C   UNL     1     -13.907  -3.822  12.262  0.00  0.00    +0.122 A 
ATOM     20  C   UNL     1     -15.012  -4.543  12.717  0.00  0.00    +0.048 A 
ATOM     24  H   UNL     1     -10.515  -5.078  14.501  0.00  0.00    +0.167 HD
BRANCH  19   1
ATOM      1  O   UNL     1     -14.067  -2.908  11.261  0.00  0.00    -0.495 OA
ATOM     23  C   UNL     1     -15.406  -2.577  10.898  0.00  0.00    +0.277 C 
ENDBRANCH  19   1
ENDBRANCH   6  10
BRANCH   2  11
ATOM     11  C   UNL     1      -8.424  -9.613  15.957  0.00  0.00    +0.121 C 
BRANCH  11  12
ATOM      5  N   UNL     1      -4.932 -10.248  17.275  0.00  0.00    -0.263 NA
ATOM     12  C   UNL     1      -7.304  -9.977  16.897  0.00  0.00    -0.015 A 
ATOM     17  C   UNL     1      -7.565 -10.367  18.205  0.00  0.00    +0.008 A 
ATOM     18  C   UNL     1      -5.983  -9.934  16.484  0.00  0.00    +0.115 A 
ATOM     21  C   UNL     1      -6.511 -10.699  19.049  0.00  0.00    +0.020 A 
ATOM     22  C   UNL     1      -5.225 -10.624  18.540  0.00  0.00    +0.111 A 
ENDBRANCH  11  12
ENDBRANCH   2  11
TORSDOF 4
ENDMDL
