REMARK  Name = 75368572
REMARK  3 active torsions:
REMARK  status: ('A' for Active; 'I' for Inactive)
REMARK    1  A    between atoms: N_3  and  C_11
REMARK    2  A    between atoms: C_11  and  C_13
REMARK    3  A    between atoms: C_11  and  C_14
REMARK                            x       y       z     vdW  Elec       q    Type
REMARK                         _______ _______ _______ _____ _____    ______ ____
ROOT
ATOM      1  O   UNL     1      -1.038  -2.398   0.193  0.00  0.00    -0.252 OA
ATOM      2  N   UNL     1       0.789  -1.052  -0.341  0.00  0.00    -0.278 N 
ATOM      3  N   UNL     1       3.418  -0.051  -0.288  0.00  0.00    -0.297 NA
ATOM      4  N   UNL     1      -1.234  -0.045  -0.201  0.00  0.00    -0.238 N 
ATOM      5  N   UNL     1      -3.439  -0.828   0.270  0.00  0.00    -0.240 NA
ATOM      6  C   UNL     1       1.032   0.301  -0.775  0.00  0.00    +0.109 C 
ATOM      7  C   UNL     1       2.278   0.868  -0.096  0.00  0.00    +0.108 C 
ATOM      8  C   UNL     1      -0.267   1.022  -0.438  0.00  0.00    +0.140 C 
ATOM      9  C   UNL     1       1.882  -2.003  -0.345  0.00  0.00    +0.125 C 
ATOM     10  C   UNL     1       3.126  -1.378   0.291  0.00  0.00    +0.103 C 
ATOM     12  C   UNL     1      -0.570  -1.302  -0.086  0.00  0.00    +0.311 C 
ATOM     15  C   UNL     1      -2.626   0.209  -0.033  0.00  0.00    +0.129 A 
ATOM     16  C   UNL     1      -3.061   1.515  -0.190  0.00  0.00    +0.044 A 
ATOM     17  C   UNL     1      -4.418   1.774  -0.028  0.00  0.00    +0.005 A 
ATOM     18  C   UNL     1      -4.751  -0.538   0.420  0.00  0.00    +0.113 A 
ATOM     19  C   UNL     1      -5.285   0.733   0.284  0.00  0.00    +0.020 A 
ENDROOT
BRANCH   3  11
ATOM     11  C   UNL     1       4.631   0.509   0.308  0.00  0.00    +0.051 C 
ATOM     13  C   UNL     1       5.213   1.566  -0.625  0.00  0.00    +0.024 C 
ATOM     14  C   UNL     1       4.322   1.099   1.681  0.00  0.00    +0.024 C 
ENDBRANCH   3  11
TORSDOF 1
