MODEL 1
REMARK VINA RESULT:      -8.0      0.000      0.000
REMARK  Name = 26744806
REMARK  6 active torsions:
REMARK  status: ('A' for Active; 'I' for Inactive)
REMARK    1  A    between atoms: O_2  and  C_23
REMARK    2  A    between atoms: O_2  and  C_28
REMARK    3  A    between atoms: N_3  and  C_14
REMARK    4  A    between atoms: C_9  and  C_15
REMARK    5  A    between atoms: C_14  and  C_16
REMARK    6  A    between atoms: C_20  and  C_24
REMARK                            x       y       z     vdW  Elec       q    Type
REMARK                         _______ _______ _______ _____ _____    ______ ____
ROOT
ATOM      3  N   UNL     1      14.412   7.492  19.341  0.00  0.00    -0.281 NA
ATOM      4  N   UNL     1      11.891   6.663  21.991  0.00  0.00    -0.347 N 
ATOM      5  N   UNL     1      10.502   7.929  20.779  0.00  0.00    -0.240 NA
ATOM      9  C   UNL     1      13.373   7.693  18.272  0.00  0.00    +0.152 C 
ATOM     10  C   UNL     1      12.063   8.357  18.827  0.00  0.00    +0.086 C 
ATOM     11  C   UNL     1      13.928   6.610  20.442  0.00  0.00    +0.140 C 
ATOM     12  C   UNL     1      12.565   7.001  20.857  0.00  0.00    +0.053 A 
ATOM     13  C   UNL     1      11.693   7.769  20.130  0.00  0.00    +0.065 A 
ATOM     17  C   UNL     1      10.652   7.247  21.898  0.00  0.00    +0.197 A 
ATOM     30  H   UNL     1      12.231   6.091  22.753  0.00  0.00    +0.167 HD
ENDROOT
BRANCH   9  15
ATOM      1  O   UNL     1      13.891   7.903  15.883  0.00  0.00    -0.336 OA
ATOM      6  N   UNL     1      14.249   9.775  17.059  0.00  0.00    -0.189 NA
ATOM      7  N   UNL     1      14.360   8.854  14.968  0.00  0.00    -0.054 NA
ATOM     15  C   UNL     1      13.855   8.526  17.090  0.00  0.00    +0.245 A 
ATOM     20  C   UNL     1      14.548   9.930  15.737  0.00  0.00    +0.220 A 
BRANCH  20  24
ATOM      8  N   UNL     1      14.630  11.482  13.961  0.00  0.00    -0.252 NA
ATOM     24  C   UNL     1      15.033  11.176  15.216  0.00  0.00    +0.111 A 
ATOM     25  C   UNL     1      15.858  11.981  15.984  0.00  0.00    +0.031 A 
ATOM     26  C   UNL     1      16.298  13.178  15.429  0.00  0.00    +0.004 A 
ATOM     27  C   UNL     1      15.080  12.652  13.456  0.00  0.00    +0.111 A 
ATOM     29  C   UNL     1      15.907  13.527  14.141  0.00  0.00    +0.020 A 
ENDBRANCH  20  24
ENDBRANCH   9  15
BRANCH   3  14
ATOM     14  C   UNL     1      15.656   6.918  18.810  0.00  0.00    +0.120 C 
BRANCH  14  16
ATOM     16  C   UNL     1      16.799   7.064  19.779  0.00  0.00    -0.033 A 
ATOM     18  C   UNL     1      16.856   8.168  20.630  0.00  0.00    +0.008 A 
ATOM     19  C   UNL     1      17.801   6.095  19.826  0.00  0.00    +0.008 A 
ATOM     21  C   UNL     1      17.915   8.303  21.527  0.00  0.00    +0.046 A 
ATOM     22  C   UNL     1      18.860   6.229  20.723  0.00  0.00    +0.046 A 
ATOM     23  C   UNL     1      18.917   7.334  21.574  0.00  0.00    +0.120 A 
BRANCH  23   2
ATOM      2  O   UNL     1      19.950   7.465  22.450  0.00  0.00    -0.495 OA
ATOM     28  C   UNL     1      20.782   6.323  22.648  0.00  0.00    +0.277 C 
ENDBRANCH  23   2
ENDBRANCH  14  16
ENDBRANCH   3  14
TORSDOF 5
ENDMDL
MODEL 2
REMARK VINA RESULT:      -7.6      3.426      7.027
REMARK  Name = 26744806
REMARK  6 active torsions:
REMARK  status: ('A' for Active; 'I' for Inactive)
REMARK    1  A    between atoms: O_2  and  C_23
REMARK    2  A    between atoms: O_2  and  C_28
REMARK    3  A    between atoms: N_3  and  C_14
REMARK    4  A    between atoms: C_9  and  C_15
REMARK    5  A    between atoms: C_14  and  C_16
REMARK    6  A    between atoms: C_20  and  C_24
REMARK                            x       y       z     vdW  Elec       q    Type
REMARK                         _______ _______ _______ _____ _____    ______ ____
ROOT
ATOM      3  N   UNL     1      12.683   8.644  19.774  0.00  0.00    -0.281 NA
ATOM      4  N   UNL     1      10.360   8.920  16.843  0.00  0.00    -0.347 N 
ATOM      5  N   UNL     1      12.227   8.826  15.615  0.00  0.00    -0.240 NA
ATOM      9  C   UNL     1      13.738   7.905  18.998  0.00  0.00    +0.152 C 
ATOM     10  C   UNL     1      13.853   8.407  17.515  0.00  0.00    +0.086 C 
ATOM     11  C   UNL     1      11.327   8.490  19.173  0.00  0.00    +0.140 C 
ATOM     12  C   UNL     1      11.384   8.686  17.710  0.00  0.00    +0.053 A 
ATOM     13  C   UNL     1      12.513   8.626  16.935  0.00  0.00    +0.065 A 
ATOM     17  C   UNL     1      10.919   8.997  15.591  0.00  0.00    +0.197 A 
ATOM     30  H   UNL     1       9.380   9.015  17.070  0.00  0.00    +0.167 HD
ENDROOT
BRANCH   9  15
ATOM      1  O   UNL     1      15.553   9.203  20.019  0.00  0.00    -0.336 OA
ATOM      6  N   UNL     1      15.990   7.013  19.840  0.00  0.00    -0.189 NA
ATOM      7  N   UNL     1      16.835   9.016  20.553  0.00  0.00    -0.054 NA
ATOM     15  C   UNL     1      15.128   7.974  19.624  0.00  0.00    +0.245 A 
ATOM     20  C   UNL     1      17.021   7.701  20.412  0.00  0.00    +0.220 A 
BRANCH  20  24
ATOM      8  N   UNL     1      18.782   7.512  21.971  0.00  0.00    -0.252 NA
ATOM     24  C   UNL     1      18.224   7.042  20.832  0.00  0.00    +0.111 A 
ATOM     25  C   UNL     1      18.745   5.997  20.087  0.00  0.00    +0.031 A 
ATOM     26  C   UNL     1      19.914   5.395  20.541  0.00  0.00    +0.004 A 
ATOM     27  C   UNL     1      19.917   6.903  22.380  0.00  0.00    +0.111 A 
ATOM     29  C   UNL     1      20.517   5.851  21.707  0.00  0.00    +0.020 A 
ENDBRANCH  20  24
ENDBRANCH   9  15
BRANCH   3  14
ATOM     14  C   UNL     1      12.613   8.209  21.176  0.00  0.00    +0.120 C 
BRANCH  14  16
ATOM     16  C   UNL     1      12.418   9.370  22.114  0.00  0.00    -0.033 A 
ATOM     18  C   UNL     1      11.169   9.601  22.690  0.00  0.00    +0.008 A 
ATOM     19  C   UNL     1      13.487  10.216  22.408  0.00  0.00    +0.008 A 
ATOM     21  C   UNL     1      10.989  10.677  23.559  0.00  0.00    +0.046 A 
ATOM     22  C   UNL     1      13.308  11.292  23.277  0.00  0.00    +0.046 A 
ATOM     23  C   UNL     1      12.058  11.523  23.852  0.00  0.00    +0.120 A 
BRANCH  23   2
ATOM      2  O   UNL     1      11.884  12.572  24.700  0.00  0.00    -0.495 OA
ATOM     28  C   UNL     1      10.543  12.908  25.051  0.00  0.00    +0.277 C 
ENDBRANCH  23   2
ENDBRANCH  14  16
ENDBRANCH   3  14
TORSDOF 5
ENDMDL
MODEL 3
REMARK VINA RESULT:      -7.2      2.365      6.903
REMARK  Name = 26744806
REMARK  6 active torsions:
REMARK  status: ('A' for Active; 'I' for Inactive)
REMARK    1  A    between atoms: O_2  and  C_23
REMARK    2  A    between atoms: O_2  and  C_28
REMARK    3  A    between atoms: N_3  and  C_14
REMARK    4  A    between atoms: C_9  and  C_15
REMARK    5  A    between atoms: C_14  and  C_16
REMARK    6  A    between atoms: C_20  and  C_24
REMARK                            x       y       z     vdW  Elec       q    Type
REMARK                         _______ _______ _______ _____ _____    ______ ____
ROOT
ATOM      3  N   UNL     1      14.003   8.636  19.716  0.00  0.00    -0.281 NA
ATOM      4  N   UNL     1      10.551   8.458  21.172  0.00  0.00    -0.347 N 
ATOM      5  N   UNL     1      11.215   6.481  21.981  0.00  0.00    -0.240 NA
ATOM      9  C   UNL     1      14.607   7.760  20.779  0.00  0.00    +0.152 C 
ATOM     10  C   UNL     1      13.635   6.614  21.234  0.00  0.00    +0.086 C 
ATOM     11  C   UNL     1      12.752   9.305  20.177  0.00  0.00    +0.140 C 
ATOM     12  C   UNL     1      11.874   8.339  20.869  0.00  0.00    +0.053 A 
ATOM     13  C   UNL     1      12.258   7.126  21.379  0.00  0.00    +0.065 A 
ATOM     17  C   UNL     1      10.200   7.312  21.842  0.00  0.00    +0.197 A 
ATOM     30  H   UNL     1       9.944   9.236  20.953  0.00  0.00    +0.167 HD
ENDROOT
BRANCH   9  15
ATOM      1  O   UNL     1      15.918   6.377  19.235  0.00  0.00    -0.336 OA
ATOM      6  N   UNL     1      17.096   7.173  20.966  0.00  0.00    -0.189 NA
ATOM      7  N   UNL     1      17.224   5.897  19.071  0.00  0.00    -0.054 NA
ATOM     15  C   UNL     1      15.929   7.118  20.373  0.00  0.00    +0.245 A 
ATOM     20  C   UNL     1      17.857   6.409  20.130  0.00  0.00    +0.220 A 
BRANCH  20  24
ATOM      8  N   UNL     1      19.955   7.251  20.807  0.00  0.00    -0.252 NA
ATOM     24  C   UNL     1      19.251   6.178  20.382  0.00  0.00    +0.111 A 
ATOM     25  C   UNL     1      19.796   4.919  20.189  0.00  0.00    +0.031 A 
ATOM     26  C   UNL     1      21.152   4.751  20.448  0.00  0.00    +0.004 A 
ATOM     27  C   UNL     1      21.270   7.049  21.048  0.00  0.00    +0.111 A 
ATOM     29  C   UNL     1      21.910   5.831  20.886  0.00  0.00    +0.020 A 
ENDBRANCH  20  24
ENDBRANCH   9  15
BRANCH   3  14
ATOM     14  C   UNL     1      14.933   9.677  19.255  0.00  0.00    +0.120 C 
BRANCH  14  16
ATOM     16  C   UNL     1      14.602  10.147  17.863  0.00  0.00    -0.033 A 
ATOM     18  C   UNL     1      14.627  11.509  17.562  0.00  0.00    +0.008 A 
ATOM     19  C   UNL     1      14.270   9.221  16.876  0.00  0.00    +0.008 A 
ATOM     21  C   UNL     1      14.321  11.944  16.273  0.00  0.00    +0.046 A 
ATOM     22  C   UNL     1      13.964   9.655  15.586  0.00  0.00    +0.046 A 
ATOM     23  C   UNL     1      13.989  11.017  15.285  0.00  0.00    +0.120 A 
BRANCH  23   2
ATOM      2  O   UNL     1      13.690  11.441  14.026  0.00  0.00    -0.495 OA
ATOM     28  C   UNL     1      14.520  12.458  13.470  0.00  0.00    +0.277 C 
ENDBRANCH  23   2
ENDBRANCH  14  16
ENDBRANCH   3  14
TORSDOF 5
ENDMDL
MODEL 4
REMARK VINA RESULT:      -6.8     26.453     30.826
REMARK  Name = 26744806
REMARK  6 active torsions:
REMARK  status: ('A' for Active; 'I' for Inactive)
REMARK    1  A    between atoms: O_2  and  C_23
REMARK    2  A    between atoms: O_2  and  C_28
REMARK    3  A    between atoms: N_3  and  C_14
REMARK    4  A    between atoms: C_9  and  C_15
REMARK    5  A    between atoms: C_14  and  C_16
REMARK    6  A    between atoms: C_20  and  C_24
REMARK                            x       y       z     vdW  Elec       q    Type
REMARK                         _______ _______ _______ _____ _____    ______ ____
ROOT
ATOM      3  N   UNL     1      -5.944 -10.707  15.884  0.00  0.00    -0.281 NA
ATOM      4  N   UNL     1      -2.545 -10.245  14.369  0.00  0.00    -0.347 N 
ATOM      5  N   UNL     1      -1.788 -10.796  16.400  0.00  0.00    -0.240 NA
ATOM      9  C   UNL     1      -5.464 -11.697  16.910  0.00  0.00    +0.152 C 
ATOM     10  C   UNL     1      -4.030 -11.354  17.447  0.00  0.00    +0.086 C 
ATOM     11  C   UNL     1      -5.051 -10.651  14.691  0.00  0.00    +0.140 C 
ATOM     12  C   UNL     1      -3.634 -10.595  15.107  0.00  0.00    +0.053 A 
ATOM     13  C   UNL     1      -3.146 -10.934  16.342  0.00  0.00    +0.065 A 
ATOM     17  C   UNL     1      -1.455 -10.381  15.194  0.00  0.00    +0.197 A 
ATOM     30  H   UNL     1      -2.534  -9.946  13.403  0.00  0.00    +0.167 HD
ENDROOT
BRANCH   9  15
ATOM      1  O   UNL     1      -6.132 -11.037  19.176  0.00  0.00    -0.336 OA
ATOM      6  N   UNL     1      -7.420 -12.635  18.277  0.00  0.00    -0.189 NA
ATOM      7  N   UNL     1      -7.101 -11.346  20.141  0.00  0.00    -0.054 NA
ATOM     15  C   UNL     1      -6.392 -11.840  18.111  0.00  0.00    +0.245 A 
ATOM     20  C   UNL     1      -7.821 -12.295  19.536  0.00  0.00    +0.220 A 
BRANCH  20  24
ATOM      8  N   UNL     1     -10.097 -12.208  20.153  0.00  0.00    -0.252 NA
ATOM     24  C   UNL     1      -8.949 -12.923  20.162  0.00  0.00    +0.111 A 
ATOM     25  C   UNL     1      -8.823 -14.182  20.727  0.00  0.00    +0.031 A 
ATOM     26  C   UNL     1      -9.948 -14.743  21.321  0.00  0.00    +0.004 A 
ATOM     27  C   UNL     1     -11.169 -12.786  20.740  0.00  0.00    +0.111 A 
ATOM     29  C   UNL     1     -11.147 -14.039  21.332  0.00  0.00    +0.020 A 
ENDBRANCH  20  24
ENDBRANCH   9  15
BRANCH   3  14
ATOM     14  C   UNL     1      -7.307 -11.001  15.419  0.00  0.00    +0.120 C 
BRANCH  14  16
ATOM     16  C   UNL     1      -8.257  -9.871  15.720  0.00  0.00    -0.033 A 
ATOM     18  C   UNL     1      -8.231  -9.250  16.969  0.00  0.00    +0.008 A 
ATOM     19  C   UNL     1      -9.162  -9.446  14.748  0.00  0.00    +0.008 A 
ATOM     21  C   UNL     1      -9.110  -8.204  17.246  0.00  0.00    +0.046 A 
ATOM     22  C   UNL     1     -10.042  -8.399  15.025  0.00  0.00    +0.046 A 
ATOM     23  C   UNL     1     -10.016  -7.779  16.275  0.00  0.00    +0.120 A 
BRANCH  23   2
ATOM      2  O   UNL     1     -10.874  -6.757  16.544  0.00  0.00    -0.495 OA
ATOM     28  C   UNL     1     -11.269  -5.935  15.449  0.00  0.00    +0.277 C 
ENDBRANCH  23   2
ENDBRANCH  14  16
ENDBRANCH   3  14
TORSDOF 5
ENDMDL
MODEL 5
REMARK VINA RESULT:      -6.8      2.109      2.530
REMARK  Name = 26744806
REMARK  6 active torsions:
REMARK  status: ('A' for Active; 'I' for Inactive)
REMARK    1  A    between atoms: O_2  and  C_23
REMARK    2  A    between atoms: O_2  and  C_28
REMARK    3  A    between atoms: N_3  and  C_14
REMARK    4  A    between atoms: C_9  and  C_15
REMARK    5  A    between atoms: C_14  and  C_16
REMARK    6  A    between atoms: C_20  and  C_24
REMARK                            x       y       z     vdW  Elec       q    Type
REMARK                         _______ _______ _______ _____ _____    ______ ____
ROOT
ATOM      3  N   UNL     1      13.978   8.974  20.259  0.00  0.00    -0.281 NA
ATOM      4  N   UNL     1      11.448   9.068  23.026  0.00  0.00    -0.347 N 
ATOM      5  N   UNL     1      11.109  11.178  22.369  0.00  0.00    -0.240 NA
ATOM      9  C   UNL     1      13.276  10.025  19.444  0.00  0.00    +0.152 C 
ATOM     10  C   UNL     1      12.626  11.141  20.337  0.00  0.00    +0.086 C 
ATOM     11  C   UNL     1      13.053   8.275  21.198  0.00  0.00    +0.140 C 
ATOM     12  C   UNL     1      12.197   9.250  21.903  0.00  0.00    +0.053 A 
ATOM     13  C   UNL     1      11.968  10.545  21.517  0.00  0.00    +0.065 A 
ATOM     17  C   UNL     1      10.810  10.260  23.267  0.00  0.00    +0.197 A 
ATOM     30  H   UNL     1      11.369   8.222  23.575  0.00  0.00    +0.167 HD
ENDROOT
BRANCH   9  15
ATOM      1  O   UNL     1      15.191  11.462  18.909  0.00  0.00    -0.336 OA
ATOM      6  N   UNL     1      14.105  10.687  17.110  0.00  0.00    -0.189 NA
ATOM      7  N   UNL     1      15.862  11.983  17.795  0.00  0.00    -0.054 NA
ATOM     15  C   UNL     1      14.171  10.711  18.417  0.00  0.00    +0.245 A 
ATOM     20  C   UNL     1      15.162  11.482  16.773  0.00  0.00    +0.220 A 
BRANCH  20  24
ATOM      8  N   UNL     1      16.811  11.904  15.139  0.00  0.00    -0.252 NA
ATOM     24  C   UNL     1      15.494  11.754  15.404  0.00  0.00    +0.111 A 
ATOM     25  C   UNL     1      14.494  11.848  14.449  0.00  0.00    +0.031 A 
ATOM     26  C   UNL     1      14.872  12.114  13.137  0.00  0.00    +0.004 A 
ATOM     27  C   UNL     1      17.139  12.161  13.853  0.00  0.00    +0.111 A 
ATOM     29  C   UNL     1      16.217  12.275  12.826  0.00  0.00    +0.020 A 
ENDBRANCH  20  24
ENDBRANCH   9  15
BRANCH   3  14
ATOM     14  C   UNL     1      14.629   7.959  19.420  0.00  0.00    +0.120 C 
BRANCH  14  16
ATOM     16  C   UNL     1      16.024   7.649  19.896  0.00  0.00    -0.033 A 
ATOM     18  C   UNL     1      16.638   6.452  19.526  0.00  0.00    +0.008 A 
ATOM     19  C   UNL     1      16.701   8.557  20.709  0.00  0.00    +0.008 A 
ATOM     21  C   UNL     1      17.929   6.165  19.968  0.00  0.00    +0.046 A 
ATOM     22  C   UNL     1      17.992   8.271  21.151  0.00  0.00    +0.046 A 
ATOM     23  C   UNL     1      18.606   7.074  20.780  0.00  0.00    +0.120 A 
BRANCH  23   2
ATOM      2  O   UNL     1      19.867   6.795  21.211  0.00  0.00    -0.495 OA
ATOM     28  C   UNL     1      20.031   6.512  22.599  0.00  0.00    +0.277 C 
ENDBRANCH  23   2
ENDBRANCH  14  16
ENDBRANCH   3  14
TORSDOF 5
ENDMDL
MODEL 6
REMARK VINA RESULT:      -6.6     12.801     16.660
REMARK  Name = 26744806
REMARK  6 active torsions:
REMARK  status: ('A' for Active; 'I' for Inactive)
REMARK    1  A    between atoms: O_2  and  C_23
REMARK    2  A    between atoms: O_2  and  C_28
REMARK    3  A    between atoms: N_3  and  C_14
REMARK    4  A    between atoms: C_9  and  C_15
REMARK    5  A    between atoms: C_14  and  C_16
REMARK    6  A    between atoms: C_20  and  C_24
REMARK                            x       y       z     vdW  Elec       q    Type
REMARK                         _______ _______ _______ _____ _____    ______ ____
ROOT
ATOM      3  N   UNL     1       9.614   7.257   6.257  0.00  0.00    -0.281 NA
ATOM      4  N   UNL     1       8.716   5.828   9.606  0.00  0.00    -0.347 N 
ATOM      5  N   UNL     1       9.700   3.968   8.848  0.00  0.00    -0.240 NA
ATOM      9  C   UNL     1      10.799   6.350   6.074  0.00  0.00    +0.152 C 
ATOM     10  C   UNL     1      10.549   4.913   6.654  0.00  0.00    +0.086 C 
ATOM     11  C   UNL     1       9.258   7.440   7.694  0.00  0.00    +0.140 C 
ATOM     12  C   UNL     1       9.258   6.141   8.397  0.00  0.00    +0.053 A 
ATOM     13  C   UNL     1       9.859   4.990   7.957  0.00  0.00    +0.065 A 
ATOM     17  C   UNL     1       9.009   4.505   9.834  0.00  0.00    +0.197 A 
ATOM     30  H   UNL     1       8.202   6.444  10.221  0.00  0.00    +0.167 HD
ENDROOT
BRANCH   9  15
ATOM      1  O   UNL     1      12.402   6.817   4.276  0.00  0.00    -0.336 OA
ATOM      6  N   UNL     1      10.666   5.552   3.641  0.00  0.00    -0.189 NA
ATOM      7  N   UNL     1      12.599   6.539   2.917  0.00  0.00    -0.054 NA
ATOM     15  C   UNL     1      11.243   6.199   4.623  0.00  0.00    +0.245 A 
ATOM     20  C   UNL     1      11.534   5.790   2.616  0.00  0.00    +0.220 A 
BRANCH  20  24
ATOM      8  N   UNL     1      12.263   4.425   0.835  0.00  0.00    -0.252 NA
ATOM     24  C   UNL     1      11.309   5.263   1.301  0.00  0.00    +0.111 A 
ATOM     25  C   UNL     1      10.174   5.617   0.591  0.00  0.00    +0.031 A 
ATOM     26  C   UNL     1      10.006   5.077  -0.680  0.00  0.00    +0.004 A 
ATOM     27  C   UNL     1      12.066   3.920  -0.404  0.00  0.00    +0.111 A 
ATOM     29  C   UNL     1      10.966   4.212  -1.193  0.00  0.00    +0.020 A 
ENDBRANCH  20  24
ENDBRANCH   9  15
BRANCH   3  14
ATOM     14  C   UNL     1       9.831   8.587   5.669  0.00  0.00    +0.120 C 
BRANCH  14  16
ATOM     16  C   UNL     1       8.764   8.936   4.665  0.00  0.00    -0.033 A 
ATOM     18  C   UNL     1       7.633   9.647   5.067  0.00  0.00    +0.008 A 
ATOM     19  C   UNL     1       8.905   8.547   3.334  0.00  0.00    +0.008 A 
ATOM     21  C   UNL     1       6.645   9.971   4.138  0.00  0.00    +0.046 A 
ATOM     22  C   UNL     1       7.918   8.871   2.403  0.00  0.00    +0.046 A 
ATOM     23  C   UNL     1       6.787   9.582   2.806  0.00  0.00    +0.120 A 
BRANCH  23   2
ATOM      2  O   UNL     1       5.824   9.898   1.898  0.00  0.00    -0.495 OA
ATOM     28  C   UNL     1       4.514  10.152   2.402  0.00  0.00    +0.277 C 
ENDBRANCH  23   2
ENDBRANCH  14  16
ENDBRANCH   3  14
TORSDOF 5
ENDMDL
MODEL 7
REMARK VINA RESULT:      -6.6     27.368     30.701
REMARK  Name = 26744806
REMARK  6 active torsions:
REMARK  status: ('A' for Active; 'I' for Inactive)
REMARK    1  A    between atoms: O_2  and  C_23
REMARK    2  A    between atoms: O_2  and  C_28
REMARK    3  A    between atoms: N_3  and  C_14
REMARK    4  A    between atoms: C_9  and  C_15
REMARK    5  A    between atoms: C_14  and  C_16
REMARK    6  A    between atoms: C_20  and  C_24
REMARK                            x       y       z     vdW  Elec       q    Type
REMARK                         _______ _______ _______ _____ _____    ______ ____
ROOT
ATOM      3  N   UNL     1      -6.142 -10.648  17.776  0.00  0.00    -0.281 NA
ATOM      4  N   UNL     1      -2.619 -11.288  16.663  0.00  0.00    -0.347 N 
ATOM      5  N   UNL     1      -3.412 -10.896  14.609  0.00  0.00    -0.240 NA
ATOM      9  C   UNL     1      -6.455  -9.749  16.612  0.00  0.00    +0.152 C 
ATOM     10  C   UNL     1      -5.762 -10.224  15.285  0.00  0.00    +0.086 C 
ATOM     11  C   UNL     1      -4.680 -10.712  18.065  0.00  0.00    +0.140 C 
ATOM     12  C   UNL     1      -3.913 -10.894  16.816  0.00  0.00    +0.053 A 
ATOM     13  C   UNL     1      -4.374 -10.654  15.547  0.00  0.00    +0.065 A 
ATOM     17  C   UNL     1      -2.363 -11.274  15.313  0.00  0.00    +0.197 A 
ATOM     30  H   UNL     1      -1.968 -11.539  17.395  0.00  0.00    +0.167 HD
ENDROOT
BRANCH   9  15
ATOM      1  O   UNL     1      -8.607 -10.718  15.943  0.00  0.00    -0.336 OA
ATOM      6  N   UNL     1      -8.701  -8.529  16.409  0.00  0.00    -0.189 NA
ATOM      7  N   UNL     1      -9.941 -10.334  15.747  0.00  0.00    -0.054 NA
ATOM     15  C   UNL     1      -7.946  -9.596  16.332  0.00  0.00    +0.245 A 
ATOM     20  C   UNL     1      -9.915  -9.031  16.041  0.00  0.00    +0.220 A 
BRANCH  20  24
ATOM      8  N   UNL     1     -12.267  -8.861  15.961  0.00  0.00    -0.252 NA
ATOM     24  C   UNL     1     -11.085  -8.204  15.979  0.00  0.00    +0.111 A 
ATOM     25  C   UNL     1     -10.964  -6.824  15.942  0.00  0.00    +0.031 A 
ATOM     26  C   UNL     1     -12.131  -6.070  15.882  0.00  0.00    +0.004 A 
ATOM     27  C   UNL     1     -13.379  -8.094  15.902  0.00  0.00    +0.111 A 
ATOM     29  C   UNL     1     -13.365  -6.710  15.861  0.00  0.00    +0.020 A 
ENDBRANCH  20  24
ENDBRANCH   9  15
BRANCH   3  14
ATOM     14  C   UNL     1      -6.832 -10.231  19.005  0.00  0.00    +0.120 C 
BRANCH  14  16
ATOM     16  C   UNL     1      -7.894 -11.218  19.414  0.00  0.00    -0.033 A 
ATOM     18  C   UNL     1      -9.217 -10.801  19.557  0.00  0.00    +0.008 A 
ATOM     19  C   UNL     1      -7.553 -12.549  19.650  0.00  0.00    +0.008 A 
ATOM     21  C   UNL     1     -10.199 -11.715  19.936  0.00  0.00    +0.046 A 
ATOM     22  C   UNL     1      -8.535 -13.465  20.028  0.00  0.00    +0.046 A 
ATOM     23  C   UNL     1      -9.859 -13.047  20.172  0.00  0.00    +0.120 A 
BRANCH  23   2
ATOM      2  O   UNL     1     -10.817 -13.940  20.540  0.00  0.00    -0.495 OA
ATOM     28  C   UNL     1     -11.846 -13.467  21.407  0.00  0.00    +0.277 C 
ENDBRANCH  23   2
ENDBRANCH  14  16
ENDBRANCH   3  14
TORSDOF 5
ENDMDL
MODEL 8
REMARK VINA RESULT:      -6.5     26.431     30.228
REMARK  Name = 26744806
REMARK  6 active torsions:
REMARK  status: ('A' for Active; 'I' for Inactive)
REMARK    1  A    between atoms: O_2  and  C_23
REMARK    2  A    between atoms: O_2  and  C_28
REMARK    3  A    between atoms: N_3  and  C_14
REMARK    4  A    between atoms: C_9  and  C_15
REMARK    5  A    between atoms: C_14  and  C_16
REMARK    6  A    between atoms: C_20  and  C_24
REMARK                            x       y       z     vdW  Elec       q    Type
REMARK                         _______ _______ _______ _____ _____    ______ ____
ROOT
ATOM      3  N   UNL     1      -8.429 -10.607  18.333  0.00  0.00    -0.281 NA
ATOM      4  N   UNL     1     -11.192 -12.260  20.257  0.00  0.00    -0.347 N 
ATOM      5  N   UNL     1      -9.664 -13.830  20.706  0.00  0.00    -0.240 NA
ATOM      9  C   UNL     1      -7.342 -11.213  19.177  0.00  0.00    +0.152 C 
ATOM     10  C   UNL     1      -7.679 -12.679  19.627  0.00  0.00    +0.086 C 
ATOM     11  C   UNL     1      -9.732 -10.535  19.056  0.00  0.00    +0.140 C 
ATOM     12  C   UNL     1     -10.012 -11.810  19.746  0.00  0.00    +0.053 A 
ATOM     13  C   UNL     1      -9.093 -12.784  20.039  0.00  0.00    +0.065 A 
ATOM     17  C   UNL     1     -10.931 -13.483  20.825  0.00  0.00    +0.197 A 
ATOM     30  H   UNL     1     -12.086 -11.788  20.230  0.00  0.00    +0.167 HD
ENDROOT
BRANCH   9  15
ATOM      1  O   UNL     1      -4.936 -11.691  19.249  0.00  0.00    -0.336 OA
ATOM      6  N   UNL     1      -5.643 -10.873  17.287  0.00  0.00    -0.189 NA
ATOM      7  N   UNL     1      -3.804 -11.617  18.427  0.00  0.00    -0.054 NA
ATOM     15  C   UNL     1      -5.975 -11.235  18.501  0.00  0.00    +0.245 A 
ATOM     20  C   UNL     1      -4.302 -11.126  17.289  0.00  0.00    +0.220 A 
BRANCH  20  24
ATOM      8  N   UNL     1      -4.135 -10.884  14.947  0.00  0.00    -0.252 NA
ATOM     24  C   UNL     1      -3.487 -10.878  16.134  0.00  0.00    +0.111 A 
ATOM     25  C   UNL     1      -2.127 -10.651  16.275  0.00  0.00    +0.031 A 
ATOM     26  C   UNL     1      -1.385 -10.416  15.122  0.00  0.00    +0.004 A 
ATOM     27  C   UNL     1      -3.380 -10.652  13.850  0.00  0.00    +0.111 A 
ATOM     29  C   UNL     1      -2.016 -10.415  13.883  0.00  0.00    +0.020 A 
ENDBRANCH  20  24
ENDBRANCH   9  15
BRANCH   3  14
ATOM     14  C   UNL     1      -8.089  -9.254  17.870  0.00  0.00    +0.120 C 
BRANCH  14  16
ATOM     16  C   UNL     1      -9.099  -8.729  16.885  0.00  0.00    -0.033 A 
ATOM     18  C   UNL     1      -9.937  -7.671  17.241  0.00  0.00    +0.008 A 
ATOM     19  C   UNL     1      -9.198  -9.300  15.617  0.00  0.00    +0.008 A 
ATOM     21  C   UNL     1     -10.872  -7.185  16.328  0.00  0.00    +0.046 A 
ATOM     22  C   UNL     1     -10.133  -8.814  14.703  0.00  0.00    +0.046 A 
ATOM     23  C   UNL     1     -10.970  -7.756  15.060  0.00  0.00    +0.120 A 
BRANCH  23   2
ATOM      2  O   UNL     1     -11.883  -7.281  14.168  0.00  0.00    -0.495 OA
ATOM     28  C   UNL     1     -12.329  -5.939  14.348  0.00  0.00    +0.277 C 
ENDBRANCH  23   2
ENDBRANCH  14  16
ENDBRANCH   3  14
TORSDOF 5
ENDMDL
MODEL 9
REMARK VINA RESULT:      -6.5     26.486     28.808
REMARK  Name = 26744806
REMARK  6 active torsions:
REMARK  status: ('A' for Active; 'I' for Inactive)
REMARK    1  A    between atoms: O_2  and  C_23
REMARK    2  A    between atoms: O_2  and  C_28
REMARK    3  A    between atoms: N_3  and  C_14
REMARK    4  A    between atoms: C_9  and  C_15
REMARK    5  A    between atoms: C_14  and  C_16
REMARK    6  A    between atoms: C_20  and  C_24
REMARK                            x       y       z     vdW  Elec       q    Type
REMARK                         _______ _______ _______ _____ _____    ______ ____
ROOT
ATOM      3  N   UNL     1     -11.855   8.131  19.472  0.00  0.00    -0.281 NA
ATOM      4  N   UNL     1     -10.591   7.786  15.958  0.00  0.00    -0.347 N 
ATOM      5  N   UNL     1     -11.034   9.973  15.801  0.00  0.00    -0.240 NA
ATOM      9  C   UNL     1     -11.477   9.583  19.574  0.00  0.00    +0.152 C 
ATOM     10  C   UNL     1     -11.687  10.353  18.222  0.00  0.00    +0.086 C 
ATOM     11  C   UNL     1     -11.048   7.407  18.447  0.00  0.00    +0.140 C 
ATOM     12  C   UNL     1     -10.966   8.197  17.201  0.00  0.00    +0.053 A 
ATOM     13  C   UNL     1     -11.225   9.537  17.081  0.00  0.00    +0.065 A 
ATOM     17  C   UNL     1     -10.648   8.894  15.148  0.00  0.00    +0.197 A 
ATOM     30  H   UNL     1     -10.319   6.853  15.681  0.00  0.00    +0.167 HD
ENDROOT
BRANCH   9  15
ATOM      1  O   UNL     1     -13.553  10.545  20.459  0.00  0.00    -0.336 OA
ATOM      6  N   UNL     1     -11.776  10.837  21.790  0.00  0.00    -0.189 NA
ATOM      7  N   UNL     1     -14.016  11.251  21.577  0.00  0.00    -0.054 NA
ATOM     15  C   UNL     1     -12.226  10.342  20.665  0.00  0.00    +0.245 A 
ATOM     20  C   UNL     1     -12.910  11.384  22.315  0.00  0.00    +0.220 A 
BRANCH  20  24
ATOM      8  N   UNL     1     -13.496  13.275  23.600  0.00  0.00    -0.252 NA
ATOM     24  C   UNL     1     -12.905  12.058  23.582  0.00  0.00    +0.111 A 
ATOM     25  C   UNL     1     -12.321  11.462  24.688  0.00  0.00    +0.031 A 
ATOM     26  C   UNL     1     -12.345  12.160  25.890  0.00  0.00    +0.004 A 
ATOM     27  C   UNL     1     -13.498  13.923  24.787  0.00  0.00    +0.111 A 
ATOM     29  C   UNL     1     -12.942  13.414  25.949  0.00  0.00    +0.020 A 
ENDBRANCH  20  24
ENDBRANCH   9  15
BRANCH   3  14
ATOM     14  C   UNL     1     -11.706   7.424  20.752  0.00  0.00    +0.120 C 
BRANCH  14  16
ATOM     16  C   UNL     1     -12.944   6.644  21.108  0.00  0.00    -0.033 A 
ATOM     18  C   UNL     1     -14.185   7.036  20.606  0.00  0.00    +0.008 A 
ATOM     19  C   UNL     1     -12.850   5.531  21.942  0.00  0.00    +0.008 A 
ATOM     21  C   UNL     1     -15.331   6.314  20.936  0.00  0.00    +0.046 A 
ATOM     22  C   UNL     1     -13.996   4.808  22.273  0.00  0.00    +0.046 A 
ATOM     23  C   UNL     1     -15.237   5.200  21.770  0.00  0.00    +0.120 A 
BRANCH  23   2
ATOM      2  O   UNL     1     -16.355   4.494  22.092  0.00  0.00    -0.495 OA
ATOM     28  C   UNL     1     -16.311   3.717  23.287  0.00  0.00    +0.277 C 
ENDBRANCH  23   2
ENDBRANCH  14  16
ENDBRANCH   3  14
TORSDOF 5
ENDMDL
MODEL 10
REMARK VINA RESULT:      -6.4     31.916     33.394
REMARK  Name = 26744806
REMARK  6 active torsions:
REMARK  status: ('A' for Active; 'I' for Inactive)
REMARK    1  A    between atoms: O_2  and  C_23
REMARK    2  A    between atoms: O_2  and  C_28
REMARK    3  A    between atoms: N_3  and  C_14
REMARK    4  A    between atoms: C_9  and  C_15
REMARK    5  A    between atoms: C_14  and  C_16
REMARK    6  A    between atoms: C_20  and  C_24
REMARK                            x       y       z     vdW  Elec       q    Type
REMARK                         _______ _______ _______ _____ _____    ______ ____
ROOT
ATOM      3  N   UNL     1     -14.196   5.724  33.873  0.00  0.00    -0.281 NA
ATOM      4  N   UNL     1     -12.578   8.603  35.649  0.00  0.00    -0.347 N 
ATOM      5  N   UNL     1     -13.592   9.862  34.104  0.00  0.00    -0.240 NA
ATOM      9  C   UNL     1     -15.345   6.551  33.364  0.00  0.00    +0.152 C 
ATOM     10  C   UNL     1     -14.908   8.009  32.979  0.00  0.00    +0.086 C 
ATOM     11  C   UNL     1     -13.573   6.312  35.094  0.00  0.00    +0.140 C 
ATOM     12  C   UNL     1     -13.365   7.764  34.920  0.00  0.00    +0.053 A 
ATOM     13  C   UNL     1     -13.979   8.558  33.987  0.00  0.00    +0.065 A 
ATOM     17  C   UNL     1     -12.749   9.858  35.118  0.00  0.00    +0.197 A 
ATOM     30  H   UNL     1     -11.986   8.357  36.431  0.00  0.00    +0.167 HD
ENDROOT
BRANCH   9  15
ATOM      1  O   UNL     1     -17.346   5.553  32.354  0.00  0.00    -0.336 OA
ATOM      6  N   UNL     1     -15.612   5.736  30.948  0.00  0.00    -0.189 NA
ATOM      7  N   UNL     1     -17.782   5.035  31.128  0.00  0.00    -0.054 NA
ATOM     15  C   UNL     1     -16.058   5.944  32.161  0.00  0.00    +0.245 A 
ATOM     20  C   UNL     1     -16.705   5.178  30.351  0.00  0.00    +0.220 A 
BRANCH  20  24
ATOM      8  N   UNL     1     -17.351   5.583  28.118  0.00  0.00    -0.252 NA
ATOM     24  C   UNL     1     -16.687   4.774  28.974  0.00  0.00    +0.111 A 
ATOM     25  C   UNL     1     -16.020   3.621  28.593  0.00  0.00    +0.031 A 
ATOM     26  C   UNL     1     -16.036   3.276  27.246  0.00  0.00    +0.004 A 
ATOM     27  C   UNL     1     -17.344   5.215  26.817  0.00  0.00    +0.111 A 
ATOM     29  C   UNL     1     -16.708   4.083  26.335  0.00  0.00    +0.020 A 
ENDBRANCH  20  24
ENDBRANCH   9  15
BRANCH   3  14
ATOM     14  C   UNL     1     -14.596   4.344  34.184  0.00  0.00    +0.120 C 
BRANCH  14  16
ATOM     16  C   UNL     1     -14.320   3.409  33.037  0.00  0.00    -0.033 A 
ATOM     18  C   UNL     1     -15.105   2.269  32.861  0.00  0.00    +0.008 A 
ATOM     19  C   UNL     1     -13.279   3.682  32.150  0.00  0.00    +0.008 A 
ATOM     21  C   UNL     1     -14.849   1.403  31.798  0.00  0.00    +0.046 A 
ATOM     22  C   UNL     1     -13.023   2.816  31.087  0.00  0.00    +0.046 A 
ATOM     23  C   UNL     1     -13.808   1.676  30.912  0.00  0.00    +0.120 A 
BRANCH  23   2
ATOM      2  O   UNL     1     -13.558   0.832  29.874  0.00  0.00    -0.495 OA
ATOM     28  C   UNL     1     -14.153  -0.463  29.932  0.00  0.00    +0.277 C 
ENDBRANCH  23   2
ENDBRANCH  14  16
ENDBRANCH   3  14
TORSDOF 5
ENDMDL
