REMARK  Name = 75537006
REMARK  4 active torsions:
REMARK  status: ('A' for Active; 'I' for Inactive)
REMARK    1  A    between atoms: O_3  and  C_19
REMARK    2  A    between atoms: O_3  and  C_22
REMARK    3  A    between atoms: N_6  and  C_14
REMARK    4  A    between atoms: N_7  and  C_16
REMARK                            x       y       z     vdW  Elec       q    Type
REMARK                         _______ _______ _______ _____ _____    ______ ____
ROOT
ATOM      1  O   UNL     1      -5.942  -0.514  -0.132  0.00  0.00    -0.252 OA
ATOM      2  O   UNL     1       0.672  -2.506  -0.378  0.00  0.00    -0.252 OA
ATOM      4  N   UNL     1      -3.601  -0.351  -0.244  0.00  0.00    -0.278 N 
ATOM      5  N   UNL     1      -0.945  -0.989   0.273  0.00  0.00    -0.282 N 
ATOM      6  N   UNL     1      -4.787   1.532   0.069  0.00  0.00    -0.287 N 
ATOM      7  N   UNL     1       1.226  -0.256  -0.278  0.00  0.00    -0.269 N 
ATOM      8  C   UNL     1      -2.614   0.716  -0.284  0.00  0.00    +0.112 C 
ATOM      9  C   UNL     1      -1.429   0.366   0.610  0.00  0.00    +0.133 C 
ATOM     10  C   UNL     1      -3.398   1.952   0.148  0.00  0.00    +0.133 C 
ATOM     11  C   UNL     1      -3.186  -1.730  -0.439  0.00  0.00    +0.128 C 
ATOM     12  C   UNL     1      -1.964  -2.040   0.426  0.00  0.00    +0.128 C 
ATOM     13  C   UNL     1      -4.907   0.139  -0.109  0.00  0.00    +0.305 C 
ATOM     14  C   UNL     1      -5.879   2.452   0.297  0.00  0.00    +0.133 C 
ATOM     15  C   UNL     1       0.357  -1.337  -0.140  0.00  0.00    +0.307 C 
ATOM     23  H   UNL     1       0.831   0.648  -0.515  0.00  0.00    +0.156 HD
ENDROOT
BRANCH   7  16
ATOM     16  C   UNL     1       2.632  -0.254  -0.093  0.00  0.00    +0.038 A 
ATOM     17  C   UNL     1       3.357   0.924  -0.274  0.00  0.00    +0.069 A 
ATOM     18  C   UNL     1       3.289  -1.430   0.267  0.00  0.00    +0.023 A 
ATOM     19  C   UNL     1       4.740   0.926  -0.093  0.00  0.00    +0.122 A 
ATOM     20  C   UNL     1       4.673  -1.428   0.447  0.00  0.00    +0.005 A 
ATOM     21  C   UNL     1       5.398  -0.250   0.268  0.00  0.00    +0.046 A 
BRANCH  19   3
ATOM      3  O   UNL     1       5.448   2.075  -0.270  0.00  0.00    -0.495 OA
ATOM     22  C   UNL     1       6.859   2.006  -0.071  0.00  0.00    +0.277 C 
ENDBRANCH  19   3
ENDBRANCH   7  16
TORSDOF 2
