MODEL 1
REMARK VINA RESULT:      -5.9      0.000      0.000
REMARK  Name = 40779435
REMARK  8 active torsions:
REMARK  status: ('A' for Active; 'I' for Inactive)
REMARK    1  A    between atoms: N_3  and  C_11
REMARK    2  A    between atoms: C_5  and  C_11
REMARK    3  A    between atoms: C_6  and  C_12
REMARK    4  A    between atoms: C_14  and  C_15
REMARK    5  A    between atoms: C_15  and  C_16
REMARK    6  A    between atoms: C_16  and  C_17
REMARK    7  A    between atoms: C_16  and  C_18
REMARK    8  A    between atoms: C_16  and  C_19
REMARK                            x       y       z     vdW  Elec       q    Type
REMARK                         _______ _______ _______ _____ _____    ______ ____
ROOT
ATOM      2  N   UNL     1      11.073   6.930   6.186  0.00  0.00    -0.297 NA
ATOM      4  C   UNL     1       8.849   7.033   7.529  0.00  0.00    -0.000 C 
ATOM      5  C   UNL     1       9.944   6.465   5.336  0.00  0.00    +0.074 C 
ATOM      6  C   UNL     1       9.925   6.244   8.312  0.00  0.00    +0.028 C 
ATOM      7  C   UNL     1       8.638   6.366   6.156  0.00  0.00    +0.024 C 
ATOM      8  C   UNL     1       9.414   8.444   7.275  0.00  0.00    +0.019 C 
ATOM      9  C   UNL     1      11.174   6.098   7.410  0.00  0.00    +0.092 C 
ATOM     10  C   UNL     1      10.790   8.326   6.599  0.00  0.00    +0.085 C 
ENDROOT
BRANCH   6  12
ATOM     12  C   UNL     1       9.433   4.917   8.802  0.00  0.00    -0.030 C 
ATOM     13  C   UNL     1       9.067   4.674  10.066  0.00  0.00    +0.004 C 
ENDBRANCH   6  12
BRANCH   5  11
ATOM     11  C   UNL     1      10.261   5.155   4.611  0.00  0.00    +0.123 C 
BRANCH  11   3
ATOM      1  O   UNL     1      10.616   5.430   1.751  0.00  0.00    -0.276 OA
ATOM      3  N   UNL     1      11.495   5.253   3.897  0.00  0.00    -0.314 N 
ATOM     14  C   UNL     1      11.580   5.384   2.513  0.00  0.00    +0.214 C 
ATOM     20  H   UNL     1      12.355   5.224   4.437  0.00  0.00    +0.149 HD
BRANCH  14  15
ATOM     15  C   UNL     1      13.007   5.460   1.996  0.00  0.00    +0.102 C 
BRANCH  15  16
ATOM     16  C   UNL     1      13.501   4.187   1.268  0.00  0.00    -0.029 C 
ATOM     17  C   UNL     1      12.677   2.956   1.683  0.00  0.00    +0.011 C 
ATOM     18  C   UNL     1      13.323   4.404  -0.247  0.00  0.00    +0.011 C 
ATOM     19  C   UNL     1      14.989   3.919   1.549  0.00  0.00    +0.011 C 
ENDBRANCH  15  16
ENDBRANCH  14  15
ENDBRANCH  11   3
ENDBRANCH   5  11
TORSDOF 5
ENDMDL
MODEL 2
REMARK VINA RESULT:      -5.5      1.312      2.818
REMARK  Name = 40779435
REMARK  8 active torsions:
REMARK  status: ('A' for Active; 'I' for Inactive)
REMARK    1  A    between atoms: N_3  and  C_11
REMARK    2  A    between atoms: C_5  and  C_11
REMARK    3  A    between atoms: C_6  and  C_12
REMARK    4  A    between atoms: C_14  and  C_15
REMARK    5  A    between atoms: C_15  and  C_16
REMARK    6  A    between atoms: C_16  and  C_17
REMARK    7  A    between atoms: C_16  and  C_18
REMARK    8  A    between atoms: C_16  and  C_19
REMARK                            x       y       z     vdW  Elec       q    Type
REMARK                         _______ _______ _______ _____ _____    ______ ____
ROOT
ATOM      2  N   UNL     1       9.908   5.327   5.798  0.00  0.00    -0.297 NA
ATOM      4  C   UNL     1       9.631   7.286   7.484  0.00  0.00    -0.000 C 
ATOM      5  C   UNL     1      11.102   6.213   5.747  0.00  0.00    +0.074 C 
ATOM      6  C   UNL     1       8.398   7.185   6.555  0.00  0.00    +0.028 C 
ATOM      7  C   UNL     1      10.895   7.470   6.622  0.00  0.00    +0.024 C 
ATOM      8  C   UNL     1       9.762   5.935   8.214  0.00  0.00    +0.019 C 
ATOM      9  C   UNL     1       8.679   6.098   5.490  0.00  0.00    +0.092 C 
ATOM     10  C   UNL     1       9.789   4.799   7.178  0.00  0.00    +0.085 C 
ENDROOT
BRANCH   6  12
ATOM     12  C   UNL     1       8.031   8.497   5.930  0.00  0.00    -0.030 C 
ATOM     13  C   UNL     1       7.944   8.698   4.610  0.00  0.00    +0.004 C 
ENDBRANCH   6  12
BRANCH   5  11
ATOM     11  C   UNL     1      11.497   6.577   4.314  0.00  0.00    +0.123 C 
BRANCH  11   3
ATOM      1  O   UNL     1      10.264   5.135   2.127  0.00  0.00    -0.276 OA
ATOM      3  N   UNL     1      12.017   5.438   3.624  0.00  0.00    -0.314 N 
ATOM     14  C   UNL     1      11.358   4.800   2.576  0.00  0.00    +0.214 C 
ATOM     20  H   UNL     1      12.920   5.080   3.922  0.00  0.00    +0.149 HD
BRANCH  14  15
ATOM     15  C   UNL     1      12.117   3.609   2.016  0.00  0.00    +0.102 C 
BRANCH  15  16
ATOM     16  C   UNL     1      13.202   3.966   0.972  0.00  0.00    -0.029 C 
ATOM     17  C   UNL     1      13.224   5.477   0.690  0.00  0.00    +0.011 C 
ATOM     18  C   UNL     1      14.572   3.558   1.548  0.00  0.00    +0.011 C 
ATOM     19  C   UNL     1      12.985   3.206  -0.347  0.00  0.00    +0.011 C 
ENDBRANCH  15  16
ENDBRANCH  14  15
ENDBRANCH  11   3
ENDBRANCH   5  11
TORSDOF 5
ENDMDL
MODEL 3
REMARK VINA RESULT:      -5.5     21.560     23.119
REMARK  Name = 40779435
REMARK  8 active torsions:
REMARK  status: ('A' for Active; 'I' for Inactive)
REMARK    1  A    between atoms: N_3  and  C_11
REMARK    2  A    between atoms: C_5  and  C_11
REMARK    3  A    between atoms: C_6  and  C_12
REMARK    4  A    between atoms: C_14  and  C_15
REMARK    5  A    between atoms: C_15  and  C_16
REMARK    6  A    between atoms: C_16  and  C_17
REMARK    7  A    between atoms: C_16  and  C_18
REMARK    8  A    between atoms: C_16  and  C_19
REMARK                            x       y       z     vdW  Elec       q    Type
REMARK                         _______ _______ _______ _____ _____    ______ ____
ROOT
ATOM      2  N   UNL     1       3.901 -16.976  -0.642  0.00  0.00    -0.297 NA
ATOM      4  C   UNL     1       4.736 -14.839   0.580  0.00  0.00    -0.000 C 
ATOM      5  C   UNL     1       4.401 -15.987  -1.634  0.00  0.00    +0.074 C 
ATOM      6  C   UNL     1       3.299 -15.197   1.024  0.00  0.00    +0.028 C 
ATOM      7  C   UNL     1       4.755 -14.648  -0.950  0.00  0.00    +0.024 C 
ATOM      8  C   UNL     1       5.628 -16.053   0.905  0.00  0.00    +0.019 C 
ATOM      9  C   UNL     1       2.806 -16.388   0.168  0.00  0.00    +0.092 C 
ATOM     10  C   UNL     1       5.020 -17.314   0.270  0.00  0.00    +0.085 C 
ENDROOT
BRANCH   6  12
ATOM     12  C   UNL     1       2.359 -14.032   0.951  0.00  0.00    -0.030 C 
ATOM     13  C   UNL     1       1.157 -14.075   0.365  0.00  0.00    +0.004 C 
ENDBRANCH   6  12
BRANCH   5  11
ATOM     11  C   UNL     1       3.430 -15.789  -2.800  0.00  0.00    +0.123 C 
BRANCH  11   3
ATOM      1  O   UNL     1       0.831 -14.842  -3.659  0.00  0.00    -0.276 OA
ATOM      3  N   UNL     1       2.978 -14.434  -2.864  0.00  0.00    -0.314 N 
ATOM     14  C   UNL     1       1.706 -14.061  -3.291  0.00  0.00    +0.214 C 
ATOM     20  H   UNL     1       3.630 -13.708  -2.580  0.00  0.00    +0.149 HD
BRANCH  14  15
ATOM     15  C   UNL     1       1.476 -12.559  -3.274  0.00  0.00    +0.102 C 
BRANCH  15  16
ATOM     16  C   UNL     1       1.404 -11.899  -4.672  0.00  0.00    -0.029 C 
ATOM     17  C   UNL     1      -0.006 -12.023  -5.271  0.00  0.00    +0.011 C 
ATOM     18  C   UNL     1       1.736 -10.403  -4.512  0.00  0.00    +0.011 C 
ATOM     19  C   UNL     1       2.424 -12.522  -5.641  0.00  0.00    +0.011 C 
ENDBRANCH  15  16
ENDBRANCH  14  15
ENDBRANCH  11   3
ENDBRANCH   5  11
TORSDOF 5
ENDMDL
MODEL 4
REMARK VINA RESULT:      -5.3     14.122     17.794
REMARK  Name = 40779435
REMARK  8 active torsions:
REMARK  status: ('A' for Active; 'I' for Inactive)
REMARK    1  A    between atoms: N_3  and  C_11
REMARK    2  A    between atoms: C_5  and  C_11
REMARK    3  A    between atoms: C_6  and  C_12
REMARK    4  A    between atoms: C_14  and  C_15
REMARK    5  A    between atoms: C_15  and  C_16
REMARK    6  A    between atoms: C_16  and  C_17
REMARK    7  A    between atoms: C_16  and  C_18
REMARK    8  A    between atoms: C_16  and  C_19
REMARK                            x       y       z     vdW  Elec       q    Type
REMARK                         _______ _______ _______ _____ _____    ______ ____
ROOT
ATOM      2  N   UNL     1      11.596   7.936  19.143  0.00  0.00    -0.297 NA
ATOM      4  C   UNL     1      13.780   9.115  18.370  0.00  0.00    -0.000 C 
ATOM      5  C   UNL     1      11.898   9.084  20.039  0.00  0.00    +0.074 C 
ATOM      6  C   UNL     1      14.012   7.596  18.549  0.00  0.00    +0.028 C 
ATOM      7  C   UNL     1      13.272   9.704  19.700  0.00  0.00    +0.024 C 
ATOM      8  C   UNL     1      12.657   9.284  17.330  0.00  0.00    +0.019 C 
ATOM      9  C   UNL     1      12.725   6.973  19.139  0.00  0.00    +0.092 C 
ATOM     10  C   UNL     1      11.433   8.461  17.766  0.00  0.00    +0.085 C 
ENDROOT
BRANCH   6  12
ATOM     12  C   UNL     1      15.216   7.285  19.385  0.00  0.00    -0.030 C 
ATOM     13  C   UNL     1      15.183   6.543  20.498  0.00  0.00    +0.004 C 
ENDBRANCH   6  12
BRANCH   5  11
ATOM     11  C   UNL     1      11.793   8.710  21.520  0.00  0.00    +0.123 C 
BRANCH  11   3
ATOM      1  O   UNL     1      13.100  10.775  23.073  0.00  0.00    -0.276 OA
ATOM      3  N   UNL     1      11.170   9.758  22.267  0.00  0.00    -0.314 N 
ATOM     14  C   UNL     1      11.875  10.716  22.991  0.00  0.00    +0.214 C 
ATOM     20  H   UNL     1      10.155   9.798  22.265  0.00  0.00    +0.149 HD
BRANCH  14  15
ATOM     15  C   UNL     1      10.981  11.717  23.705  0.00  0.00    +0.102 C 
BRANCH  15  16
ATOM     16  C   UNL     1      11.086  13.169  23.179  0.00  0.00    -0.029 C 
ATOM     17  C   UNL     1      11.085  13.203  21.642  0.00  0.00    +0.011 C 
ATOM     18  C   UNL     1       9.857  13.949  23.685  0.00  0.00    +0.011 C 
ATOM     19  C   UNL     1      12.352  13.867  23.702  0.00  0.00    +0.011 C 
ENDBRANCH  15  16
ENDBRANCH  14  15
ENDBRANCH  11   3
ENDBRANCH   5  11
TORSDOF 5
ENDMDL
MODEL 5
REMARK VINA RESULT:      -5.3     22.247     25.113
REMARK  Name = 40779435
REMARK  8 active torsions:
REMARK  status: ('A' for Active; 'I' for Inactive)
REMARK    1  A    between atoms: N_3  and  C_11
REMARK    2  A    between atoms: C_5  and  C_11
REMARK    3  A    between atoms: C_6  and  C_12
REMARK    4  A    between atoms: C_14  and  C_15
REMARK    5  A    between atoms: C_15  and  C_16
REMARK    6  A    between atoms: C_16  and  C_17
REMARK    7  A    between atoms: C_16  and  C_18
REMARK    8  A    between atoms: C_16  and  C_19
REMARK                            x       y       z     vdW  Elec       q    Type
REMARK                         _______ _______ _______ _____ _____    ______ ____
ROOT
ATOM      2  N   UNL     1      -4.953 -11.332  17.928  0.00  0.00    -0.297 NA
ATOM      4  C   UNL     1      -6.680 -10.475  16.183  0.00  0.00    -0.000 C 
ATOM      5  C   UNL     1      -4.309 -10.349  17.016  0.00  0.00    +0.074 C 
ATOM      6  C   UNL     1      -6.643 -12.021  16.203  0.00  0.00    +0.028 C 
ATOM      7  C   UNL     1      -5.267  -9.943  15.874  0.00  0.00    +0.024 C 
ATOM      8  C   UNL     1      -7.047 -10.012  17.606  0.00  0.00    +0.019 C 
ATOM      9  C   UNL     1      -5.507 -12.470  17.153  0.00  0.00    +0.092 C 
ATOM     10  C   UNL     1      -6.077 -10.651  18.614  0.00  0.00    +0.085 C 
ENDROOT
BRANCH   6  12
ATOM     12  C   UNL     1      -6.494 -12.618  14.836  0.00  0.00    -0.030 C 
ATOM     13  C   UNL     1      -5.389 -13.237  14.406  0.00  0.00    +0.004 C 
ENDBRANCH   6  12
BRANCH   5  11
ATOM     11  C   UNL     1      -2.964 -10.845  16.480  0.00  0.00    +0.123 C 
BRANCH  11   3
ATOM      1  O   UNL     1      -1.915 -12.311  14.214  0.00  0.00    -0.276 OA
ATOM      3  N   UNL     1      -2.726 -10.348  15.161  0.00  0.00    -0.314 N 
ATOM     14  C   UNL     1      -2.217 -11.123  14.122  0.00  0.00    +0.214 C 
ATOM     20  H   UNL     1      -2.943  -9.372  14.980  0.00  0.00    +0.149 HD
BRANCH  14  15
ATOM     15  C   UNL     1      -2.048 -10.358  12.820  0.00  0.00    +0.102 C 
BRANCH  15  16
ATOM     16  C   UNL     1      -3.180 -10.580  11.788  0.00  0.00    -0.029 C 
ATOM     17  C   UNL     1      -4.556 -10.265  12.397  0.00  0.00    +0.011 C 
ATOM     18  C   UNL     1      -2.940  -9.622  10.604  0.00  0.00    +0.011 C 
ATOM     19  C   UNL     1      -3.179 -12.022  11.254  0.00  0.00    +0.011 C 
ENDBRANCH  15  16
ENDBRANCH  14  15
ENDBRANCH  11   3
ENDBRANCH   5  11
TORSDOF 5
ENDMDL
MODEL 6
REMARK VINA RESULT:      -5.2     23.509     26.009
REMARK  Name = 40779435
REMARK  8 active torsions:
REMARK  status: ('A' for Active; 'I' for Inactive)
REMARK    1  A    between atoms: N_3  and  C_11
REMARK    2  A    between atoms: C_5  and  C_11
REMARK    3  A    between atoms: C_6  and  C_12
REMARK    4  A    between atoms: C_14  and  C_15
REMARK    5  A    between atoms: C_15  and  C_16
REMARK    6  A    between atoms: C_16  and  C_17
REMARK    7  A    between atoms: C_16  and  C_18
REMARK    8  A    between atoms: C_16  and  C_19
REMARK                            x       y       z     vdW  Elec       q    Type
REMARK                         _______ _______ _______ _____ _____    ______ ____
ROOT
ATOM      2  N   UNL     1      -2.881 -13.076  12.561  0.00  0.00    -0.297 NA
ATOM      4  C   UNL     1      -3.674 -10.634  12.966  0.00  0.00    -0.000 C 
ATOM      5  C   UNL     1      -4.093 -13.072  13.423  0.00  0.00    +0.074 C 
ATOM      6  C   UNL     1      -2.176 -10.788  13.317  0.00  0.00    +0.028 C 
ATOM      7  C   UNL     1      -4.492 -11.631  13.810  0.00  0.00    +0.024 C 
ATOM      8  C   UNL     1      -3.838 -11.036  11.487  0.00  0.00    +0.019 C 
ATOM      9  C   UNL     1      -1.797 -12.283  13.190  0.00  0.00    +0.092 C 
ATOM     10  C   UNL     1      -3.235 -12.434  11.272  0.00  0.00    +0.085 C 
ENDROOT
BRANCH   6  12
ATOM     12  C   UNL     1      -1.835 -10.240  14.669  0.00  0.00    -0.030 C 
ATOM     13  C   UNL     1      -1.186 -10.929  15.615  0.00  0.00    +0.004 C 
ENDBRANCH   6  12
BRANCH   5  11
ATOM     11  C   UNL     1      -3.935 -13.967  14.654  0.00  0.00    +0.123 C 
BRANCH  11   3
ATOM      1  O   UNL     1      -5.677 -14.424  16.922  0.00  0.00    -0.276 OA
ATOM      3  N   UNL     1      -4.012 -13.199  15.857  0.00  0.00    -0.314 N 
ATOM     14  C   UNL     1      -4.882 -13.487  16.906  0.00  0.00    +0.214 C 
ATOM     20  H   UNL     1      -3.393 -12.397  15.943  0.00  0.00    +0.149 HD
BRANCH  14  15
ATOM     15  C   UNL     1      -4.776 -12.514  18.068  0.00  0.00    +0.102 C 
BRANCH  15  16
ATOM     16  C   UNL     1      -5.584 -11.206  17.894  0.00  0.00    -0.029 C 
ATOM     17  C   UNL     1      -5.975 -10.609  19.256  0.00  0.00    +0.011 C 
ATOM     18  C   UNL     1      -4.692 -10.189  17.154  0.00  0.00    +0.011 C 
ATOM     19  C   UNL     1      -6.854 -11.436  17.057  0.00  0.00    +0.011 C 
ENDBRANCH  15  16
ENDBRANCH  14  15
ENDBRANCH  11   3
ENDBRANCH   5  11
TORSDOF 5
ENDMDL
MODEL 7
REMARK VINA RESULT:      -5.2      1.499      7.332
REMARK  Name = 40779435
REMARK  8 active torsions:
REMARK  status: ('A' for Active; 'I' for Inactive)
REMARK    1  A    between atoms: N_3  and  C_11
REMARK    2  A    between atoms: C_5  and  C_11
REMARK    3  A    between atoms: C_6  and  C_12
REMARK    4  A    between atoms: C_14  and  C_15
REMARK    5  A    between atoms: C_15  and  C_16
REMARK    6  A    between atoms: C_16  and  C_17
REMARK    7  A    between atoms: C_16  and  C_18
REMARK    8  A    between atoms: C_16  and  C_19
REMARK                            x       y       z     vdW  Elec       q    Type
REMARK                         _______ _______ _______ _____ _____    ______ ____
ROOT
ATOM      2  N   UNL     1      13.224   5.768   1.562  0.00  0.00    -0.297 NA
ATOM      4  C   UNL     1      13.578   3.315   0.776  0.00  0.00    -0.000 C 
ATOM      5  C   UNL     1      12.391   4.846   2.381  0.00  0.00    +0.074 C 
ATOM      6  C   UNL     1      13.213   4.226  -0.420  0.00  0.00    +0.028 C 
ATOM      7  C   UNL     1      12.460   3.403   1.833  0.00  0.00    +0.024 C 
ATOM      8  C   UNL     1      14.860   3.889   1.409  0.00  0.00    +0.019 C 
ATOM      9  C   UNL     1      12.880   5.636   0.125  0.00  0.00    +0.092 C 
ATOM     10  C   UNL     1      14.643   5.376   1.735  0.00  0.00    +0.085 C 
ENDROOT
BRANCH   6  12
ATOM     12  C   UNL     1      12.097   3.673  -1.254  0.00  0.00    -0.030 C 
ATOM     13  C   UNL     1      12.183   2.543  -1.965  0.00  0.00    +0.004 C 
ENDBRANCH   6  12
BRANCH   5  11
ATOM     11  C   UNL     1      10.946   5.333   2.518  0.00  0.00    +0.123 C 
BRANCH  11   3
ATOM      1  O   UNL     1       9.296   6.973   4.242  0.00  0.00    -0.276 OA
ATOM      3  N   UNL     1      10.408   4.980   3.795  0.00  0.00    -0.314 N 
ATOM     14  C   UNL     1       9.619   5.832   4.565  0.00  0.00    +0.214 C 
ATOM     20  H   UNL     1      10.619   4.054   4.154  0.00  0.00    +0.149 HD
BRANCH  14  15
ATOM     15  C   UNL     1       9.179   5.223   5.885  0.00  0.00    +0.102 C 
BRANCH  15  16
ATOM     16  C   UNL     1       9.739   5.931   7.143  0.00  0.00    -0.029 C 
ATOM     17  C   UNL     1       9.773   4.976   8.348  0.00  0.00    +0.011 C 
ATOM     18  C   UNL     1      11.181   6.379   6.836  0.00  0.00    +0.011 C 
ATOM     19  C   UNL     1       8.910   7.175   7.505  0.00  0.00    +0.011 C 
ENDBRANCH  15  16
ENDBRANCH  14  15
ENDBRANCH  11   3
ENDBRANCH   5  11
TORSDOF 5
ENDMDL
MODEL 8
REMARK VINA RESULT:      -5.2     22.289     25.533
REMARK  Name = 40779435
REMARK  8 active torsions:
REMARK  status: ('A' for Active; 'I' for Inactive)
REMARK    1  A    between atoms: N_3  and  C_11
REMARK    2  A    between atoms: C_5  and  C_11
REMARK    3  A    between atoms: C_6  and  C_12
REMARK    4  A    between atoms: C_14  and  C_15
REMARK    5  A    between atoms: C_15  and  C_16
REMARK    6  A    between atoms: C_16  and  C_17
REMARK    7  A    between atoms: C_16  and  C_18
REMARK    8  A    between atoms: C_16  and  C_19
REMARK                            x       y       z     vdW  Elec       q    Type
REMARK                         _______ _______ _______ _____ _____    ______ ____
ROOT
ATOM      2  N   UNL     1      -3.181 -11.524  13.160  0.00  0.00    -0.297 NA
ATOM      4  C   UNL     1      -4.054 -11.594  10.712  0.00  0.00    -0.000 C 
ATOM      5  C   UNL     1      -4.663 -11.397  13.146  0.00  0.00    +0.074 C 
ATOM      6  C   UNL     1      -2.942 -10.529  10.867  0.00  0.00    +0.028 C 
ATOM      7  C   UNL     1      -5.194 -11.276  11.700  0.00  0.00    +0.024 C 
ATOM      8  C   UNL     1      -3.447 -12.948  11.128  0.00  0.00    +0.019 C 
ATOM      9  C   UNL     1      -2.561 -10.437  12.364  0.00  0.00    +0.092 C 
ATOM     10  C   UNL     1      -2.827 -12.818  12.529  0.00  0.00    +0.085 C 
ENDROOT
BRANCH   6  12
ATOM     12  C   UNL     1      -3.332  -9.194  10.308  0.00  0.00    -0.030 C 
ATOM     13  C   UNL     1      -4.035  -9.031   9.182  0.00  0.00    +0.004 C 
ENDBRANCH   6  12
BRANCH   5  11
ATOM     11  C   UNL     1      -5.158 -10.250  14.031  0.00  0.00    +0.123 C 
BRANCH  11   3
ATOM      1  O   UNL     1      -6.634 -10.353  16.520  0.00  0.00    -0.276 OA
ATOM      3  N   UNL     1      -4.623 -10.358  15.352  0.00  0.00    -0.314 N 
ATOM     14  C   UNL     1      -5.406 -10.402  16.503  0.00  0.00    +0.214 C 
ATOM     20  H   UNL     1      -3.612 -10.405  15.447  0.00  0.00    +0.149 HD
BRANCH  14  15
ATOM     15  C   UNL     1      -4.596 -10.510  17.784  0.00  0.00    +0.102 C 
BRANCH  15  16
ATOM     16  C   UNL     1      -4.852 -11.797  18.605  0.00  0.00    -0.029 C 
ATOM     17  C   UNL     1      -6.084 -11.640  19.513  0.00  0.00    +0.011 C 
ATOM     18  C   UNL     1      -5.119 -12.948  17.616  0.00  0.00    +0.011 C 
ATOM     19  C   UNL     1      -3.632 -12.168  19.465  0.00  0.00    +0.011 C 
ENDBRANCH  15  16
ENDBRANCH  14  15
ENDBRANCH  11   3
ENDBRANCH   5  11
TORSDOF 5
ENDMDL
MODEL 9
REMARK VINA RESULT:      -5.2     22.254     25.040
REMARK  Name = 40779435
REMARK  8 active torsions:
REMARK  status: ('A' for Active; 'I' for Inactive)
REMARK    1  A    between atoms: N_3  and  C_11
REMARK    2  A    between atoms: C_5  and  C_11
REMARK    3  A    between atoms: C_6  and  C_12
REMARK    4  A    between atoms: C_14  and  C_15
REMARK    5  A    between atoms: C_15  and  C_16
REMARK    6  A    between atoms: C_16  and  C_17
REMARK    7  A    between atoms: C_16  and  C_18
REMARK    8  A    between atoms: C_16  and  C_19
REMARK                            x       y       z     vdW  Elec       q    Type
REMARK                         _______ _______ _______ _____ _____    ______ ____
ROOT
ATOM      2  N   UNL     1      -4.996 -10.334  15.988  0.00  0.00    -0.297 NA
ATOM      4  C   UNL     1      -6.652 -11.637  17.511  0.00  0.00    -0.000 C 
ATOM      5  C   UNL     1      -5.138 -11.733  15.504  0.00  0.00    +0.074 C 
ATOM      6  C   UNL     1      -5.548 -10.960  18.357  0.00  0.00    +0.028 C 
ATOM      7  C   UNL     1      -5.991 -12.573  16.481  0.00  0.00    +0.024 C 
ATOM      8  C   UNL     1      -7.372 -10.522  16.728  0.00  0.00    +0.019 C 
ATOM      9  C   UNL     1      -4.520 -10.320  17.393  0.00  0.00    +0.092 C 
ATOM     10  C   UNL     1      -6.335  -9.698  15.948  0.00  0.00    +0.085 C 
ENDROOT
BRANCH   6  12
ATOM     12  C   UNL     1      -4.894 -11.901  19.323  0.00  0.00    -0.030 C 
ATOM     13  C   UNL     1      -3.579 -12.144  19.358  0.00  0.00    +0.004 C 
ENDBRANCH   6  12
BRANCH   5  11
ATOM     11  C   UNL     1      -3.786 -12.392  15.220  0.00  0.00    +0.123 C 
BRANCH  11   3
ATOM      1  O   UNL     1      -2.183 -10.283  14.050  0.00  0.00    -0.276 OA
ATOM      3  N   UNL     1      -3.423 -12.240  13.845  0.00  0.00    -0.314 N 
ATOM     14  C   UNL     1      -2.645 -11.191  13.362  0.00  0.00    +0.214 C 
ATOM     20  H   UNL     1      -3.758 -12.941  13.191  0.00  0.00    +0.149 HD
BRANCH  14  15
ATOM     15  C   UNL     1      -2.408 -11.252  11.862  0.00  0.00    +0.102 C 
BRANCH  15  16
ATOM     16  C   UNL     1      -3.472 -10.523  11.008  0.00  0.00    -0.029 C 
ATOM     17  C   UNL     1      -4.647 -10.044  11.876  0.00  0.00    +0.011 C 
ATOM     18  C   UNL     1      -2.807  -9.290  10.366  0.00  0.00    +0.011 C 
ATOM     19  C   UNL     1      -4.007 -11.426   9.884  0.00  0.00    +0.011 C 
ENDBRANCH  15  16
ENDBRANCH  14  15
ENDBRANCH  11   3
ENDBRANCH   5  11
TORSDOF 5
ENDMDL
MODEL 10
REMARK VINA RESULT:      -5.2     22.181     25.447
REMARK  Name = 40779435
REMARK  8 active torsions:
REMARK  status: ('A' for Active; 'I' for Inactive)
REMARK    1  A    between atoms: N_3  and  C_11
REMARK    2  A    between atoms: C_5  and  C_11
REMARK    3  A    between atoms: C_6  and  C_12
REMARK    4  A    between atoms: C_14  and  C_15
REMARK    5  A    between atoms: C_15  and  C_16
REMARK    6  A    between atoms: C_16  and  C_17
REMARK    7  A    between atoms: C_16  and  C_18
REMARK    8  A    between atoms: C_16  and  C_19
REMARK                            x       y       z     vdW  Elec       q    Type
REMARK                         _______ _______ _______ _____ _____    ______ ____
ROOT
ATOM      2  N   UNL     1      -5.271  -9.995  11.291  0.00  0.00    -0.297 NA
ATOM      4  C   UNL     1      -2.799 -10.793  11.203  0.00  0.00    -0.000 C 
ATOM      5  C   UNL     1      -4.684  -9.979  12.658  0.00  0.00    +0.074 C 
ATOM      6  C   UNL     1      -3.729 -11.815  10.507  0.00  0.00    +0.028 C 
ATOM      7  C   UNL     1      -3.268 -10.598  12.659  0.00  0.00    +0.024 C 
ATOM      8  C   UNL     1      -2.977  -9.447  10.476  0.00  0.00    +0.019 C 
ATOM      9  C   UNL     1      -5.193 -11.358  10.711  0.00  0.00    +0.092 C 
ATOM     10  C   UNL     1      -4.471  -9.083  10.439  0.00  0.00    +0.085 C 
ENDROOT
BRANCH   6  12
ATOM     12  C   UNL     1      -3.512 -13.219  10.983  0.00  0.00    -0.030 C 
ATOM     13  C   UNL     1      -4.463 -13.974  11.546  0.00  0.00    +0.004 C 
ENDBRANCH   6  12
BRANCH   5  11
ATOM     11  C   UNL     1      -5.596 -10.644  13.691  0.00  0.00    +0.123 C 
BRANCH  11   3
ATOM      1  O   UNL     1      -6.110  -9.379  16.245  0.00  0.00    -0.276 OA
ATOM      3  N   UNL     1      -4.900 -10.860  14.922  0.00  0.00    -0.314 N 
ATOM     14  C   UNL     1      -5.211 -10.207  16.112  0.00  0.00    +0.214 C 
ATOM     20  H   UNL     1      -4.135 -11.529  14.918  0.00  0.00    +0.149 HD
BRANCH  14  15
ATOM     15  C   UNL     1      -4.318 -10.606  17.275  0.00  0.00    +0.102 C 
BRANCH  15  16
ATOM     16  C   UNL     1      -5.014 -11.456  18.364  0.00  0.00    -0.029 C 
ATOM     17  C   UNL     1      -5.847 -12.586  17.737  0.00  0.00    +0.011 C 
ATOM     18  C   UNL     1      -3.921 -12.088  19.248  0.00  0.00    +0.011 C 
ATOM     19  C   UNL     1      -5.921 -10.593  19.257  0.00  0.00    +0.011 C 
ENDBRANCH  15  16
ENDBRANCH  14  15
ENDBRANCH  11   3
ENDBRANCH   5  11
TORSDOF 5
ENDMDL
