MODEL 1
REMARK VINA RESULT:      -6.5      0.000      0.000
REMARK  Name = 26742833
REMARK  3 active torsions:
REMARK  status: ('A' for Active; 'I' for Inactive)
REMARK    1  A    between atoms: N_6  and  C_20
REMARK    2  A    between atoms: C_11  and  C_17
REMARK    3  A    between atoms: C_20  and  C_21
REMARK                            x       y       z     vdW  Elec       q    Type
REMARK                         _______ _______ _______ _____ _____    ______ ____
ROOT
ATOM      1  O   UNL     1      -1.481  -9.809  11.926  0.00  0.00    -0.275 OA
ATOM      2  O   UNL     1      -4.601 -11.464  17.977  0.00  0.00    -0.276 OA
ATOM      5  N   UNL     1      -2.716 -11.657  12.624  0.00  0.00    -0.301 N 
ATOM      6  N   UNL     1      -5.983 -10.980  16.177  0.00  0.00    -0.297 N 
ATOM      7  C   UNL     1      -4.732 -12.652  13.686  0.00  0.00    +0.011 C 
ATOM      8  C   UNL     1      -3.875 -12.945  14.939  0.00  0.00    +0.004 C 
ATOM      9  C   UNL     1      -3.825 -12.600  12.440  0.00  0.00    +0.111 C 
ATOM     10  C   UNL     1      -2.701 -11.956  15.067  0.00  0.00    +0.023 C 
ATOM     12  C   UNL     1      -5.593 -11.377  13.763  0.00  0.00    +0.024 C 
ATOM     13  C   UNL     1      -1.870 -11.919  13.787  0.00  0.00    +0.108 C 
ATOM     16  C   UNL     1      -4.685 -13.082  16.235  0.00  0.00    +0.100 C 
ATOM     17  C   UNL     1      -2.423 -10.584  11.776  0.00  0.00    +0.219 C 
ATOM     18  C   UNL     1      -6.593 -11.390  14.914  0.00  0.00    +0.108 C 
ATOM     19  C   UNL     1      -5.083 -11.770  16.883  0.00  0.00    +0.216 C 
ENDROOT
BRANCH  17  11
ATOM     11  C   UNL     1      -3.327 -10.367  10.606  0.00  0.00    +0.075 C 
ATOM     14  C   UNL     1      -3.305  -9.043   9.901  0.00  0.00    +0.013 C 
ATOM     15  C   UNL     1      -4.487  -9.424  10.744  0.00  0.00    +0.013 C 
ENDBRANCH  17  11
BRANCH   6  20
ATOM     20  C   UNL     1      -6.354  -9.665  16.684  0.00  0.00    +0.143 C 
BRANCH  20  21
ATOM      3  O   UNL     1      -9.619 -11.139  20.093  0.00  0.00    -0.453 OA
ATOM      4  O   UNL     1     -11.378  -9.776  19.167  0.00  0.00    -0.453 OA
ATOM     21  C   UNL     1      -7.712  -9.672  17.323  0.00  0.00    -0.026 A 
ATOM     22  C   UNL     1      -7.945 -10.465  18.449  0.00  0.00    +0.054 A 
ATOM     23  C   UNL     1      -8.739  -8.877  16.782  0.00  0.00    +0.009 A 
ATOM     24  C   UNL     1      -9.209 -10.436  19.002  0.00  0.00    +0.167 A 
ATOM     25  C   UNL     1     -10.009  -8.865  17.362  0.00  0.00    +0.050 A 
ATOM     26  C   UNL     1     -10.213  -9.658  18.473  0.00  0.00    +0.166 A 
ATOM     27  C   UNL     1     -10.995 -10.715  20.192  0.00  0.00    +0.466 C 
ENDBRANCH  20  21
ENDBRANCH   6  20
TORSDOF 3
ENDMDL
MODEL 2
REMARK VINA RESULT:      -6.5     19.676     20.811
REMARK  Name = 26742833
REMARK  3 active torsions:
REMARK  status: ('A' for Active; 'I' for Inactive)
REMARK    1  A    between atoms: N_6  and  C_20
REMARK    2  A    between atoms: C_11  and  C_17
REMARK    3  A    between atoms: C_20  and  C_21
REMARK                            x       y       z     vdW  Elec       q    Type
REMARK                         _______ _______ _______ _____ _____    ______ ____
ROOT
ATOM      1  O   UNL     1     -12.542  11.175  13.899  0.00  0.00    -0.275 OA
ATOM      2  O   UNL     1     -11.765  10.673  20.844  0.00  0.00    -0.276 OA
ATOM      5  N   UNL     1     -11.063   9.986  15.251  0.00  0.00    -0.301 N 
ATOM      6  N   UNL     1     -12.558   8.796  19.734  0.00  0.00    -0.297 N 
ATOM      7  C   UNL     1     -10.606   8.457  17.157  0.00  0.00    +0.011 C 
ATOM      8  C   UNL     1     -10.122   9.682  17.968  0.00  0.00    +0.004 C 
ATOM      9  C   UNL     1     -10.421   8.729  15.651  0.00  0.00    +0.111 C 
ATOM     10  C   UNL     1     -10.792  10.982  17.486  0.00  0.00    +0.023 C 
ATOM     12  C   UNL     1     -12.055   8.015  17.438  0.00  0.00    +0.024 C 
ATOM     13  C   UNL     1     -10.611  11.169  15.982  0.00  0.00    +0.108 C 
ATOM     16  C   UNL     1     -10.201   9.498  19.489  0.00  0.00    +0.100 C 
ATOM     17  C   UNL     1     -12.023  10.115  14.242  0.00  0.00    +0.219 C 
ATOM     18  C   UNL     1     -12.300   7.630  18.893  0.00  0.00    +0.108 C 
ATOM     19  C   UNL     1     -11.577   9.714  20.090  0.00  0.00    +0.216 C 
ENDROOT
BRANCH  17  11
ATOM     11  C   UNL     1     -12.445   8.869  13.534  0.00  0.00    +0.075 C 
ATOM     14  C   UNL     1     -13.713   8.878  12.732  0.00  0.00    +0.013 C 
ATOM     15  C   UNL     1     -13.650   8.122  14.026  0.00  0.00    +0.013 C 
ENDBRANCH  17  11
BRANCH   6  20
ATOM     20  C   UNL     1     -13.928   8.977  20.196  0.00  0.00    +0.143 C 
BRANCH  20  21
ATOM      3  O   UNL     1     -14.369   5.411  23.594  0.00  0.00    -0.453 OA
ATOM      4  O   UNL     1     -16.038   4.235  22.314  0.00  0.00    -0.453 OA
ATOM     21  C   UNL     1     -14.513   7.703  20.732  0.00  0.00    -0.026 A 
ATOM     22  C   UNL     1     -14.089   7.211  21.968  0.00  0.00    +0.054 A 
ATOM     23  C   UNL     1     -15.488   7.016  19.985  0.00  0.00    +0.009 A 
ATOM     24  C   UNL     1     -14.658   6.037  22.421  0.00  0.00    +0.167 A 
ATOM     25  C   UNL     1     -16.048   5.831  20.466  0.00  0.00    +0.050 A 
ATOM     26  C   UNL     1     -15.610   5.366  21.690  0.00  0.00    +0.166 A 
ATOM     27  C   UNL     1     -15.248   4.270  23.520  0.00  0.00    +0.466 C 
ENDBRANCH  20  21
ENDBRANCH   6  20
TORSDOF 3
ENDMDL
MODEL 3
REMARK VINA RESULT:      -6.4      2.345      4.668
REMARK  Name = 26742833
REMARK  3 active torsions:
REMARK  status: ('A' for Active; 'I' for Inactive)
REMARK    1  A    between atoms: N_6  and  C_20
REMARK    2  A    between atoms: C_11  and  C_17
REMARK    3  A    between atoms: C_20  and  C_21
REMARK                            x       y       z     vdW  Elec       q    Type
REMARK                         _______ _______ _______ _____ _____    ______ ____
ROOT
ATOM      1  O   UNL     1      -8.321  -9.768  12.907  0.00  0.00    -0.275 OA
ATOM      2  O   UNL     1      -1.394  -9.779  13.965  0.00  0.00    -0.276 OA
ATOM      5  N   UNL     1      -6.598 -11.135  12.140  0.00  0.00    -0.301 N 
ATOM      6  N   UNL     1      -2.608 -11.515  14.912  0.00  0.00    -0.297 N 
ATOM      7  C   UNL     1      -4.589 -12.542  12.549  0.00  0.00    +0.011 C 
ATOM      8  C   UNL     1      -3.722 -11.393  11.983  0.00  0.00    +0.004 C 
ATOM      9  C   UNL     1      -6.006 -12.464  11.946  0.00  0.00    +0.111 C 
ATOM     10  C   UNL     1      -4.402 -10.024  12.172  0.00  0.00    +0.023 C 
ATOM     12  C   UNL     1      -4.673 -12.605  14.085  0.00  0.00    +0.024 C 
ATOM     13  C   UNL     1      -5.815 -10.027  11.595  0.00  0.00    +0.108 C 
ATOM     16  C   UNL     1      -2.266 -11.409  12.467  0.00  0.00    +0.100 C 
ATOM     17  C   UNL     1      -7.822 -10.882  12.767  0.00  0.00    +0.219 C 
ATOM     18  C   UNL     1      -3.317 -12.783  14.760  0.00  0.00    +0.108 C 
ATOM     19  C   UNL     1      -2.044 -10.822  13.848  0.00  0.00    +0.216 C 
ENDROOT
BRANCH  17  11
ATOM     11  C   UNL     1      -8.573 -12.057  13.305  0.00  0.00    +0.075 C 
ATOM     14  C   UNL     1      -9.727 -11.823  14.234  0.00  0.00    +0.013 C 
ATOM     15  C   UNL     1      -8.446 -12.400  14.760  0.00  0.00    +0.013 C 
ENDBRANCH  17  11
BRANCH   6  20
ATOM     20  C   UNL     1      -2.517 -10.977  16.264  0.00  0.00    +0.143 C 
BRANCH  20  21
ATOM      3  O   UNL     1      -7.131  -9.207  16.437  0.00  0.00    -0.453 OA
ATOM      4  O   UNL     1      -7.603 -10.316  18.524  0.00  0.00    -0.453 OA
ATOM     21  C   UNL     1      -3.868 -10.820  16.898  0.00  0.00    -0.026 A 
ATOM     22  C   UNL     1      -4.840 -10.036  16.274  0.00  0.00    +0.054 A 
ATOM     23  C   UNL     1      -4.143 -11.468  18.116  0.00  0.00    +0.009 A 
ATOM     24  C   UNL     1      -6.068  -9.924  16.894  0.00  0.00    +0.167 A 
ATOM     25  C   UNL     1      -5.395 -11.339  18.722  0.00  0.00    +0.050 A 
ATOM     26  C   UNL     1      -6.338 -10.558  18.085  0.00  0.00    +0.166 A 
ATOM     27  C   UNL     1      -8.100  -9.460  17.476  0.00  0.00    +0.466 C 
ENDBRANCH  20  21
ENDBRANCH   6  20
TORSDOF 3
ENDMDL
MODEL 4
REMARK VINA RESULT:      -6.3     28.288     30.837
REMARK  Name = 26742833
REMARK  3 active torsions:
REMARK  status: ('A' for Active; 'I' for Inactive)
REMARK    1  A    between atoms: N_6  and  C_20
REMARK    2  A    between atoms: C_11  and  C_17
REMARK    3  A    between atoms: C_20  and  C_21
REMARK                            x       y       z     vdW  Elec       q    Type
REMARK                         _______ _______ _______ _____ _____    ______ ____
ROOT
ATOM      1  O   UNL     1      10.733   9.714  22.559  0.00  0.00    -0.275 OA
ATOM      2  O   UNL     1      17.385  11.413  21.160  0.00  0.00    -0.276 OA
ATOM      5  N   UNL     1      11.915  10.003  20.573  0.00  0.00    -0.301 N 
ATOM      6  N   UNL     1      16.728   9.241  20.676  0.00  0.00    -0.297 N 
ATOM      7  C   UNL     1      13.887   9.548  19.127  0.00  0.00    +0.011 C 
ATOM      8  C   UNL     1      14.406  10.966  19.463  0.00  0.00    +0.004 C 
ATOM      9  C   UNL     1      12.351   9.516  19.259  0.00  0.00    +0.111 C 
ATOM     10  C   UNL     1      13.891  11.449  20.831  0.00  0.00    +0.023 C 
ATOM     12  C   UNL     1      14.509   8.408  19.956  0.00  0.00    +0.024 C 
ATOM     13  C   UNL     1      12.369  11.350  20.912  0.00  0.00    +0.108 C 
ATOM     16  C   UNL     1      15.923  11.132  19.303  0.00  0.00    +0.100 C 
ATOM     17  C   UNL     1      11.110   9.292  21.468  0.00  0.00    +0.219 C 
ATOM     18  C   UNL     1      16.023   8.305  19.804  0.00  0.00    +0.108 C 
ATOM     19  C   UNL     1      16.750  10.615  20.465  0.00  0.00    +0.216 C 
ENDROOT
BRANCH  17  11
ATOM     11  C   UNL     1      10.682   7.919  21.064  0.00  0.00    +0.075 C 
ATOM     14  C   UNL     1      10.195   6.966  22.116  0.00  0.00    +0.013 C 
ATOM     15  C   UNL     1      11.527   6.743  21.461  0.00  0.00    +0.013 C 
ENDBRANCH  17  11
BRANCH   6  20
ATOM     20  C   UNL     1      17.424   8.668  21.821  0.00  0.00    +0.143 C 
BRANCH  20  21
ATOM      3  O   UNL     1      20.512   5.046  20.480  0.00  0.00    -0.453 OA
ATOM      4  O   UNL     1      22.408   6.532  20.399  0.00  0.00    -0.453 OA
ATOM     21  C   UNL     1      18.774   8.129  21.446  0.00  0.00    -0.026 A 
ATOM     22  C   UNL     1      18.921   6.774  21.144  0.00  0.00    +0.054 A 
ATOM     23  C   UNL     1      19.880   8.997  21.398  0.00  0.00    +0.009 A 
ATOM     24  C   UNL     1      20.181   6.326  20.802  0.00  0.00    +0.167 A 
ATOM     25  C   UNL     1      21.145   8.518  21.048  0.00  0.00    +0.050 A 
ATOM     26  C   UNL     1      21.262   7.174  20.756  0.00  0.00    +0.166 A 
ATOM     27  C   UNL     1      21.926   5.184  20.225  0.00  0.00    +0.466 C 
ENDBRANCH  20  21
ENDBRANCH   6  20
TORSDOF 3
ENDMDL
MODEL 5
REMARK VINA RESULT:      -6.2     24.559     27.780
REMARK  Name = 26742833
REMARK  3 active torsions:
REMARK  status: ('A' for Active; 'I' for Inactive)
REMARK    1  A    between atoms: N_6  and  C_20
REMARK    2  A    between atoms: C_11  and  C_17
REMARK    3  A    between atoms: C_20  and  C_21
REMARK                            x       y       z     vdW  Elec       q    Type
REMARK                         _______ _______ _______ _____ _____    ______ ____
ROOT
ATOM      1  O   UNL     1      13.250   9.809   2.931  0.00  0.00    -0.275 OA
ATOM      2  O   UNL     1       7.921   7.703   6.962  0.00  0.00    -0.276 OA
ATOM      5  N   UNL     1      12.903   9.811   5.234  0.00  0.00    -0.301 N 
ATOM      6  N   UNL     1       9.877   6.459   7.066  0.00  0.00    -0.297 N 
ATOM      7  C   UNL     1      12.257   8.655   7.339  0.00  0.00    +0.011 C 
ATOM      8  C   UNL     1      10.908   9.412   7.290  0.00  0.00    +0.004 C 
ATOM      9  C   UNL     1      13.334   9.471   6.595  0.00  0.00    +0.111 C 
ATOM     10  C   UNL     1      10.519   9.783   5.847  0.00  0.00    +0.023 C 
ATOM     12  C   UNL     1      12.220   7.214   6.797  0.00  0.00    +0.024 C 
ATOM     13  C   UNL     1      11.643  10.548   5.153  0.00  0.00    +0.108 C 
ATOM     16  C   UNL     1       9.773   8.721   8.056  0.00  0.00    +0.100 C 
ATOM     17  C   UNL     1      13.608   9.503   4.066  0.00  0.00    +0.219 C 
ATOM     18  C   UNL     1      11.248   6.309   7.546  0.00  0.00    +0.108 C 
ATOM     19  C   UNL     1       9.099   7.584   7.313  0.00  0.00    +0.216 C 
ENDROOT
BRANCH  17  11
ATOM     11  C   UNL     1      14.887   8.746   4.216  0.00  0.00    +0.075 C 
ATOM     14  C   UNL     1      15.523   8.138   3.001  0.00  0.00    +0.013 C 
ATOM     15  C   UNL     1      14.880   7.257   4.031  0.00  0.00    +0.013 C 
ENDBRANCH  17  11
BRANCH   6  20
ATOM     20  C   UNL     1       9.336   5.354   6.283  0.00  0.00    +0.143 C 
BRANCH  20  21
ATOM      3  O   UNL     1      11.667   3.475   2.348  0.00  0.00    -0.453 OA
ATOM      4  O   UNL     1      11.127   5.378   0.972  0.00  0.00    -0.453 OA
ATOM     21  C   UNL     1       9.801   5.395   4.857  0.00  0.00    -0.026 A 
ATOM     22  C   UNL     1      10.539   4.330   4.338  0.00  0.00    +0.054 A 
ATOM     23  C   UNL     1       9.486   6.506   4.054  0.00  0.00    +0.009 A 
ATOM     24  C   UNL     1      10.943   4.411   3.021  0.00  0.00    +0.167 A 
ATOM     25  C   UNL     1       9.905   6.563   2.723  0.00  0.00    +0.050 A 
ATOM     26  C   UNL     1      10.634   5.498   2.235  0.00  0.00    +0.166 A 
ATOM     27  C   UNL     1      11.779   4.095   1.050  0.00  0.00    +0.466 C 
ENDBRANCH  20  21
ENDBRANCH   6  20
TORSDOF 3
ENDMDL
MODEL 6
REMARK VINA RESULT:      -6.2     19.544     22.139
REMARK  Name = 26742833
REMARK  3 active torsions:
REMARK  status: ('A' for Active; 'I' for Inactive)
REMARK    1  A    between atoms: N_6  and  C_20
REMARK    2  A    between atoms: C_11  and  C_17
REMARK    3  A    between atoms: C_20  and  C_21
REMARK                            x       y       z     vdW  Elec       q    Type
REMARK                         _______ _______ _______ _____ _____    ______ ____
ROOT
ATOM      1  O   UNL     1     -16.143   2.830  22.761  0.00  0.00    -0.275 OA
ATOM      2  O   UNL     1     -15.938   0.083  29.203  0.00  0.00    -0.276 OA
ATOM      5  N   UNL     1     -17.747   2.572  24.430  0.00  0.00    -0.301 N 
ATOM      6  N   UNL     1     -16.195   2.384  29.046  0.00  0.00    -0.297 N 
ATOM      7  C   UNL     1     -18.493   2.820  26.790  0.00  0.00    +0.011 C 
ATOM      8  C   UNL     1     -18.281   1.299  26.972  0.00  0.00    +0.004 C 
ATOM      9  C   UNL     1     -18.785   3.127  25.307  0.00  0.00    +0.111 C 
ATOM     10  C   UNL     1     -17.214   0.755  26.003  0.00  0.00    +0.023 C 
ATOM     12  C   UNL     1     -17.339   3.708  27.293  0.00  0.00    +0.024 C 
ATOM     13  C   UNL     1     -17.538   1.131  24.560  0.00  0.00    +0.108 C 
ATOM     16  C   UNL     1     -18.045   0.868  28.425  0.00  0.00    +0.100 C 
ATOM     17  C   UNL     1     -16.997   3.306  23.506  0.00  0.00    +0.219 C 
ATOM     18  C   UNL     1     -17.049   3.539  28.781  0.00  0.00    +0.108 C 
ATOM     19  C   UNL     1     -16.629   1.069  28.930  0.00  0.00    +0.216 C 
ENDROOT
BRANCH  17  11
ATOM     11  C   UNL     1     -17.256   4.775  23.424  0.00  0.00    +0.075 C 
ATOM     14  C   UNL     1     -16.328   5.636  22.620  0.00  0.00    +0.013 C 
ATOM     15  C   UNL     1     -16.321   5.721  24.118  0.00  0.00    +0.013 C 
ENDBRANCH  17  11
BRANCH   6  20
ATOM     20  C   UNL     1     -14.821   2.666  29.442  0.00  0.00    +0.143 C 
BRANCH  20  21
ATOM      3  O   UNL     1     -14.337   5.811  33.227  0.00  0.00    -0.453 OA
ATOM      4  O   UNL     1     -14.415   4.041  34.861  0.00  0.00    -0.453 OA
ATOM     21  C   UNL     1     -14.713   2.998  30.902  0.00  0.00    -0.026 A 
ATOM     22  C   UNL     1     -14.571   4.328  31.302  0.00  0.00    +0.054 A 
ATOM     23  C   UNL     1     -14.759   1.965  31.855  0.00  0.00    +0.009 A 
ATOM     24  C   UNL     1     -14.479   4.584  32.655  0.00  0.00    +0.167 A 
ATOM     25  C   UNL     1     -14.664   2.251  33.219  0.00  0.00    +0.050 A 
ATOM     26  C   UNL     1     -14.524   3.574  33.587  0.00  0.00    +0.166 A 
ATOM     27  C   UNL     1     -14.298   5.458  34.626  0.00  0.00    +0.466 C 
ENDBRANCH  20  21
ENDBRANCH   6  20
TORSDOF 3
ENDMDL
MODEL 7
REMARK VINA RESULT:      -6.2      2.582      3.654
REMARK  Name = 26742833
REMARK  3 active torsions:
REMARK  status: ('A' for Active; 'I' for Inactive)
REMARK    1  A    between atoms: N_6  and  C_20
REMARK    2  A    between atoms: C_11  and  C_17
REMARK    3  A    between atoms: C_20  and  C_21
REMARK                            x       y       z     vdW  Elec       q    Type
REMARK                         _______ _______ _______ _____ _____    ______ ____
ROOT
ATOM      1  O   UNL     1      -5.478  -9.929  13.479  0.00  0.00    -0.275 OA
ATOM      2  O   UNL     1      -6.239 -10.284  20.435  0.00  0.00    -0.276 OA
ATOM      5  N   UNL     1      -4.747 -11.453  15.082  0.00  0.00    -0.301 N 
ATOM      6  N   UNL     1      -7.369 -11.866  19.169  0.00  0.00    -0.297 N 
ATOM      7  C   UNL     1      -5.179 -12.945  17.023  0.00  0.00    +0.011 C 
ATOM      8  C   UNL     1      -4.489 -11.897  17.928  0.00  0.00    +0.004 C 
ATOM      9  C   UNL     1      -4.633 -12.826  15.586  0.00  0.00    +0.111 C 
ATOM     10  C   UNL     1      -4.599 -10.479  17.338  0.00  0.00    +0.023 C 
ATOM     12  C   UNL     1      -6.718 -12.887  17.008  0.00  0.00    +0.024 C 
ATOM     13  C   UNL     1      -4.085 -10.439  15.901  0.00  0.00    +0.108 C 
ATOM     16  C   UNL     1      -4.910 -11.966  19.401  0.00  0.00    +0.100 C 
ATOM     17  C   UNL     1      -5.404 -11.079  13.905  0.00  0.00    +0.219 C 
ATOM     18  C   UNL     1      -7.346 -13.097  18.381  0.00  0.00    +0.108 C 
ATOM     19  C   UNL     1      -6.231 -11.291  19.722  0.00  0.00    +0.216 C 
ENDROOT
BRANCH  17  11
ATOM     11  C   UNL     1      -6.063 -12.162  13.114  0.00  0.00    +0.075 C 
ATOM     14  C   UNL     1      -7.001 -11.788  12.005  0.00  0.00    +0.013 C 
ATOM     15  C   UNL     1      -7.538 -12.387  13.272  0.00  0.00    +0.013 C 
ENDBRANCH  17  11
BRANCH   6  20
ATOM     20  C   UNL     1      -8.669 -11.235  19.354  0.00  0.00    +0.143 C 
BRANCH  20  21
ATOM      3  O   UNL     1     -11.928 -10.036  15.834  0.00  0.00    -0.453 OA
ATOM      4  O   UNL     1     -10.420  -8.460  14.810  0.00  0.00    -0.453 OA
ATOM     21  C   UNL     1      -9.104 -10.476  18.135  0.00  0.00    -0.026 A 
ATOM     22  C   UNL     1     -10.379 -10.686  17.606  0.00  0.00    +0.054 A 
ATOM     23  C   UNL     1      -8.224  -9.556  17.537  0.00  0.00    +0.009 A 
ATOM     24  C   UNL     1     -10.735  -9.963  16.485  0.00  0.00    +0.167 A 
ATOM     25  C   UNL     1      -8.610  -8.836  16.404  0.00  0.00    +0.050 A 
ATOM     26  C   UNL     1      -9.874  -9.063  15.901  0.00  0.00    +0.166 A 
ATOM     27  C   UNL     1     -11.721  -9.080  14.773  0.00  0.00    +0.466 C 
ENDBRANCH  20  21
ENDBRANCH   6  20
TORSDOF 3
ENDMDL
MODEL 8
REMARK VINA RESULT:      -6.1      1.506      2.146
REMARK  Name = 26742833
REMARK  3 active torsions:
REMARK  status: ('A' for Active; 'I' for Inactive)
REMARK    1  A    between atoms: N_6  and  C_20
REMARK    2  A    between atoms: C_11  and  C_17
REMARK    3  A    between atoms: C_20  and  C_21
REMARK                            x       y       z     vdW  Elec       q    Type
REMARK                         _______ _______ _______ _____ _____    ______ ____
ROOT
ATOM      1  O   UNL     1      -1.614  -9.846  14.186  0.00  0.00    -0.275 OA
ATOM      2  O   UNL     1      -6.333  -9.997  19.363  0.00  0.00    -0.276 OA
ATOM      5  N   UNL     1      -2.848 -11.564  15.162  0.00  0.00    -0.301 N 
ATOM      6  N   UNL     1      -7.112 -10.400  17.215  0.00  0.00    -0.297 N 
ATOM      7  C   UNL     1      -5.005 -12.523  15.942  0.00  0.00    +0.011 C 
ATOM      8  C   UNL     1      -4.565 -12.222  17.394  0.00  0.00    +0.004 C 
ATOM      9  C   UNL     1      -3.759 -12.709  15.053  0.00  0.00    +0.111 C 
ATOM     10  C   UNL     1      -3.579 -11.040  17.454  0.00  0.00    +0.023 C 
ATOM     12  C   UNL     1      -5.950 -11.482  15.313  0.00  0.00    +0.024 C 
ATOM     13  C   UNL     1      -2.393 -11.266  16.519  0.00  0.00    +0.108 C 
ATOM     16  C   UNL     1      -5.728 -12.080  18.385  0.00  0.00    +0.100 C 
ATOM     17  C   UNL     1      -2.394 -10.791  14.088  0.00  0.00    +0.219 C 
ATOM     18  C   UNL     1      -7.257 -11.308  16.079  0.00  0.00    +0.108 C 
ATOM     19  C   UNL     1      -6.418 -10.730  18.374  0.00  0.00    +0.216 C 
ENDROOT
BRANCH  17  11
ATOM     11  C   UNL     1      -2.897 -11.145  12.727  0.00  0.00    +0.075 C 
ATOM     14  C   UNL     1      -2.577 -10.243  11.573  0.00  0.00    +0.013 C 
ATOM     15  C   UNL     1      -3.978 -10.307  12.108  0.00  0.00    +0.013 C 
ENDBRANCH  17  11
BRANCH   6  20
ATOM     20  C   UNL     1      -7.733  -9.088  17.084  0.00  0.00    +0.143 C 
BRANCH  20  21
ATOM      3  O   UNL     1     -11.671 -10.625  19.650  0.00  0.00    -0.453 OA
ATOM      4  O   UNL     1     -13.197  -9.326  18.311  0.00  0.00    -0.453 OA
ATOM     21  C   UNL     1      -9.203  -9.130  17.384  0.00  0.00    -0.026 A 
ATOM     22  C   UNL     1      -9.675  -9.917  18.436  0.00  0.00    +0.054 A 
ATOM     23  C   UNL     1     -10.093  -8.372  16.603  0.00  0.00    +0.009 A 
ATOM     24  C   UNL     1     -11.034  -9.921  18.675  0.00  0.00    +0.167 A 
ATOM     25  C   UNL     1     -11.465  -8.392  16.866  0.00  0.00    +0.050 A 
ATOM     26  C   UNL     1     -11.905  -9.180  17.911  0.00  0.00    +0.166 A 
ATOM     27  C   UNL     1     -13.042 -10.242  19.414  0.00  0.00    +0.466 C 
ENDBRANCH  20  21
ENDBRANCH   6  20
TORSDOF 3
ENDMDL
MODEL 9
REMARK VINA RESULT:      -6.0      2.082      7.891
REMARK  Name = 26742833
REMARK  3 active torsions:
REMARK  status: ('A' for Active; 'I' for Inactive)
REMARK    1  A    between atoms: N_6  and  C_20
REMARK    2  A    between atoms: C_11  and  C_17
REMARK    3  A    between atoms: C_20  and  C_21
REMARK                            x       y       z     vdW  Elec       q    Type
REMARK                         _______ _______ _______ _____ _____    ______ ____
ROOT
ATOM      1  O   UNL     1     -11.082 -13.163  17.503  0.00  0.00    -0.275 OA
ATOM      2  O   UNL     1      -4.241 -12.557  18.890  0.00  0.00    -0.276 OA
ATOM      5  N   UNL     1      -9.769 -11.405  18.282  0.00  0.00    -0.301 N 
ATOM      6  N   UNL     1      -5.052 -11.391  17.055  0.00  0.00    -0.297 N 
ATOM      7  C   UNL     1      -7.764  -9.943  18.111  0.00  0.00    +0.011 C 
ATOM      8  C   UNL     1      -7.146 -10.726  19.294  0.00  0.00    +0.004 C 
ATOM      9  C   UNL     1      -9.302 -10.016  18.192  0.00  0.00    +0.111 C 
ATOM     10  C   UNL     1      -7.695 -12.163  19.372  0.00  0.00    +0.023 C 
ATOM     12  C   UNL     1      -7.289 -10.383  16.714  0.00  0.00    +0.024 C 
ATOM     13  C   UNL     1      -9.222 -12.167  19.403  0.00  0.00    +0.108 C 
ATOM     16  C   UNL     1      -5.614 -10.668  19.351  0.00  0.00    +0.100 C 
ATOM     17  C   UNL     1     -10.682 -12.005  17.410  0.00  0.00    +0.219 C 
ATOM     18  C   UNL     1      -5.784 -10.247  16.514  0.00  0.00    +0.108 C 
ATOM     19  C   UNL     1      -4.901 -11.628  18.416  0.00  0.00    +0.216 C 
ENDROOT
BRANCH  17  11
ATOM     11  C   UNL     1     -11.201 -11.175  16.282  0.00  0.00    +0.075 C 
ATOM     14  C   UNL     1     -11.802 -11.857  15.089  0.00  0.00    +0.013 C 
ATOM     15  C   UNL     1     -10.469 -11.179  14.972  0.00  0.00    +0.013 C 
ENDBRANCH  17  11
BRANCH   6  20
ATOM     20  C   UNL     1      -4.474 -12.312  16.085  0.00  0.00    +0.143 C 
BRANCH  20  21
ATOM      3  O   UNL     1      -3.331 -10.742  11.537  0.00  0.00    -0.453 OA
ATOM      4  O   UNL     1      -1.288  -9.702  12.282  0.00  0.00    -0.453 OA
ATOM     21  C   UNL     1      -3.595 -11.606  15.094  0.00  0.00    -0.026 A 
ATOM     22  C   UNL     1      -3.970 -11.555  13.749  0.00  0.00    +0.054 A 
ATOM     23  C   UNL     1      -2.404 -10.999  15.528  0.00  0.00    +0.009 A 
ATOM     24  C   UNL     1      -3.131 -10.892  12.876  0.00  0.00    +0.167 A 
ATOM     25  C   UNL     1      -1.573 -10.334  14.623  0.00  0.00    +0.050 A 
ATOM     26  C   UNL     1      -1.966 -10.299  13.301  0.00  0.00    +0.166 A 
ATOM     27  C   UNL     1      -2.158  -9.986  11.169  0.00  0.00    +0.466 C 
ENDBRANCH  20  21
ENDBRANCH   6  20
TORSDOF 3
ENDMDL
MODEL 10
REMARK VINA RESULT:      -6.0     25.560     28.263
REMARK  Name = 26742833
REMARK  3 active torsions:
REMARK  status: ('A' for Active; 'I' for Inactive)
REMARK    1  A    between atoms: N_6  and  C_20
REMARK    2  A    between atoms: C_11  and  C_17
REMARK    3  A    between atoms: C_20  and  C_21
REMARK                            x       y       z     vdW  Elec       q    Type
REMARK                         _______ _______ _______ _____ _____    ______ ____
ROOT
ATOM      1  O   UNL     1      13.721   9.796   6.753  0.00  0.00    -0.275 OA
ATOM      2  O   UNL     1       7.663   8.277   3.577  0.00  0.00    -0.276 OA
ATOM      5  N   UNL     1      12.194   8.054   6.993  0.00  0.00    -0.301 N 
ATOM      6  N   UNL     1       9.467   6.888   3.126  0.00  0.00    -0.297 N 
ATOM      7  C   UNL     1      10.780   6.249   6.030  0.00  0.00    +0.011 C 
ATOM      8  C   UNL     1       9.547   7.156   6.250  0.00  0.00    +0.004 C 
ATOM      9  C   UNL     1      11.882   6.621   7.043  0.00  0.00    +0.111 C 
ATOM     10  C   UNL     1       9.930   8.648   6.231  0.00  0.00    +0.023 C 
ATOM     12  C   UNL     1      11.355   6.259   4.601  0.00  0.00    +0.024 C 
ATOM     13  C   UNL     1      11.054   8.940   7.222  0.00  0.00    +0.108 C 
ATOM     16  C   UNL     1       8.359   6.832   5.335  0.00  0.00    +0.100 C 
ATOM     17  C   UNL     1      13.464   8.595   6.773  0.00  0.00    +0.219 C 
ATOM     18  C   UNL     1      10.355   5.805   3.542  0.00  0.00    +0.108 C 
ATOM     19  C   UNL     1       8.457   7.401   3.932  0.00  0.00    +0.216 C 
ENDROOT
BRANCH  17  11
ATOM     11  C   UNL     1      14.587   7.636   6.544  0.00  0.00    +0.075 C 
ATOM     14  C   UNL     1      15.910   8.161   6.070  0.00  0.00    +0.013 C 
ATOM     15  C   UNL     1      15.042   7.366   5.139  0.00  0.00    +0.013 C 
ENDBRANCH  17  11
BRANCH   6  20
ATOM     20  C   UNL     1       9.688   7.437   1.795  0.00  0.00    +0.143 C 
BRANCH  20  21
ATOM      3  O   UNL     1      10.454   3.595  -1.223  0.00  0.00    -0.453 OA
ATOM      4  O   UNL     1      12.818   4.038  -1.378  0.00  0.00    -0.453 OA
ATOM     21  C   UNL     1      10.556   6.546   0.956  0.00  0.00    -0.026 A 
ATOM     22  C   UNL     1       9.988   5.471   0.270  0.00  0.00    +0.054 A 
ATOM     23  C   UNL     1      11.936   6.805   0.865  0.00  0.00    +0.009 A 
ATOM     24  C   UNL     1      10.827   4.681  -0.491  0.00  0.00    +0.167 A 
ATOM     25  C   UNL     1      12.762   5.990   0.087  0.00  0.00    +0.050 A 
ATOM     26  C   UNL     1      12.176   4.934  -0.579  0.00  0.00    +0.166 A 
ATOM     27  C   UNL     1      11.722   3.194  -1.783  0.00  0.00    +0.466 C 
ENDBRANCH  20  21
ENDBRANCH   6  20
TORSDOF 3
ENDMDL
