REMARK  Name = 7051432
REMARK  7 active torsions:
REMARK  status: ('A' for Active; 'I' for Inactive)
REMARK    1  A    between atoms: S_1  and  N_9
REMARK    2  A    between atoms: S_1  and  C_24
REMARK    3  A    between atoms: O_4  and  C_23
REMARK    4  A    between atoms: O_4  and  C_25
REMARK    5  A    between atoms: N_9  and  C_21
REMARK    6  A    between atoms: C_20  and  C_23
REMARK    7  A    between atoms: C_26  and  C_35
REMARK                            x       y       z     vdW  Elec       q    Type
REMARK                         _______ _______ _______ _____ _____    ______ ____
ROOT
ATOM      2  O   UNL     1      -0.220   2.901   1.563  0.00  0.00    -0.266 OA
ATOM      3  O   UNL     1      -3.548  -1.280   1.960  0.00  0.00    -0.272 OA
ATOM      7  N   UNL     1      -4.068   0.011   0.099  0.00  0.00    -0.298 N 
ATOM      8  N   UNL     1      -1.870   2.330   0.001  0.00  0.00    -0.310 N 
ATOM     11  C   UNL     1      -4.375   2.456   0.506  0.00  0.00    +0.027 C 
ATOM     12  C   UNL     1      -3.613   1.672  -1.697  0.00  0.00    +0.054 C 
ATOM     13  C   UNL     1      -4.525   2.676  -0.994  0.00  0.00    +0.018 C 
ATOM     14  C   UNL     1      -4.780   1.020   0.884  0.00  0.00    +0.113 C 
ATOM     15  C   UNL     1      -2.932   2.774   0.913  0.00  0.00    +0.130 C 
ATOM     16  C   UNL     1      -4.062   0.238  -1.354  0.00  0.00    +0.117 C 
ATOM     17  C   UNL     1      -2.165   1.870  -1.290  0.00  0.00    +0.027 A 
ATOM     18  C   UNL     1      -1.174   1.578  -2.152  0.00  0.00    +0.024 A 
ATOM     19  C   UNL     1      -0.542   2.488   0.450  0.00  0.00    +0.274 A 
ATOM     20  C   UNL     1      -3.533  -1.108   0.738  0.00  0.00    +0.253 C 
ATOM     21  C   UNL     1       0.506   2.127  -0.537  0.00  0.00    +0.112 A 
ATOM     22  C   UNL     1       0.205   1.708  -1.767  0.00  0.00    +0.031 A 
ENDROOT
BRANCH  21   9
ATOM      9  N   UNL     1       1.866   2.235  -0.198  0.00  0.00    -0.211 N 
ATOM     37  H   UNL     1       2.480   2.234  -1.024  0.00  0.00    +0.174 HD
BRANCH   9   1
ATOM      1  S   UNL     1       2.413   1.291   1.097  0.00  0.00    +0.074 S 
ATOM      5  O   UNL     1       3.099   2.133   2.059  0.00  0.00    -0.150 OA
ATOM      6  O   UNL     1       1.357   0.397   1.530  0.00  0.00    -0.150 OA
BRANCH   1  24
ATOM     24  C   UNL     1       3.641   0.306   0.289  0.00  0.00    +0.126 A 
ATOM     26  C   UNL     1       4.830   0.862  -0.158  0.00  0.00    +0.078 A 
ATOM     27  C   UNL     1       3.370  -1.043   0.117  0.00  0.00    +0.030 A 
ATOM     30  C   UNL     1       5.771   0.050  -0.792  0.00  0.00    +0.021 A 
ATOM     31  C   UNL     1       4.311  -1.855  -0.517  0.00  0.00    +0.002 A 
ATOM     32  C   UNL     1       5.511  -1.309  -0.971  0.00  0.00    +0.001 A 
BRANCH  26  35
ATOM     10  N   UNL     1       5.370   3.378   0.141  0.00  0.00    -0.191 NA
ATOM     35  C   UNL     1       5.129   2.252   0.007  0.00  0.00    +0.101 C 
ENDBRANCH  26  35
ENDBRANCH   1  24
ENDBRANCH   9   1
ENDBRANCH  21   9
BRANCH  20  23
ATOM     23  C   UNL     1      -2.896  -2.151  -0.145  0.00  0.00    +0.324 C 
BRANCH  23   4
ATOM      4  O   UNL     1      -2.401  -3.154   0.708  0.00  0.00    -0.483 OA
BRANCH   4  25
ATOM     25  C   UNL     1      -1.258  -3.813   0.314  0.00  0.00    +0.121 A 
ATOM     28  C   UNL     1      -0.994  -3.970  -1.039  0.00  0.00    +0.045 A 
ATOM     29  C   UNL     1      -0.392  -4.310   1.276  0.00  0.00    +0.045 A 
ATOM     33  C   UNL     1       0.163  -4.639  -1.438  0.00  0.00    +0.004 A 
ATOM     34  C   UNL     1       0.765  -4.979   0.876  0.00  0.00    +0.004 A 
ATOM     36  C   UNL     1       1.043  -5.143  -0.481  0.00  0.00    +0.000 A 
ENDBRANCH   4  25
ENDBRANCH  23   4
ENDBRANCH  20  23
TORSDOF 7
