REMARK  Name = 11886052
REMARK  3 active torsions:
REMARK  status: ('A' for Active; 'I' for Inactive)
REMARK    1  A    between atoms: O_3  and  C_13
REMARK    2  A    between atoms: N_6  and  C_12
REMARK    3  A    between atoms: C_16  and  C_17
REMARK                            x       y       z     vdW  Elec       q    Type
REMARK                         _______ _______ _______ _____ _____    ______ ____
ROOT
ATOM      6  N   UNL     1       1.184  -1.588   0.031  0.00  0.00    -0.217 N 
ATOM      7  N   UNL     1       2.061  -2.509  -0.382  0.00  0.00    -0.043 NA
ATOM      8  N   UNL     1      -0.022  -3.159  -0.838  0.00  0.00    -0.108 NA
ATOM      9  N   UNL     1       1.317  -3.470  -0.914  0.00  0.00    -0.023 NA
ATOM     16  C   UNL     1      -0.080  -1.987  -0.248  0.00  0.00    +0.182 A 
ENDROOT
BRANCH  16  17
ATOM      4  O   UNL     1      -3.396   1.264  -1.523  0.00  0.00    -0.485 OA
ATOM      5  O   UNL     1      -4.671   0.948   1.043  0.00  0.00    -0.485 OA
ATOM     17  C   UNL     1      -1.268  -1.231   0.063  0.00  0.00    +0.024 A 
ATOM     18  C   UNL     1      -1.778  -0.322  -0.865  0.00  0.00    +0.061 A 
ATOM     19  C   UNL     1      -1.907  -1.412   1.290  0.00  0.00    +0.015 A 
ATOM     20  C   UNL     1      -2.931   0.403  -0.564  0.00  0.00    +0.163 A 
ATOM     21  C   UNL     1      -3.556   0.241   0.676  0.00  0.00    +0.162 A 
ATOM     22  C   UNL     1      -3.052  -0.677   1.597  0.00  0.00    +0.050 A 
ATOM     23  C   UNL     1      -4.739   1.681  -1.260  0.00  0.00    +0.270 C 
ATOM     24  C   UNL     1      -4.890   2.079   0.195  0.00  0.00    +0.270 C 
ENDBRANCH  16  17
BRANCH   6  12
ATOM      1  O   UNL     1       4.008  -0.004   0.617  0.00  0.00    -0.369 OA
ATOM      2  O   UNL     1       1.700   2.029   0.297  0.00  0.00    -0.369 OA
ATOM     10  C   UNL     1       1.952   0.744  -0.313  0.00  0.00    +0.176 C 
ATOM     11  C   UNL     1       3.449   0.650  -0.534  0.00  0.00    +0.180 C 
ATOM     12  C   UNL     1       1.645  -0.359   0.681  0.00  0.00    +0.168 C 
ATOM     13  C   UNL     1       3.865   2.100  -0.609  0.00  0.00    +0.171 C 
ATOM     14  C   UNL     1       2.950  -0.483   1.460  0.00  0.00    +0.190 C 
ATOM     15  C   UNL     1       2.937   2.749   0.391  0.00  0.00    +0.194 C 
BRANCH  13   3
ATOM      3  O   UNL     1       5.222   2.314  -0.292  0.00  0.00    -0.387 OA
ATOM     25  H   UNL     1       5.371   3.275  -0.276  0.00  0.00    +0.210 HD
ENDBRANCH  13   3
ENDBRANCH   6  12
TORSDOF 3
