MODEL 1
REMARK VINA RESULT:      -5.5      0.000      0.000
REMARK  Name = 7114634
REMARK  14 active torsions:
REMARK  status: ('A' for Active; 'I' for Inactive)
REMARK    1  A    between atoms: O_3  and  C_21
REMARK    2  A    between atoms: O_3  and  C_31
REMARK    3  A    between atoms: O_5  and  C_25
REMARK    4  A    between atoms: O_5  and  C_34
REMARK    5  A    between atoms: O_6  and  C_24
REMARK    6  A    between atoms: O_6  and  C_35
REMARK    7  A    between atoms: N_9  and  C_12
REMARK    8  A    between atoms: N_10  and  C_19
REMARK    9  A    between atoms: C_13  and  C_17
REMARK   10  A    between atoms: C_18  and  C_21
REMARK   11  A    between atoms: C_19  and  C_22
REMARK   12  A    between atoms: C_19  and  C_25
REMARK   13  A    between atoms: C_20  and  C_24
REMARK   14  A    between atoms: C_22  and  C_23
REMARK                            x       y       z     vdW  Elec       q    Type
REMARK                         _______ _______ _______ _____ _____    ______ ____
ROOT
ATOM      1  O   UNL     1      -5.486 -11.925  13.805  0.00  0.00    -0.274 OA
ATOM     10  N   UNL     1      -3.752 -10.425  14.214  0.00  0.00    -0.301 N 
ATOM     17  C   UNL     1      -4.894 -10.874  13.573  0.00  0.00    +0.234 C 
ATOM     37  H   UNL     1      -3.272  -9.607  13.853  0.00  0.00    +0.150 HD
ENDROOT
BRANCH  17  13
ATOM      2  O   UNL     1      -4.288 -11.317   9.320  0.00  0.00    -0.273 OA
ATOM      8  N   UNL     1      -5.389 -10.624  11.250  0.00  0.00    -0.288 N 
ATOM     12  C   UNL     1      -7.908 -10.274  12.686  0.00  0.00    +0.077 C 
ATOM     13  C   UNL     1      -5.381  -9.905  12.534  0.00  0.00    +0.164 C 
ATOM     14  C   UNL     1      -6.741  -9.306  12.899  0.00  0.00    +0.054 C 
ATOM     15  C   UNL     1      -7.859 -10.859  11.275  0.00  0.00    +0.041 C 
ATOM     16  C   UNL     1      -6.518 -11.532  11.013  0.00  0.00    +0.110 C 
ATOM     18  C   UNL     1      -4.335 -10.610  10.329  0.00  0.00    +0.242 C 
BRANCH  12   9
ATOM      4  O   UNL     1      -9.968 -11.048  14.571  0.00  0.00    -0.273 OA
ATOM      9  N   UNL     1      -9.170  -9.616  12.920  0.00  0.00    -0.310 N 
ATOM     20  C   UNL     1     -10.099 -10.063  13.848  0.00  0.00    +0.239 C 
ATOM     36  H   UNL     1      -9.409  -8.820  12.334  0.00  0.00    +0.149 HD
BRANCH  20  24
ATOM     24  C   UNL     1     -11.328  -9.180  13.882  0.00  0.00    +0.255 C 
BRANCH  24   6
ATOM      6  O   UNL     1     -11.541  -8.671  15.181  0.00  0.00    -0.374 OA
ATOM     35  C   UNL     1     -10.793  -7.482  15.416  0.00  0.00    +0.194 C 
ENDBRANCH  24   6
ENDBRANCH  20  24
ENDBRANCH  12   9
BRANCH  18  21
ATOM     21  C   UNL     1      -3.203  -9.653  10.607  0.00  0.00    +0.255 C 
BRANCH  21   3
ATOM      3  O   UNL     1      -2.264 -10.358  11.381  0.00  0.00    -0.374 OA
ATOM     31  C   UNL     1      -1.093  -9.585  11.640  0.00  0.00    +0.194 C 
ENDBRANCH  21   3
ENDBRANCH  18  21
ENDBRANCH  17  13
BRANCH  10  19
ATOM     19  C   UNL     1      -3.097 -11.163  15.270  0.00  0.00    +0.186 C 
BRANCH  19  25
ATOM      7  O   UNL     1      -0.718 -10.843  15.543  0.00  0.00    -0.249 OA
ATOM     25  C   UNL     1      -1.628 -11.423  14.961  0.00  0.00    +0.328 C 
BRANCH  25   5
ATOM      5  O   UNL     1      -1.466 -12.343  13.970  0.00  0.00    -0.467 OA
ATOM     34  C   UNL     1      -2.208 -13.558  14.123  0.00  0.00    +0.280 C 
ENDBRANCH  25   5
ENDBRANCH  19  25
BRANCH  19  22
ATOM     22  C   UNL     1      -3.288 -10.493  16.639  0.00  0.00    +0.071 C 
BRANCH  22  23
ATOM     11  N   UNL     1      -5.724 -12.161  18.836  0.00  0.00    -0.360 N 
ATOM     23  C   UNL     1      -4.473 -10.991  17.424  0.00  0.00    -0.020 A 
ATOM     26  C   UNL     1      -5.806 -10.499  17.349  0.00  0.00    +0.003 A 
ATOM     27  C   UNL     1      -4.454 -12.012  18.347  0.00  0.00    +0.087 A 
ATOM     28  C   UNL     1      -6.571 -11.251  18.245  0.00  0.00    +0.047 A 
ATOM     29  C   UNL     1      -6.437  -9.485  16.603  0.00  0.00    +0.010 A 
ATOM     30  C   UNL     1      -7.941 -11.036  18.432  0.00  0.00    +0.026 A 
ATOM     32  C   UNL     1      -7.807  -9.259  16.780  0.00  0.00    +0.001 A 
ATOM     33  C   UNL     1      -8.545 -10.025  17.681  0.00  0.00    +0.002 A 
ATOM     38  H   UNL     1      -6.001 -12.839  19.532  0.00  0.00    +0.165 HD
ENDBRANCH  22  23
ENDBRANCH  19  22
ENDBRANCH  10  19
TORSDOF 11
ENDMDL
MODEL 2
REMARK VINA RESULT:      -5.5     23.187     27.222
REMARK  Name = 7114634
REMARK  14 active torsions:
REMARK  status: ('A' for Active; 'I' for Inactive)
REMARK    1  A    between atoms: O_3  and  C_21
REMARK    2  A    between atoms: O_3  and  C_31
REMARK    3  A    between atoms: O_5  and  C_25
REMARK    4  A    between atoms: O_5  and  C_34
REMARK    5  A    between atoms: O_6  and  C_24
REMARK    6  A    between atoms: O_6  and  C_35
REMARK    7  A    between atoms: N_9  and  C_12
REMARK    8  A    between atoms: N_10  and  C_19
REMARK    9  A    between atoms: C_13  and  C_17
REMARK   10  A    between atoms: C_18  and  C_21
REMARK   11  A    between atoms: C_19  and  C_22
REMARK   12  A    between atoms: C_19  and  C_25
REMARK   13  A    between atoms: C_20  and  C_24
REMARK   14  A    between atoms: C_22  and  C_23
REMARK                            x       y       z     vdW  Elec       q    Type
REMARK                         _______ _______ _______ _____ _____    ______ ____
ROOT
ATOM      1  O   UNL     1      13.400   8.928   3.823  0.00  0.00    -0.274 OA
ATOM     10  N   UNL     1      13.495   6.602   3.895  0.00  0.00    -0.301 N 
ATOM     17  C   UNL     1      13.615   7.877   4.422  0.00  0.00    +0.234 C 
ATOM     37  H   UNL     1      13.825   5.811   4.437  0.00  0.00    +0.150 HD
ENDROOT
BRANCH  17  13
ATOM      2  O   UNL     1      14.062  11.387   6.898  0.00  0.00    -0.273 OA
ATOM      8  N   UNL     1      13.618   9.148   6.444  0.00  0.00    -0.288 N 
ATOM     12  C   UNL     1      11.965   6.792   6.937  0.00  0.00    +0.077 C 
ATOM     13  C   UNL     1      14.029   7.858   5.865  0.00  0.00    +0.164 C 
ATOM     14  C   UNL     1      13.454   6.652   6.612  0.00  0.00    +0.054 C 
ATOM     15  C   UNL     1      11.698   8.124   7.636  0.00  0.00    +0.041 C 
ATOM     16  C   UNL     1      12.199   9.289   6.793  0.00  0.00    +0.110 C 
ATOM     18  C   UNL     1      14.447  10.272   6.538  0.00  0.00    +0.242 C 
BRANCH  12   9
ATOM      4  O   UNL     1       9.276   6.314   7.903  0.00  0.00    -0.273 OA
ATOM      9  N   UNL     1      11.512   5.691   7.751  0.00  0.00    -0.310 N 
ATOM     20  C   UNL     1      10.197   5.546   8.168  0.00  0.00    +0.239 C 
ATOM     36  H   UNL     1      12.205   5.023   8.079  0.00  0.00    +0.149 HD
BRANCH  20  24
ATOM     24  C   UNL     1      10.008   4.300   9.008  0.00  0.00    +0.255 C 
BRANCH  24   6
ATOM      6  O   UNL     1       9.876   4.635  10.373  0.00  0.00    -0.374 OA
ATOM     35  C   UNL     1       8.518   4.593  10.801  0.00  0.00    +0.194 C 
ENDBRANCH  24   6
ENDBRANCH  20  24
ENDBRANCH  12   9
BRANCH  18  21
ATOM     21  C   UNL     1      15.900  10.077   6.180  0.00  0.00    +0.255 C 
BRANCH  21   3
ATOM      3  O   UNL     1      16.081  10.658   4.912  0.00  0.00    -0.374 OA
ATOM     31  C   UNL     1      16.874   9.838   4.055  0.00  0.00    +0.194 C 
ENDBRANCH  21   3
ENDBRANCH  18  21
ENDBRANCH  17  13
BRANCH  10  19
ATOM     19  C   UNL     1      13.088   6.346   2.532  0.00  0.00    +0.186 C 
BRANCH  19  25
ATOM      7  O   UNL     1      14.517   6.606   0.601  0.00  0.00    -0.249 OA
ATOM     25  C   UNL     1      14.271   5.999   1.637  0.00  0.00    +0.328 C 
BRANCH  25   5
ATOM      5  O   UNL     1      14.987   4.943   2.117  0.00  0.00    -0.467 OA
ATOM     34  C   UNL     1      15.016   3.781   1.282  0.00  0.00    +0.280 C 
ENDBRANCH  25   5
ENDBRANCH  19  25
BRANCH  19  22
ATOM     22  C   UNL     1      11.979   5.286   2.456  0.00  0.00    +0.071 C 
BRANCH  22  23
ATOM     11  N   UNL     1       9.344   5.231   5.024  0.00  0.00    -0.360 N 
ATOM     23  C   UNL     1      10.824   5.516   3.395  0.00  0.00    -0.020 A 
ATOM     26  C   UNL     1       9.952   6.640   3.405  0.00  0.00    +0.003 A 
ATOM     27  C   UNL     1      10.425   4.667   4.402  0.00  0.00    +0.087 A 
ATOM     28  C   UNL     1       9.031   6.435   4.436  0.00  0.00    +0.047 A 
ATOM     29  C   UNL     1       9.855   7.815   2.633  0.00  0.00    +0.010 A 
ATOM     30  C   UNL     1       8.017   7.351   4.735  0.00  0.00    +0.026 A 
ATOM     32  C   UNL     1       8.844   8.739   2.920  0.00  0.00    +0.001 A 
ATOM     33  C   UNL     1       7.940   8.509   3.956  0.00  0.00    +0.002 A 
ATOM     38  H   UNL     1       8.846   4.822   5.804  0.00  0.00    +0.165 HD
ENDBRANCH  22  23
ENDBRANCH  19  22
ENDBRANCH  10  19
TORSDOF 11
ENDMDL
MODEL 3
REMARK VINA RESULT:      -5.4     23.085     27.163
REMARK  Name = 7114634
REMARK  14 active torsions:
REMARK  status: ('A' for Active; 'I' for Inactive)
REMARK    1  A    between atoms: O_3  and  C_21
REMARK    2  A    between atoms: O_3  and  C_31
REMARK    3  A    between atoms: O_5  and  C_25
REMARK    4  A    between atoms: O_5  and  C_34
REMARK    5  A    between atoms: O_6  and  C_24
REMARK    6  A    between atoms: O_6  and  C_35
REMARK    7  A    between atoms: N_9  and  C_12
REMARK    8  A    between atoms: N_10  and  C_19
REMARK    9  A    between atoms: C_13  and  C_17
REMARK   10  A    between atoms: C_18  and  C_21
REMARK   11  A    between atoms: C_19  and  C_22
REMARK   12  A    between atoms: C_19  and  C_25
REMARK   13  A    between atoms: C_20  and  C_24
REMARK   14  A    between atoms: C_22  and  C_23
REMARK                            x       y       z     vdW  Elec       q    Type
REMARK                         _______ _______ _______ _____ _____    ______ ____
ROOT
ATOM      1  O   UNL     1      12.495   8.461   3.084  0.00  0.00    -0.274 OA
ATOM     10  N   UNL     1      12.550   6.180   3.549  0.00  0.00    -0.301 N 
ATOM     17  C   UNL     1      12.700   7.523   3.850  0.00  0.00    +0.234 C 
ATOM     37  H   UNL     1      12.873   5.485   4.214  0.00  0.00    +0.150 HD
ENDROOT
BRANCH  17  13
ATOM      2  O   UNL     1      13.248  11.392   5.688  0.00  0.00    -0.273 OA
ATOM      8  N   UNL     1      12.757   9.118   5.627  0.00  0.00    -0.288 N 
ATOM     12  C   UNL     1      11.070   6.913   6.532  0.00  0.00    +0.077 C 
ATOM     13  C   UNL     1      13.136   7.741   5.270  0.00  0.00    +0.164 C 
ATOM     14  C   UNL     1      12.551   6.690   6.218  0.00  0.00    +0.054 C 
ATOM     15  C   UNL     1      10.838   8.350   6.998  0.00  0.00    +0.041 C 
ATOM     16  C   UNL     1      11.346   9.344   5.964  0.00  0.00    +0.110 C 
ATOM     18  C   UNL     1      13.607  10.225   5.518  0.00  0.00    +0.242 C 
BRANCH  12   9
ATOM      4  O   UNL     1       9.807   4.346   6.074  0.00  0.00    -0.273 OA
ATOM      9  N   UNL     1      10.610   5.976   7.527  0.00  0.00    -0.310 N 
ATOM     20  C   UNL     1      10.013   4.764   7.211  0.00  0.00    +0.239 C 
ATOM     36  H   UNL     1      10.678   6.246   8.505  0.00  0.00    +0.149 HD
BRANCH  20  24
ATOM     24  C   UNL     1       9.633   3.984   8.451  0.00  0.00    +0.255 C 
BRANCH  24   6
ATOM      6  O   UNL     1       9.878   4.746   9.614  0.00  0.00    -0.374 OA
ATOM     35  C   UNL     1       8.762   4.741  10.498  0.00  0.00    +0.194 C 
ENDBRANCH  24   6
ENDBRANCH  20  24
ENDBRANCH  12   9
BRANCH  18  21
ATOM     21  C   UNL     1      15.050   9.942   5.181  0.00  0.00    +0.255 C 
BRANCH  21   3
ATOM      3  O   UNL     1      15.794  11.038   5.655  0.00  0.00    -0.374 OA
ATOM     31  C   UNL     1      17.038  10.634   6.227  0.00  0.00    +0.194 C 
ENDBRANCH  21   3
ENDBRANCH  18  21
ENDBRANCH  17  13
BRANCH  10  19
ATOM     19  C   UNL     1      12.117   5.704   2.254  0.00  0.00    +0.186 C 
BRANCH  19  25
ATOM      7  O   UNL     1      12.412   3.312   2.073  0.00  0.00    -0.249 OA
ATOM     25  C   UNL     1      12.848   4.433   1.838  0.00  0.00    +0.328 C 
BRANCH  25   5
ATOM      5  O   UNL     1      14.025   4.701   1.205  0.00  0.00    -0.467 OA
ATOM     34  C   UNL     1      15.070   3.745   1.406  0.00  0.00    +0.280 C 
ENDBRANCH  25   5
ENDBRANCH  19  25
BRANCH  19  22
ATOM     22  C   UNL     1      10.592   5.539   2.186  0.00  0.00    +0.071 C 
BRANCH  22  23
ATOM     11  N   UNL     1       9.039   8.516   0.681  0.00  0.00    -0.360 N 
ATOM     23  C   UNL     1       9.839   6.794   1.829  0.00  0.00    -0.020 A 
ATOM     26  C   UNL     1       9.002   7.554   2.693  0.00  0.00    +0.003 A 
ATOM     27  C   UNL     1       9.841   7.410   0.598  0.00  0.00    +0.087 A 
ATOM     28  C   UNL     1       8.513   8.630   1.947  0.00  0.00    +0.047 A 
ATOM     29  C   UNL     1       8.613   7.431   4.042  0.00  0.00    +0.010 A 
ATOM     30  C   UNL     1       7.652   9.591   2.486  0.00  0.00    +0.026 A 
ATOM     32  C   UNL     1       7.752   8.385   4.594  0.00  0.00    +0.001 A 
ATOM     33  C   UNL     1       7.279   9.448   3.826  0.00  0.00    +0.002 A 
ATOM     38  H   UNL     1       8.856   9.157  -0.080  0.00  0.00    +0.165 HD
ENDBRANCH  22  23
ENDBRANCH  19  22
ENDBRANCH  10  19
TORSDOF 11
ENDMDL
MODEL 4
REMARK VINA RESULT:      -5.4     22.820     26.778
REMARK  Name = 7114634
REMARK  14 active torsions:
REMARK  status: ('A' for Active; 'I' for Inactive)
REMARK    1  A    between atoms: O_3  and  C_21
REMARK    2  A    between atoms: O_3  and  C_31
REMARK    3  A    between atoms: O_5  and  C_25
REMARK    4  A    between atoms: O_5  and  C_34
REMARK    5  A    between atoms: O_6  and  C_24
REMARK    6  A    between atoms: O_6  and  C_35
REMARK    7  A    between atoms: N_9  and  C_12
REMARK    8  A    between atoms: N_10  and  C_19
REMARK    9  A    between atoms: C_13  and  C_17
REMARK   10  A    between atoms: C_18  and  C_21
REMARK   11  A    between atoms: C_19  and  C_22
REMARK   12  A    between atoms: C_19  and  C_25
REMARK   13  A    between atoms: C_20  and  C_24
REMARK   14  A    between atoms: C_22  and  C_23
REMARK                            x       y       z     vdW  Elec       q    Type
REMARK                         _______ _______ _______ _____ _____    ______ ____
ROOT
ATOM      1  O   UNL     1       9.934   4.759   3.922  0.00  0.00    -0.274 OA
ATOM     10  N   UNL     1      10.846   5.765   5.814  0.00  0.00    -0.301 N 
ATOM     17  C   UNL     1      10.825   5.394   4.480  0.00  0.00    +0.234 C 
ATOM     37  H   UNL     1      11.692   6.172   6.200  0.00  0.00    +0.150 HD
ENDROOT
BRANCH  17  13
ATOM      2  O   UNL     1      11.382   5.069   0.210  0.00  0.00    -0.273 OA
ATOM      8  N   UNL     1      11.644   6.009   2.323  0.00  0.00    -0.288 N 
ATOM     12  C   UNL     1      11.755   8.412   3.978  0.00  0.00    +0.077 C 
ATOM     13  C   UNL     1      12.035   5.881   3.736  0.00  0.00    +0.164 C 
ATOM     14  C   UNL     1      12.590   7.178   4.329  0.00  0.00    +0.054 C 
ATOM     15  C   UNL     1      11.522   8.483   2.470  0.00  0.00    +0.041 C 
ATOM     16  C   UNL     1      10.871   7.204   1.961  0.00  0.00    +0.110 C 
ATOM     18  C   UNL     1      11.830   5.012   1.357  0.00  0.00    +0.242 C 
BRANCH  12   9
ATOM      4  O   UNL     1      12.248   9.175   6.730  0.00  0.00    -0.273 OA
ATOM      9  N   UNL     1      12.395   9.616   4.450  0.00  0.00    -0.310 N 
ATOM     20  C   UNL     1      12.587   9.896   5.795  0.00  0.00    +0.239 C 
ATOM     36  H   UNL     1      12.665  10.314   3.763  0.00  0.00    +0.149 HD
BRANCH  20  24
ATOM     24  C   UNL     1      13.285  11.225   5.998  0.00  0.00    +0.255 C 
BRANCH  24   6
ATOM      6  O   UNL     1      14.283  11.117   6.989  0.00  0.00    -0.374 OA
ATOM     35  C   UNL     1      15.479  10.537   6.479  0.00  0.00    +0.194 C 
ENDBRANCH  24   6
ENDBRANCH  20  24
ENDBRANCH  12   9
BRANCH  18  21
ATOM     21  C   UNL     1      12.641   3.809   1.771  0.00  0.00    +0.255 C 
BRANCH  21   3
ATOM      3  O   UNL     1      13.624   3.630   0.781  0.00  0.00    -0.374 OA
ATOM     31  C   UNL     1      14.944   3.770   1.306  0.00  0.00    +0.194 C 
ENDBRANCH  21   3
ENDBRANCH  18  21
ENDBRANCH  17  13
BRANCH  10  19
ATOM     19  C   UNL     1       9.787   5.439   6.742  0.00  0.00    +0.186 C 
BRANCH  19  25
ATOM      7  O   UNL     1      11.408   5.715   8.513  0.00  0.00    -0.249 OA
ATOM     25  C   UNL     1      10.232   5.580   8.192  0.00  0.00    +0.328 C 
BRANCH  25   5
ATOM      5  O   UNL     1       9.183   5.519   9.060  0.00  0.00    -0.467 OA
ATOM     34  C   UNL     1       9.300   4.553  10.109  0.00  0.00    +0.280 C 
ENDBRANCH  25   5
ENDBRANCH  19  25
BRANCH  19  22
ATOM     22  C   UNL     1       8.507   6.238   6.452  0.00  0.00    +0.071 C 
BRANCH  22  23
ATOM     11  N   UNL     1       9.197   9.828   6.870  0.00  0.00    -0.360 N 
ATOM     23  C   UNL     1       8.706   7.727   6.349  0.00  0.00    -0.020 A 
ATOM     26  C   UNL     1       8.468   8.536   5.203  0.00  0.00    +0.003 A 
ATOM     27  C   UNL     1       9.154   8.550   7.358  0.00  0.00    +0.087 A 
ATOM     28  C   UNL     1       8.784   9.851   5.558  0.00  0.00    +0.047 A 
ATOM     29  C   UNL     1       8.013   8.277   3.896  0.00  0.00    +0.010 A 
ATOM     30  C   UNL     1       8.666  10.922   4.665  0.00  0.00    +0.026 A 
ATOM     32  C   UNL     1       7.890   9.339   2.992  0.00  0.00    +0.001 A 
ATOM     33  C   UNL     1       8.212  10.640   3.373  0.00  0.00    +0.002 A 
ATOM     38  H   UNL     1       9.492  10.640   7.397  0.00  0.00    +0.165 HD
ENDBRANCH  22  23
ENDBRANCH  19  22
ENDBRANCH  10  19
TORSDOF 11
ENDMDL
MODEL 5
REMARK VINA RESULT:      -5.4      2.395      5.881
REMARK  Name = 7114634
REMARK  14 active torsions:
REMARK  status: ('A' for Active; 'I' for Inactive)
REMARK    1  A    between atoms: O_3  and  C_21
REMARK    2  A    between atoms: O_3  and  C_31
REMARK    3  A    between atoms: O_5  and  C_25
REMARK    4  A    between atoms: O_5  and  C_34
REMARK    5  A    between atoms: O_6  and  C_24
REMARK    6  A    between atoms: O_6  and  C_35
REMARK    7  A    between atoms: N_9  and  C_12
REMARK    8  A    between atoms: N_10  and  C_19
REMARK    9  A    between atoms: C_13  and  C_17
REMARK   10  A    between atoms: C_18  and  C_21
REMARK   11  A    between atoms: C_19  and  C_22
REMARK   12  A    between atoms: C_19  and  C_25
REMARK   13  A    between atoms: C_20  and  C_24
REMARK   14  A    between atoms: C_22  and  C_23
REMARK                            x       y       z     vdW  Elec       q    Type
REMARK                         _______ _______ _______ _____ _____    ______ ____
ROOT
ATOM      1  O   UNL     1      -6.174  -9.417  15.974  0.00  0.00    -0.274 OA
ATOM     10  N   UNL     1      -5.387 -11.431  15.109  0.00  0.00    -0.301 N 
ATOM     17  C   UNL     1      -6.331 -10.602  15.690  0.00  0.00    +0.234 C 
ATOM     37  H   UNL     1      -5.578 -12.425  15.039  0.00  0.00    +0.150 HD
ENDROOT
BRANCH  17  13
ATOM      2  O   UNL     1      -7.458 -12.473  19.416  0.00  0.00    -0.273 OA
ATOM      8  N   UNL     1      -7.815 -11.381  17.392  0.00  0.00    -0.288 N 
ATOM     12  C   UNL     1      -9.259  -9.332  15.893  0.00  0.00    +0.077 C 
ATOM     13  C   UNL     1      -7.634 -11.308  15.933  0.00  0.00    +0.164 C 
ATOM     14  C   UNL     1      -8.800 -10.625  15.214  0.00  0.00    +0.054 C 
ATOM     15  C   UNL     1      -9.520  -9.579  17.379  0.00  0.00    +0.041 C 
ATOM     16  C   UNL     1      -8.287 -10.160  18.057  0.00  0.00    +0.110 C 
ATOM     18  C   UNL     1      -7.429 -12.469  18.183  0.00  0.00    +0.242 C 
BRANCH  12   9
ATOM      4  O   UNL     1     -10.103  -6.564  15.770  0.00  0.00    -0.273 OA
ATOM      9  N   UNL     1     -10.439  -8.806  15.251  0.00  0.00    -0.310 N 
ATOM     20  C   UNL     1     -10.762  -7.457  15.245  0.00  0.00    +0.239 C 
ATOM     36  H   UNL     1     -11.089  -9.466  14.832  0.00  0.00    +0.149 HD
BRANCH  20  24
ATOM     24  C   UNL     1     -12.051  -7.192  14.496  0.00  0.00    +0.255 C 
BRANCH  24   6
ATOM      6  O   UNL     1     -12.034  -5.907  13.913  0.00  0.00    -0.374 OA
ATOM     35  C   UNL     1     -13.313  -5.281  13.968  0.00  0.00    +0.194 C 
ENDBRANCH  24   6
ENDBRANCH  20  24
ENDBRANCH  12   9
BRANCH  18  21
ATOM     21  C   UNL     1      -6.961 -13.706  17.456  0.00  0.00    +0.255 C 
BRANCH  21   3
ATOM      3  O   UNL     1      -5.556 -13.668  17.465  0.00  0.00    -0.374 OA
ATOM     31  C   UNL     1      -4.989 -14.587  16.532  0.00  0.00    +0.194 C 
ENDBRANCH  21   3
ENDBRANCH  18  21
ENDBRANCH  17  13
BRANCH  10  19
ATOM     19  C   UNL     1      -4.058 -10.987  14.754  0.00  0.00    +0.186 C 
BRANCH  19  25
ATOM      7  O   UNL     1      -3.430 -11.075  17.086  0.00  0.00    -0.249 OA
ATOM     25  C   UNL     1      -3.078 -11.128  15.912  0.00  0.00    +0.328 C 
BRANCH  25   5
ATOM      5  O   UNL     1      -1.796 -11.298  15.483  0.00  0.00    -0.467 OA
ATOM     34  C   UNL     1      -0.923 -10.181  15.677  0.00  0.00    +0.280 C 
ENDBRANCH  25   5
ENDBRANCH  19  25
BRANCH  19  22
ATOM     22  C   UNL     1      -3.546 -11.677  13.480  0.00  0.00    +0.071 C 
BRANCH  22  23
ATOM     11  N   UNL     1      -2.336  -9.538  10.742  0.00  0.00    -0.360 N 
ATOM     23  C   UNL     1      -3.330 -10.755  12.309  0.00  0.00    -0.020 A 
ATOM     26  C   UNL     1      -4.339 -10.116  11.536  0.00  0.00    +0.003 A 
ATOM     27  C   UNL     1      -2.108 -10.381  11.796  0.00  0.00    +0.087 A 
ATOM     28  C   UNL     1      -3.688  -9.358  10.559  0.00  0.00    +0.047 A 
ATOM     29  C   UNL     1      -5.747 -10.108  11.574  0.00  0.00    +0.010 A 
ATOM     30  C   UNL     1      -4.379  -8.591   9.616  0.00  0.00    +0.026 A 
ATOM     32  C   UNL     1      -6.451  -9.345  10.636  0.00  0.00    +0.001 A 
ATOM     33  C   UNL     1      -5.775  -8.599   9.672  0.00  0.00    +0.002 A 
ATOM     38  H   UNL     1      -1.615  -9.111  10.176  0.00  0.00    +0.165 HD
ENDBRANCH  22  23
ENDBRANCH  19  22
ENDBRANCH  10  19
TORSDOF 11
ENDMDL
MODEL 6
REMARK VINA RESULT:      -5.3      2.060      2.904
REMARK  Name = 7114634
REMARK  14 active torsions:
REMARK  status: ('A' for Active; 'I' for Inactive)
REMARK    1  A    between atoms: O_3  and  C_21
REMARK    2  A    between atoms: O_3  and  C_31
REMARK    3  A    between atoms: O_5  and  C_25
REMARK    4  A    between atoms: O_5  and  C_34
REMARK    5  A    between atoms: O_6  and  C_24
REMARK    6  A    between atoms: O_6  and  C_35
REMARK    7  A    between atoms: N_9  and  C_12
REMARK    8  A    between atoms: N_10  and  C_19
REMARK    9  A    between atoms: C_13  and  C_17
REMARK   10  A    between atoms: C_18  and  C_21
REMARK   11  A    between atoms: C_19  and  C_22
REMARK   12  A    between atoms: C_19  and  C_25
REMARK   13  A    between atoms: C_20  and  C_24
REMARK   14  A    between atoms: C_22  and  C_23
REMARK                            x       y       z     vdW  Elec       q    Type
REMARK                         _______ _______ _______ _____ _____    ______ ____
ROOT
ATOM      1  O   UNL     1      -5.049 -13.090  12.763  0.00  0.00    -0.274 OA
ATOM     10  N   UNL     1      -3.808 -13.296  14.722  0.00  0.00    -0.301 N 
ATOM     17  C   UNL     1      -4.367 -12.604  13.661  0.00  0.00    +0.234 C 
ATOM     37  H   UNL     1      -3.154 -12.819  15.334  0.00  0.00    +0.150 HD
ENDROOT
BRANCH  17  13
ATOM      2  O   UNL     1      -3.435 -10.135  10.243  0.00  0.00    -0.273 OA
ATOM      8  N   UNL     1      -4.268 -10.600  12.366  0.00  0.00    -0.288 N 
ATOM     12  C   UNL     1      -6.375 -10.212  14.350  0.00  0.00    +0.077 C 
ATOM     13  C   UNL     1      -4.071 -11.133  13.724  0.00  0.00    +0.164 C 
ATOM     14  C   UNL     1      -4.920 -10.421  14.780  0.00  0.00    +0.054 C 
ATOM     15  C   UNL     1      -6.430  -9.548  12.975  0.00  0.00    +0.041 C 
ATOM     16  C   UNL     1      -5.654 -10.362  11.948  0.00  0.00    +0.110 C 
ATOM     18  C   UNL     1      -3.247 -10.454  11.419  0.00  0.00    +0.242 C 
BRANCH  12   9
ATOM      4  O   UNL     1      -9.088 -10.612  15.282  0.00  0.00    -0.273 OA
ATOM      9  N   UNL     1      -7.089  -9.424  15.324  0.00  0.00    -0.310 N 
ATOM     20  C   UNL     1      -8.394  -9.693  15.709  0.00  0.00    +0.239 C 
ATOM     36  H   UNL     1      -6.629  -8.600  15.702  0.00  0.00    +0.149 HD
BRANCH  20  24
ATOM     24  C   UNL     1      -8.889  -8.706  16.745  0.00  0.00    +0.255 C 
BRANCH  24   6
ATOM      6  O   UNL     1      -9.613  -7.661  16.133  0.00  0.00    -0.374 OA
ATOM     35  C   UNL     1     -10.748  -7.278  16.903  0.00  0.00    +0.194 C 
ENDBRANCH  24   6
ENDBRANCH  20  24
ENDBRANCH  12   9
BRANCH  18  21
ATOM     21  C   UNL     1      -1.837 -10.698  11.897  0.00  0.00    +0.255 C 
BRANCH  21   3
ATOM      3  O   UNL     1      -1.305  -9.440  12.232  0.00  0.00    -0.374 OA
ATOM     31  C   UNL     1      -0.430  -8.942  11.221  0.00  0.00    +0.194 C 
ENDBRANCH  21   3
ENDBRANCH  18  21
ENDBRANCH  17  13
BRANCH  10  19
ATOM     19  C   UNL     1      -3.964 -14.721  14.906  0.00  0.00    +0.186 C 
BRANCH  19  25
ATOM      7  O   UNL     1      -2.373 -16.478  15.381  0.00  0.00    -0.249 OA
ATOM     25  C   UNL     1      -2.646 -15.468  14.741  0.00  0.00    +0.328 C 
BRANCH  25   5
ATOM      5  O   UNL     1      -1.828 -14.871  13.829  0.00  0.00    -0.467 OA
ATOM     34  C   UNL     1      -0.703 -15.646  13.403  0.00  0.00    +0.280 C 
ENDBRANCH  25   5
ENDBRANCH  19  25
BRANCH  19  22
ATOM     22  C   UNL     1      -4.651 -15.054  16.239  0.00  0.00    +0.071 C 
BRANCH  22  23
ATOM     11  N   UNL     1      -7.622 -12.956  16.795  0.00  0.00    -0.360 N 
ATOM     23  C   UNL     1      -5.705 -14.068  16.667  0.00  0.00    -0.020 A 
ATOM     26  C   UNL     1      -5.575 -13.072  17.675  0.00  0.00    +0.003 A 
ATOM     27  C   UNL     1      -6.975 -13.972  16.144  0.00  0.00    +0.087 A 
ATOM     28  C   UNL     1      -6.792 -12.389  17.735  0.00  0.00    +0.047 A 
ATOM     29  C   UNL     1      -4.536 -12.685  18.544  0.00  0.00    +0.010 A 
ATOM     30  C   UNL     1      -7.022 -11.334  18.625  0.00  0.00    +0.026 A 
ATOM     32  C   UNL     1      -4.752 -11.632  19.440  0.00  0.00    +0.001 A 
ATOM     33  C   UNL     1      -5.977 -10.967  19.477  0.00  0.00    +0.002 A 
ATOM     38  H   UNL     1      -8.573 -12.666  16.614  0.00  0.00    +0.165 HD
ENDBRANCH  22  23
ENDBRANCH  19  22
ENDBRANCH  10  19
TORSDOF 11
ENDMDL
MODEL 7
REMARK VINA RESULT:      -5.2     24.477     28.002
REMARK  Name = 7114634
REMARK  14 active torsions:
REMARK  status: ('A' for Active; 'I' for Inactive)
REMARK    1  A    between atoms: O_3  and  C_21
REMARK    2  A    between atoms: O_3  and  C_31
REMARK    3  A    between atoms: O_5  and  C_25
REMARK    4  A    between atoms: O_5  and  C_34
REMARK    5  A    between atoms: O_6  and  C_24
REMARK    6  A    between atoms: O_6  and  C_35
REMARK    7  A    between atoms: N_9  and  C_12
REMARK    8  A    between atoms: N_10  and  C_19
REMARK    9  A    between atoms: C_13  and  C_17
REMARK   10  A    between atoms: C_18  and  C_21
REMARK   11  A    between atoms: C_19  and  C_22
REMARK   12  A    between atoms: C_19  and  C_25
REMARK   13  A    between atoms: C_20  and  C_24
REMARK   14  A    between atoms: C_22  and  C_23
REMARK                            x       y       z     vdW  Elec       q    Type
REMARK                         _______ _______ _______ _____ _____    ______ ____
ROOT
ATOM      1  O   UNL     1      13.912   6.869   6.864  0.00  0.00    -0.274 OA
ATOM     10  N   UNL     1      11.870   6.869   5.744  0.00  0.00    -0.301 N 
ATOM     17  C   UNL     1      13.160   7.306   5.997  0.00  0.00    +0.234 C 
ATOM     37  H   UNL     1      11.292   7.389   5.092  0.00  0.00    +0.150 HD
ENDROOT
BRANCH  17  13
ATOM      2  O   UNL     1      16.896   9.457   6.251  0.00  0.00    -0.273 OA
ATOM      8  N   UNL     1      15.045   8.529   5.188  0.00  0.00    -0.288 N 
ATOM     12  C   UNL     1      13.966   7.051   2.913  0.00  0.00    +0.077 C 
ATOM     13  C   UNL     1      13.585   8.396   5.056  0.00  0.00    +0.164 C 
ATOM     14  C   UNL     1      13.132   8.123   3.619  0.00  0.00    +0.054 C 
ATOM     15  C   UNL     1      15.454   7.375   3.031  0.00  0.00    +0.041 C 
ATOM     16  C   UNL     1      15.862   7.529   4.490  0.00  0.00    +0.110 C 
ATOM     18  C   UNL     1      15.681   9.438   6.042  0.00  0.00    +0.242 C 
BRANCH  12   9
ATOM      4  O   UNL     1      13.793   4.622   1.343  0.00  0.00    -0.273 OA
ATOM      9  N   UNL     1      13.580   6.931   1.528  0.00  0.00    -0.310 N 
ATOM     20  C   UNL     1      13.527   5.718   0.857  0.00  0.00    +0.239 C 
ATOM     36  H   UNL     1      13.394   7.785   1.009  0.00  0.00    +0.149 HD
BRANCH  20  24
ATOM     24  C   UNL     1      13.090   5.891  -0.583  0.00  0.00    +0.255 C 
BRANCH  24   6
ATOM      6  O   UNL     1      12.081   4.961  -0.913  0.00  0.00    -0.374 OA
ATOM     35  C   UNL     1      11.093   5.530  -1.767  0.00  0.00    +0.194 C 
ENDBRANCH  24   6
ENDBRANCH  20  24
ENDBRANCH  12   9
BRANCH  18  21
ATOM     21  C   UNL     1      14.802  10.454   6.729  0.00  0.00    +0.255 C 
BRANCH  21   3
ATOM      3  O   UNL     1      15.068  11.692   6.116  0.00  0.00    -0.374 OA
ATOM     31  C   UNL     1      13.984  12.129   5.298  0.00  0.00    +0.194 C 
ENDBRANCH  21   3
ENDBRANCH  18  21
ENDBRANCH  17  13
BRANCH  10  19
ATOM     19  C   UNL     1      11.233   5.812   6.496  0.00  0.00    +0.186 C 
BRANCH  19  25
ATOM      7  O   UNL     1      10.705   5.586   8.843  0.00  0.00    -0.249 OA
ATOM     25  C   UNL     1      10.718   6.298   7.845  0.00  0.00    +0.328 C 
BRANCH  25   5
ATOM      5  O   UNL     1      10.272   7.584   7.792  0.00  0.00    -0.467 OA
ATOM     34  C   UNL     1       8.856   7.756   7.914  0.00  0.00    +0.280 C 
ENDBRANCH  25   5
ENDBRANCH  19  25
BRANCH  19  22
ATOM     22  C   UNL     1      10.135   5.112   5.680  0.00  0.00    +0.071 C 
BRANCH  22  23
ATOM     11  N   UNL     1      10.685   5.021   2.043  0.00  0.00    -0.360 N 
ATOM     23  C   UNL     1      10.224   5.328   4.192  0.00  0.00    -0.020 A 
ATOM     26  C   UNL     1       9.722   6.443   3.466  0.00  0.00    +0.003 A 
ATOM     27  C   UNL     1      10.810   4.469   3.290  0.00  0.00    +0.087 A 
ATOM     28  C   UNL     1      10.025   6.226   2.120  0.00  0.00    +0.047 A 
ATOM     29  C   UNL     1       9.038   7.621   3.826  0.00  0.00    +0.010 A 
ATOM     30  C   UNL     1       9.676   7.132   1.112  0.00  0.00    +0.026 A 
ATOM     32  C   UNL     1       8.683   8.536   2.828  0.00  0.00    +0.001 A 
ATOM     33  C   UNL     1       8.998   8.293   1.493  0.00  0.00    +0.002 A 
ATOM     38  H   UNL     1      11.026   4.602   1.188  0.00  0.00    +0.165 HD
ENDBRANCH  22  23
ENDBRANCH  19  22
ENDBRANCH  10  19
TORSDOF 11
ENDMDL
MODEL 8
REMARK VINA RESULT:      -5.1     23.556     27.910
REMARK  Name = 7114634
REMARK  14 active torsions:
REMARK  status: ('A' for Active; 'I' for Inactive)
REMARK    1  A    between atoms: O_3  and  C_21
REMARK    2  A    between atoms: O_3  and  C_31
REMARK    3  A    between atoms: O_5  and  C_25
REMARK    4  A    between atoms: O_5  and  C_34
REMARK    5  A    between atoms: O_6  and  C_24
REMARK    6  A    between atoms: O_6  and  C_35
REMARK    7  A    between atoms: N_9  and  C_12
REMARK    8  A    between atoms: N_10  and  C_19
REMARK    9  A    between atoms: C_13  and  C_17
REMARK   10  A    between atoms: C_18  and  C_21
REMARK   11  A    between atoms: C_19  and  C_22
REMARK   12  A    between atoms: C_19  and  C_25
REMARK   13  A    between atoms: C_20  and  C_24
REMARK   14  A    between atoms: C_22  and  C_23
REMARK                            x       y       z     vdW  Elec       q    Type
REMARK                         _______ _______ _______ _____ _____    ______ ____
ROOT
ATOM      1  O   UNL     1      12.306   7.615   2.278  0.00  0.00    -0.274 OA
ATOM     10  N   UNL     1      13.681   5.838   2.889  0.00  0.00    -0.301 N 
ATOM     17  C   UNL     1      13.049   7.055   3.080  0.00  0.00    +0.234 C 
ATOM     37  H   UNL     1      14.376   5.531   3.561  0.00  0.00    +0.150 HD
ENDROOT
BRANCH  17  13
ATOM      2  O   UNL     1      13.755  11.250   3.822  0.00  0.00    -0.273 OA
ATOM      8  N   UNL     1      13.065   9.087   4.334  0.00  0.00    -0.288 N 
ATOM     12  C   UNL     1      11.094   7.339   5.595  0.00  0.00    +0.077 C 
ATOM     13  C   UNL     1      13.350   7.646   4.427  0.00  0.00    +0.164 C 
ATOM     14  C   UNL     1      12.574   6.949   5.546  0.00  0.00    +0.054 C 
ATOM     15  C   UNL     1      10.949   8.860   5.609  0.00  0.00    +0.041 C 
ATOM     16  C   UNL     1      11.654   9.484   4.412  0.00  0.00    +0.110 C 
ATOM     18  C   UNL     1      14.021  10.064   4.032  0.00  0.00    +0.242 C 
BRANCH  12   9
ATOM      4  O   UNL     1       9.944   4.689   5.804  0.00  0.00    -0.273 OA
ATOM      9  N   UNL     1      10.447   6.756   6.744  0.00  0.00    -0.310 N 
ATOM     20  C   UNL     1       9.923   5.471   6.750  0.00  0.00    +0.239 C 
ATOM     36  H   UNL     1      10.323   7.338   7.568  0.00  0.00    +0.149 HD
BRANCH  20  24
ATOM     24  C   UNL     1       9.306   5.123   8.089  0.00  0.00    +0.255 C 
BRANCH  24   6
ATOM      6  O   UNL     1      10.298   5.041   9.089  0.00  0.00    -0.374 OA
ATOM     35  C   UNL     1       9.751   4.672  10.351  0.00  0.00    +0.194 C 
ENDBRANCH  24   6
ENDBRANCH  20  24
ENDBRANCH  12   9
BRANCH  18  21
ATOM     21  C   UNL     1      15.459   9.612   3.973  0.00  0.00    +0.255 C 
BRANCH  21   3
ATOM      3  O   UNL     1      15.929   9.939   2.689  0.00  0.00    -0.374 OA
ATOM     31  C   UNL     1      15.990   8.798   1.834  0.00  0.00    +0.194 C 
ENDBRANCH  21   3
ENDBRANCH  18  21
ENDBRANCH  17  13
BRANCH  10  19
ATOM     19  C   UNL     1      13.536   5.053   1.684  0.00  0.00    +0.186 C 
BRANCH  19  25
ATOM      7  O   UNL     1      14.930   3.084   1.831  0.00  0.00    -0.249 OA
ATOM     25  C   UNL     1      14.777   4.218   1.392  0.00  0.00    +0.328 C 
BRANCH  25   5
ATOM      5  O   UNL     1      15.675   4.888   0.616  0.00  0.00    -0.467 OA
ATOM     34  C   UNL     1      15.186   5.339  -0.651  0.00  0.00    +0.280 C 
ENDBRANCH  25   5
ENDBRANCH  19  25
BRANCH  19  22
ATOM     22  C   UNL     1      12.261   4.197   1.708  0.00  0.00    +0.071 C 
BRANCH  22  23
ATOM     11  N   UNL     1       9.677   5.051  -0.769  0.00  0.00    -0.360 N 
ATOM     23  C   UNL     1      11.358   4.382   0.517  0.00  0.00    -0.020 A 
ATOM     26  C   UNL     1      11.532   3.812  -0.775  0.00  0.00    +0.003 A 
ATOM     27  C   UNL     1      10.209   5.140   0.489  0.00  0.00    +0.087 A 
ATOM     28  C   UNL     1      10.463   4.247  -1.563  0.00  0.00    +0.047 A 
ATOM     29  C   UNL     1      12.498   2.963  -1.352  0.00  0.00    +0.010 A 
ATOM     30  C   UNL     1      10.313   3.875  -2.903  0.00  0.00    +0.026 A 
ATOM     32  C   UNL     1      12.360   2.583  -2.691  0.00  0.00    +0.001 A 
ATOM     33  C   UNL     1      11.283   3.033  -3.453  0.00  0.00    +0.002 A 
ATOM     38  H   UNL     1       8.830   5.512  -1.074  0.00  0.00    +0.165 HD
ENDBRANCH  22  23
ENDBRANCH  19  22
ENDBRANCH  10  19
TORSDOF 11
ENDMDL
MODEL 9
REMARK VINA RESULT:      -5.1      2.429      3.721
REMARK  Name = 7114634
REMARK  14 active torsions:
REMARK  status: ('A' for Active; 'I' for Inactive)
REMARK    1  A    between atoms: O_3  and  C_21
REMARK    2  A    between atoms: O_3  and  C_31
REMARK    3  A    between atoms: O_5  and  C_25
REMARK    4  A    between atoms: O_5  and  C_34
REMARK    5  A    between atoms: O_6  and  C_24
REMARK    6  A    between atoms: O_6  and  C_35
REMARK    7  A    between atoms: N_9  and  C_12
REMARK    8  A    between atoms: N_10  and  C_19
REMARK    9  A    between atoms: C_13  and  C_17
REMARK   10  A    between atoms: C_18  and  C_21
REMARK   11  A    between atoms: C_19  and  C_22
REMARK   12  A    between atoms: C_19  and  C_25
REMARK   13  A    between atoms: C_20  and  C_24
REMARK   14  A    between atoms: C_22  and  C_23
REMARK                            x       y       z     vdW  Elec       q    Type
REMARK                         _______ _______ _______ _____ _____    ______ ____
ROOT
ATOM      1  O   UNL     1      -6.869 -10.927  13.764  0.00  0.00    -0.274 OA
ATOM     10  N   UNL     1      -5.043 -10.509  15.147  0.00  0.00    -0.301 N 
ATOM     17  C   UNL     1      -5.720 -10.529  13.940  0.00  0.00    +0.234 C 
ATOM     37  H   UNL     1      -4.053 -10.284  15.155  0.00  0.00    +0.150 HD
ENDROOT
BRANCH  17  13
ATOM      2  O   UNL     1      -2.229 -12.448  12.272  0.00  0.00    -0.273 OA
ATOM      8  N   UNL     1      -4.124 -11.097  12.256  0.00  0.00    -0.288 N 
ATOM     12  C   UNL     1      -6.531 -10.206  10.863  0.00  0.00    +0.077 C 
ATOM     13  C   UNL     1      -4.894  -9.974  12.816  0.00  0.00    +0.164 C 
ATOM     14  C   UNL     1      -5.752  -9.253  11.774  0.00  0.00    +0.054 C 
ATOM     15  C   UNL     1      -5.590 -11.249  10.261  0.00  0.00    +0.041 C 
ATOM     16  C   UNL     1      -4.845 -12.003  11.354  0.00  0.00    +0.110 C 
ATOM     18  C   UNL     1      -2.820 -11.431  12.642  0.00  0.00    +0.242 C 
BRANCH  12   9
ATOM      4  O   UNL     1      -9.287  -9.314  10.866  0.00  0.00    -0.273 OA
ATOM      9  N   UNL     1      -7.215  -9.478   9.823  0.00  0.00    -0.310 N 
ATOM     20  C   UNL     1      -8.544  -9.092   9.914  0.00  0.00    +0.239 C 
ATOM     36  H   UNL     1      -6.710  -9.289   8.961  0.00  0.00    +0.149 HD
BRANCH  20  24
ATOM     24  C   UNL     1      -8.997  -8.341   8.679  0.00  0.00    +0.255 C 
BRANCH  24   6
ATOM      6  O   UNL     1      -7.907  -7.685   8.067  0.00  0.00    -0.374 OA
ATOM     35  C   UNL     1      -8.096  -6.274   8.019  0.00  0.00    +0.194 C 
ENDBRANCH  24   6
ENDBRANCH  20  24
ENDBRANCH  12   9
BRANCH  18  21
ATOM     21  C   UNL     1      -2.115 -10.464  13.561  0.00  0.00    +0.255 C 
BRANCH  21   3
ATOM      3  O   UNL     1      -2.114 -11.054  14.838  0.00  0.00    -0.374 OA
ATOM     31  C   UNL     1      -1.170 -10.438  15.712  0.00  0.00    +0.194 C 
ENDBRANCH  21   3
ENDBRANCH  18  21
ENDBRANCH  17  13
BRANCH  10  19
ATOM     19  C   UNL     1      -5.625 -10.969  16.388  0.00  0.00    +0.186 C 
BRANCH  19  25
ATOM      7  O   UNL     1      -3.805 -11.529  17.876  0.00  0.00    -0.249 OA
ATOM     25  C   UNL     1      -4.700 -11.921  17.136  0.00  0.00    +0.328 C 
BRANCH  25   5
ATOM      5  O   UNL     1      -4.981 -13.227  16.866  0.00  0.00    -0.467 OA
ATOM     34  C   UNL     1      -6.370 -13.569  16.825  0.00  0.00    +0.280 C 
ENDBRANCH  25   5
ENDBRANCH  19  25
BRANCH  19  22
ATOM     22  C   UNL     1      -6.084  -9.800  17.272  0.00  0.00    +0.071 C 
BRANCH  22  23
ATOM     11  N   UNL     1      -8.960 -10.716  19.377  0.00  0.00    -0.360 N 
ATOM     23  C   UNL     1      -7.411 -10.010  17.952  0.00  0.00    -0.020 A 
ATOM     26  C   UNL     1      -8.662  -9.456  17.561  0.00  0.00    +0.003 A 
ATOM     27  C   UNL     1      -7.626 -10.780  19.073  0.00  0.00    +0.087 A 
ATOM     28  C   UNL     1      -9.617  -9.915  18.472  0.00  0.00    +0.047 A 
ATOM     29  C   UNL     1      -9.075  -8.606  16.516  0.00  0.00    +0.010 A 
ATOM     30  C   UNL     1     -10.968  -9.564  18.388  0.00  0.00    +0.026 A 
ATOM     32  C   UNL     1     -10.424  -8.247  16.420  0.00  0.00    +0.001 A 
ATOM     33  C   UNL     1     -11.355  -8.720  17.344  0.00  0.00    +0.002 A 
ATOM     38  H   UNL     1      -9.399 -11.187  20.157  0.00  0.00    +0.165 HD
ENDBRANCH  22  23
ENDBRANCH  19  22
ENDBRANCH  10  19
TORSDOF 11
ENDMDL
MODEL 10
REMARK VINA RESULT:      -5.1      3.158      6.325
REMARK  Name = 7114634
REMARK  14 active torsions:
REMARK  status: ('A' for Active; 'I' for Inactive)
REMARK    1  A    between atoms: O_3  and  C_21
REMARK    2  A    between atoms: O_3  and  C_31
REMARK    3  A    between atoms: O_5  and  C_25
REMARK    4  A    between atoms: O_5  and  C_34
REMARK    5  A    between atoms: O_6  and  C_24
REMARK    6  A    between atoms: O_6  and  C_35
REMARK    7  A    between atoms: N_9  and  C_12
REMARK    8  A    between atoms: N_10  and  C_19
REMARK    9  A    between atoms: C_13  and  C_17
REMARK   10  A    between atoms: C_18  and  C_21
REMARK   11  A    between atoms: C_19  and  C_22
REMARK   12  A    between atoms: C_19  and  C_25
REMARK   13  A    between atoms: C_20  and  C_24
REMARK   14  A    between atoms: C_22  and  C_23
REMARK                            x       y       z     vdW  Elec       q    Type
REMARK                         _______ _______ _______ _____ _____    ______ ____
ROOT
ATOM      1  O   UNL     1      -7.466  -9.183  16.366  0.00  0.00    -0.274 OA
ATOM     10  N   UNL     1      -6.692 -11.364  16.626  0.00  0.00    -0.301 N 
ATOM     17  C   UNL     1      -7.662 -10.393  16.437  0.00  0.00    +0.234 C 
ATOM     37  H   UNL     1      -6.979 -12.321  16.802  0.00  0.00    +0.150 HD
ENDROOT
BRANCH  17  13
ATOM      2  O   UNL     1      -9.671 -12.698  19.488  0.00  0.00    -0.273 OA
ATOM      8  N   UNL     1      -9.519 -11.266  17.659  0.00  0.00    -0.288 N 
ATOM     12  C   UNL     1     -10.466  -8.862  16.298  0.00  0.00    +0.077 C 
ATOM     13  C   UNL     1      -9.035 -10.983  16.297  0.00  0.00    +0.164 C 
ATOM     14  C   UNL     1      -9.974 -10.073  15.502  0.00  0.00    +0.054 C 
ATOM     15  C   UNL     1     -11.046  -9.311  17.639  0.00  0.00    +0.041 C 
ATOM     16  C   UNL     1     -10.026 -10.122  18.426  0.00  0.00    +0.110 C 
ATOM     18  C   UNL     1      -9.387 -12.502  18.304  0.00  0.00    +0.242 C 
BRANCH  12   9
ATOM      4  O   UNL     1     -10.308  -6.088  15.479  0.00  0.00    -0.273 OA
ATOM      9  N   UNL     1     -11.444  -8.116  15.546  0.00  0.00    -0.310 N 
ATOM     20  C   UNL     1     -11.280  -6.783  15.199  0.00  0.00    +0.239 C 
ATOM     36  H   UNL     1     -12.318  -8.578  15.309  0.00  0.00    +0.149 HD
BRANCH  20  24
ATOM     24  C   UNL     1     -12.462  -6.258  14.410  0.00  0.00    +0.255 C 
BRANCH  24   6
ATOM      6  O   UNL     1     -12.340  -4.869  14.195  0.00  0.00    -0.374 OA
ATOM     35  C   UNL     1     -12.254  -4.551  12.809  0.00  0.00    +0.194 C 
ENDBRANCH  24   6
ENDBRANCH  20  24
ENDBRANCH  12   9
BRANCH  18  21
ATOM     21  C   UNL     1      -8.873 -13.651  17.472  0.00  0.00    +0.255 C 
BRANCH  21   3
ATOM      3  O   UNL     1      -7.513 -13.803  17.797  0.00  0.00    -0.374 OA
ATOM     31  C   UNL     1      -6.865 -14.759  16.959  0.00  0.00    +0.194 C 
ENDBRANCH  21   3
ENDBRANCH  18  21
ENDBRANCH  17  13
BRANCH  10  19
ATOM     19  C   UNL     1      -5.286 -11.059  16.767  0.00  0.00    +0.186 C 
BRANCH  19  25
ATOM      7  O   UNL     1      -3.843 -11.724  18.587  0.00  0.00    -0.249 OA
ATOM     25  C   UNL     1      -4.834 -11.101  18.221  0.00  0.00    +0.328 C 
BRANCH  25   5
ATOM      5  O   UNL     1      -5.662 -10.391  19.038  0.00  0.00    -0.467 OA
ATOM     34  C   UNL     1      -6.316 -11.143  20.065  0.00  0.00    +0.280 C 
ENDBRANCH  25   5
ENDBRANCH  19  25
BRANCH  19  22
ATOM     22  C   UNL     1      -4.416 -11.949  15.867  0.00  0.00    +0.071 C 
BRANCH  22  23
ATOM     11  N   UNL     1      -1.515 -10.056  14.625  0.00  0.00    -0.360 N 
ATOM     23  C   UNL     1      -3.348 -11.213  15.100  0.00  0.00    -0.020 A 
ATOM     26  C   UNL     1      -3.303 -11.010  13.693  0.00  0.00    +0.003 A 
ATOM     27  C   UNL     1      -2.234 -10.616  15.646  0.00  0.00    +0.087 A 
ATOM     28  C   UNL     1      -2.143 -10.280  13.421  0.00  0.00    +0.047 A 
ATOM     29  C   UNL     1      -4.140 -11.377  12.621  0.00  0.00    +0.010 A 
ATOM     30  C   UNL     1      -1.778  -9.899  12.126  0.00  0.00    +0.026 A 
ATOM     32  C   UNL     1      -3.788 -11.002  11.320  0.00  0.00    +0.001 A 
ATOM     33  C   UNL     1      -2.624 -10.274  11.078  0.00  0.00    +0.002 A 
ATOM     38  H   UNL     1      -0.645  -9.552  14.737  0.00  0.00    +0.165 HD
ENDBRANCH  22  23
ENDBRANCH  19  22
ENDBRANCH  10  19
TORSDOF 11
ENDMDL
