MODEL 1
REMARK VINA RESULT:      -8.4      0.000      0.000
REMARK  Name = 26744684
REMARK  8 active torsions:
REMARK  status: ('A' for Active; 'I' for Inactive)
REMARK    1  A    between atoms: O_2  and  C_11
REMARK    2  A    between atoms: O_3  and  C_12
REMARK    3  A    between atoms: N_8  and  C_15
REMARK    4  A    between atoms: C_10  and  C_14
REMARK    5  A    between atoms: C_13  and  C_15
REMARK    6  A    between atoms: C_14  and  C_16
REMARK    7  A    between atoms: C_22  and  C_24
REMARK    8  A    between atoms: C_32  and  C_33
REMARK                            x       y       z     vdW  Elec       q    Type
REMARK                         _______ _______ _______ _____ _____    ______ ____
ROOT
ATOM      1  O   UNL     1      13.484   9.292  19.717  0.00  0.00    -0.366 OA
ATOM     10  C   UNL     1      14.658   8.622  19.203  0.00  0.00    +0.159 C 
ATOM     11  C   UNL     1      14.179   7.738  18.056  0.00  0.00    +0.175 C 
ATOM     12  C   UNL     1      12.755   7.429  18.470  0.00  0.00    +0.176 C 
ATOM     13  C   UNL     1      12.317   8.754  19.069  0.00  0.00    +0.167 C 
ENDROOT
BRANCH  11   2
ATOM      2  O   UNL     1      14.190   8.519  16.861  0.00  0.00    -0.387 OA
ATOM     34  H   UNL     1      13.270   8.772  16.671  0.00  0.00    +0.210 HD
ENDBRANCH  11   2
BRANCH  12   3
ATOM      3  O   UNL     1      11.932   7.038  17.390  0.00  0.00    -0.387 OA
ATOM     35  H   UNL     1      11.050   7.419  17.543  0.00  0.00    +0.210 HD
ENDBRANCH  12   3
BRANCH  10  14
ATOM     14  C   UNL     1      15.282   7.832  20.344  0.00  0.00    +0.130 C 
BRANCH  14  16
ATOM      4  O   UNL     1      16.469   9.749  21.089  0.00  0.00    -0.276 OA
ATOM      6  N   UNL     1      17.660   7.756  20.996  0.00  0.00    -0.298 N 
ATOM      7  N   UNL     1      20.025   6.181  21.550  0.00  0.00    -0.312 N 
ATOM      9  N   UNL     1      21.574   5.355  23.131  0.00  0.00    -0.240 NA
ATOM     16  C   UNL     1      16.517   8.541  20.845  0.00  0.00    +0.218 C 
ATOM     17  C   UNL     1      17.714   6.321  20.705  0.00  0.00    +0.126 C 
ATOM     18  C   UNL     1      18.894   8.367  21.482  0.00  0.00    +0.126 C 
ATOM     19  C   UNL     1      19.136   5.824  20.441  0.00  0.00    +0.125 C 
ATOM     20  C   UNL     1      19.723   7.393  22.316  0.00  0.00    +0.125 C 
ATOM     21  C   UNL     1      21.147   5.412  21.849  0.00  0.00    +0.121 A 
ATOM     23  C   UNL     1      21.758   4.748  20.797  0.00  0.00    +0.043 A 
ATOM     25  C   UNL     1      22.881   3.977  21.079  0.00  0.00    +0.005 A 
ATOM     26  C   UNL     1      22.667   4.596  23.366  0.00  0.00    +0.113 A 
ATOM     29  C   UNL     1      23.349   3.894  22.386  0.00  0.00    +0.020 A 
ENDBRANCH  14  16
ENDBRANCH  10  14
BRANCH  13  15
ATOM     15  C   UNL     1      11.191   8.615  20.077  0.00  0.00    +0.138 C 
BRANCH  15   8
ATOM      5  O   UNL     1      10.900   8.621  22.934  0.00  0.00    -0.270 OA
ATOM      8  N   UNL     1      11.171   9.798  20.958  0.00  0.00    -0.309 N 
ATOM     22  C   UNL     1      11.025   9.674  22.315  0.00  0.00    +0.244 C 
ATOM     36  H   UNL     1      11.337  10.696  20.518  0.00  0.00    +0.149 HD
BRANCH  22  24
ATOM     24  C   UNL     1      10.997  10.960  23.058  0.00  0.00    +0.037 A 
ATOM     27  C   UNL     1      10.932  12.167  22.360  0.00  0.00    +0.013 A 
ATOM     28  C   UNL     1      11.036  10.963  24.452  0.00  0.00    +0.013 A 
ATOM     30  C   UNL     1      10.906  13.375  23.057  0.00  0.00    +0.004 A 
ATOM     31  C   UNL     1      11.011  12.170  25.149  0.00  0.00    +0.004 A 
ATOM     32  C   UNL     1      10.946  13.376  24.451  0.00  0.00    -0.050 A 
ATOM     33  C   UNL     1      10.919  14.668  25.196  0.00  0.00    +0.044 C 
ENDBRANCH  22  24
ENDBRANCH  15   8
ENDBRANCH  13  15
TORSDOF 7
ENDMDL
MODEL 2
REMARK VINA RESULT:      -8.0      3.416      8.663
REMARK  Name = 26744684
REMARK  8 active torsions:
REMARK  status: ('A' for Active; 'I' for Inactive)
REMARK    1  A    between atoms: O_2  and  C_11
REMARK    2  A    between atoms: O_3  and  C_12
REMARK    3  A    between atoms: N_8  and  C_15
REMARK    4  A    between atoms: C_10  and  C_14
REMARK    5  A    between atoms: C_13  and  C_15
REMARK    6  A    between atoms: C_14  and  C_16
REMARK    7  A    between atoms: C_22  and  C_24
REMARK    8  A    between atoms: C_32  and  C_33
REMARK                            x       y       z     vdW  Elec       q    Type
REMARK                         _______ _______ _______ _____ _____    ______ ____
ROOT
ATOM      1  O   UNL     1      13.906   7.286  21.099  0.00  0.00    -0.366 OA
ATOM     10  C   UNL     1      12.574   7.549  21.595  0.00  0.00    +0.159 C 
ATOM     11  C   UNL     1      11.616   7.183  20.466  0.00  0.00    +0.175 C 
ATOM     12  C   UNL     1      12.466   7.433  19.238  0.00  0.00    +0.176 C 
ATOM     13  C   UNL     1      13.826   6.943  19.703  0.00  0.00    +0.167 C 
ENDROOT
BRANCH  11   2
ATOM      2  O   UNL     1      11.306   5.794  20.580  0.00  0.00    -0.387 OA
ATOM     34  H   UNL     1      11.558   5.513  21.476  0.00  0.00    +0.210 HD
ENDBRANCH  11   2
BRANCH  12   3
ATOM      3  O   UNL     1      12.015   6.737  18.095  0.00  0.00    -0.387 OA
ATOM     35  H   UNL     1      11.872   5.810  18.355  0.00  0.00    +0.210 HD
ENDBRANCH  12   3
BRANCH  10  14
ATOM     14  C   UNL     1      12.502   9.018  21.985  0.00  0.00    +0.130 C 
BRANCH  14  16
ATOM      4  O   UNL     1      14.724   9.376  22.740  0.00  0.00    -0.276 OA
ATOM      6  N   UNL     1      14.083  10.509  20.816  0.00  0.00    -0.298 N 
ATOM      7  N   UNL     1      14.694  12.150  18.511  0.00  0.00    -0.312 N 
ATOM      9  N   UNL     1      15.957  12.472  16.541  0.00  0.00    -0.240 NA
ATOM     16  C   UNL     1      13.873   9.643  21.890  0.00  0.00    +0.218 C 
ATOM     17  C   UNL     1      13.069  10.826  19.807  0.00  0.00    +0.126 C 
ATOM     18  C   UNL     1      15.385  11.150  20.652  0.00  0.00    +0.126 C 
ATOM     19  C   UNL     1      13.345  12.144  19.084  0.00  0.00    +0.125 C 
ATOM     20  C   UNL     1      15.733  11.365  19.181  0.00  0.00    +0.125 C 
ATOM     21  C   UNL     1      14.992  12.909  17.381  0.00  0.00    +0.121 A 
ATOM     23  C   UNL     1      14.269  14.076  17.193  0.00  0.00    +0.043 A 
ATOM     25  C   UNL     1      14.556  14.844  16.070  0.00  0.00    +0.005 A 
ATOM     26  C   UNL     1      16.208  13.245  15.461  0.00  0.00    +0.113 A 
ATOM     29  C   UNL     1      15.542  14.427  15.182  0.00  0.00    +0.020 A 
ENDBRANCH  14  16
ENDBRANCH  10  14
BRANCH  13  15
ATOM     15  C   UNL     1      14.984   7.578  18.954  0.00  0.00    +0.138 C 
BRANCH  15   8
ATOM      5  O   UNL     1      16.857   5.458  18.466  0.00  0.00    -0.270 OA
ATOM      8  N   UNL     1      16.239   7.327  19.685  0.00  0.00    -0.309 N 
ATOM     22  C   UNL     1      17.057   6.277  19.358  0.00  0.00    +0.244 C 
ATOM     36  H   UNL     1      16.499   8.007  20.391  0.00  0.00    +0.149 HD
BRANCH  22  24
ATOM     24  C   UNL     1      18.270   6.146  20.206  0.00  0.00    +0.037 A 
ATOM     27  C   UNL     1      18.428   6.960  21.328  0.00  0.00    +0.013 A 
ATOM     28  C   UNL     1      19.251   5.209  19.881  0.00  0.00    +0.013 A 
ATOM     30  C   UNL     1      19.567   6.837  22.124  0.00  0.00    +0.004 A 
ATOM     31  C   UNL     1      20.390   5.087  20.676  0.00  0.00    +0.004 A 
ATOM     32  C   UNL     1      20.548   5.901  21.798  0.00  0.00    -0.050 A 
ATOM     33  C   UNL     1      21.765   5.770  22.649  0.00  0.00    +0.044 C 
ENDBRANCH  22  24
ENDBRANCH  15   8
ENDBRANCH  13  15
TORSDOF 7
ENDMDL
MODEL 3
REMARK VINA RESULT:      -7.9     28.257     32.386
REMARK  Name = 26744684
REMARK  8 active torsions:
REMARK  status: ('A' for Active; 'I' for Inactive)
REMARK    1  A    between atoms: O_2  and  C_11
REMARK    2  A    between atoms: O_3  and  C_12
REMARK    3  A    between atoms: N_8  and  C_15
REMARK    4  A    between atoms: C_10  and  C_14
REMARK    5  A    between atoms: C_13  and  C_15
REMARK    6  A    between atoms: C_14  and  C_16
REMARK    7  A    between atoms: C_22  and  C_24
REMARK    8  A    between atoms: C_32  and  C_33
REMARK                            x       y       z     vdW  Elec       q    Type
REMARK                         _______ _______ _______ _____ _____    ______ ____
ROOT
ATOM      1  O   UNL     1     -16.325   2.086  24.796  0.00  0.00    -0.366 OA
ATOM     10  C   UNL     1     -17.580   1.463  24.442  0.00  0.00    +0.159 C 
ATOM     11  C   UNL     1     -18.016   2.094  23.123  0.00  0.00    +0.175 C 
ATOM     12  C   UNL     1     -17.388   3.470  23.211  0.00  0.00    +0.176 C 
ATOM     13  C   UNL     1     -16.057   3.157  23.872  0.00  0.00    +0.167 C 
ENDROOT
BRANCH  11   2
ATOM      2  O   UNL     1     -17.427   1.347  22.059  0.00  0.00    -0.387 OA
ATOM     34  H   UNL     1     -16.465   1.476  22.111  0.00  0.00    +0.210 HD
ENDBRANCH  11   2
BRANCH  12   3
ATOM      3  O   UNL     1     -17.221   4.089  21.952  0.00  0.00    -0.387 OA
ATOM     35  H   UNL     1     -18.011   3.889  21.422  0.00  0.00    +0.210 HD
ENDBRANCH  12   3
BRANCH  10  14
ATOM     14  C   UNL     1     -18.563   1.714  25.576  0.00  0.00    +0.130 C 
BRANCH  14  16
ATOM      4  O   UNL     1     -18.415  -0.287  26.845  0.00  0.00    -0.276 OA
ATOM      6  N   UNL     1     -17.509   1.625  27.805  0.00  0.00    -0.298 N 
ATOM      7  N   UNL     1     -15.965   2.946  29.867  0.00  0.00    -0.312 N 
ATOM      9  N   UNL     1     -13.934   3.135  31.058  0.00  0.00    -0.240 NA
ATOM     16  C   UNL     1     -18.159   0.918  26.793  0.00  0.00    +0.218 C 
ATOM     17  C   UNL     1     -17.206   3.057  27.741  0.00  0.00    +0.126 C 
ATOM     18  C   UNL     1     -17.081   0.925  29.013  0.00  0.00    +0.126 C 
ATOM     19  C   UNL     1     -16.992   3.680  29.121  0.00  0.00    +0.125 C 
ATOM     20  C   UNL     1     -15.798   1.517  29.592  0.00  0.00    +0.125 C 
ATOM     21  C   UNL     1     -15.192   3.579  30.838  0.00  0.00    +0.121 A 
ATOM     23  C   UNL     1     -15.774   4.635  31.522  0.00  0.00    +0.043 A 
ATOM     25  C   UNL     1     -15.014   5.276  32.494  0.00  0.00    +0.005 A 
ATOM     26  C   UNL     1     -13.227   3.783  32.010  0.00  0.00    +0.113 A 
ATOM     29  C   UNL     1     -13.715   4.848  32.748  0.00  0.00    +0.020 A 
ENDBRANCH  14  16
ENDBRANCH  10  14
BRANCH  13  15
ATOM     15  C   UNL     1     -15.462   4.337  24.617  0.00  0.00    +0.138 C 
BRANCH  15   8
ATOM      5  O   UNL     1     -16.045   6.723  23.129  0.00  0.00    -0.270 OA
ATOM      8  N   UNL     1     -14.541   5.067  23.728  0.00  0.00    -0.309 N 
ATOM     22  C   UNL     1     -14.935   6.201  23.067  0.00  0.00    +0.244 C 
ATOM     36  H   UNL     1     -13.586   4.728  23.684  0.00  0.00    +0.149 HD
BRANCH  22  24
ATOM     24  C   UNL     1     -13.898   6.802  22.189  0.00  0.00    +0.037 A 
ATOM     27  C   UNL     1     -12.896   6.000  21.643  0.00  0.00    +0.013 A 
ATOM     28  C   UNL     1     -13.925   8.169  21.912  0.00  0.00    +0.013 A 
ATOM     30  C   UNL     1     -11.922   6.564  20.819  0.00  0.00    +0.004 A 
ATOM     31  C   UNL     1     -12.951   8.733  21.089  0.00  0.00    +0.004 A 
ATOM     32  C   UNL     1     -11.950   7.930  20.542  0.00  0.00    -0.050 A 
ATOM     33  C   UNL     1     -10.908   8.534  19.662  0.00  0.00    +0.044 C 
ENDBRANCH  22  24
ENDBRANCH  15   8
ENDBRANCH  13  15
TORSDOF 7
ENDMDL
MODEL 4
REMARK VINA RESULT:      -7.8      5.189      8.169
REMARK  Name = 26744684
REMARK  8 active torsions:
REMARK  status: ('A' for Active; 'I' for Inactive)
REMARK    1  A    between atoms: O_2  and  C_11
REMARK    2  A    between atoms: O_3  and  C_12
REMARK    3  A    between atoms: N_8  and  C_15
REMARK    4  A    between atoms: C_10  and  C_14
REMARK    5  A    between atoms: C_13  and  C_15
REMARK    6  A    between atoms: C_14  and  C_16
REMARK    7  A    between atoms: C_22  and  C_24
REMARK    8  A    between atoms: C_32  and  C_33
REMARK                            x       y       z     vdW  Elec       q    Type
REMARK                         _______ _______ _______ _____ _____    ______ ____
ROOT
ATOM      1  O   UNL     1      14.193   7.674  17.427  0.00  0.00    -0.366 OA
ATOM     10  C   UNL     1      13.150   7.142  18.276  0.00  0.00    +0.159 C 
ATOM     11  C   UNL     1      11.849   7.790  17.814  0.00  0.00    +0.175 C 
ATOM     12  C   UNL     1      12.335   9.116  17.266  0.00  0.00    +0.176 C 
ATOM     13  C   UNL     1      13.638   8.712  16.598  0.00  0.00    +0.167 C 
ENDROOT
BRANCH  11   2
ATOM      2  O   UNL     1      11.304   6.990  16.765  0.00  0.00    -0.387 OA
ATOM     34  H   UNL     1      10.336   7.011  16.857  0.00  0.00    +0.210 HD
ENDBRANCH  11   2
BRANCH  12   3
ATOM      3  O   UNL     1      11.434   9.707  16.354  0.00  0.00    -0.387 OA
ATOM     35  H   UNL     1      10.946   8.987  15.917  0.00  0.00    +0.210 HD
ENDBRANCH  12   3
BRANCH  10  14
ATOM     14  C   UNL     1      13.505   7.478  19.717  0.00  0.00    +0.130 C 
BRANCH  14  16
ATOM      4  O   UNL     1      11.620   6.444  20.724  0.00  0.00    -0.276 OA
ATOM      6  N   UNL     1      11.898   8.716  21.122  0.00  0.00    -0.298 N 
ATOM      7  N   UNL     1      11.183  11.160  22.499  0.00  0.00    -0.312 N 
ATOM      9  N   UNL     1      10.880  12.311  24.539  0.00  0.00    -0.240 NA
ATOM     16  C   UNL     1      12.256   7.488  20.565  0.00  0.00    +0.218 C 
ATOM     17  C   UNL     1      12.655   9.955  20.931  0.00  0.00    +0.126 C 
ATOM     18  C   UNL     1      10.705   8.806  21.959  0.00  0.00    +0.126 C 
ATOM     19  C   UNL     1      11.813  11.208  21.176  0.00  0.00    +0.125 C 
ATOM     20  C   UNL     1      10.861   9.848  23.065  0.00  0.00    +0.125 C 
ATOM     21  C   UNL     1      10.867  12.329  23.187  0.00  0.00    +0.121 A 
ATOM     23  C   UNL     1      10.554  13.445  22.428  0.00  0.00    +0.043 A 
ATOM     25  C   UNL     1      10.235  14.620  23.101  0.00  0.00    +0.005 A 
ATOM     26  C   UNL     1      10.564  13.471  25.158  0.00  0.00    +0.113 A 
ATOM     29  C   UNL     1      10.239  14.641  24.492  0.00  0.00    +0.020 A 
ENDBRANCH  14  16
ENDBRANCH  10  14
BRANCH  13  15
ATOM     15  C   UNL     1      14.631   9.853  16.475  0.00  0.00    +0.138 C 
BRANCH  15   8
ATOM      5  O   UNL     1      14.261  12.697  16.356  0.00  0.00    -0.270 OA
ATOM      8  N   UNL     1      14.473  10.768  17.620  0.00  0.00    -0.309 N 
ATOM     22  C   UNL     1      14.301  12.116  17.437  0.00  0.00    +0.244 C 
ATOM     36  H   UNL     1      14.429  10.344  18.540  0.00  0.00    +0.149 HD
BRANCH  22  24
ATOM     24  C   UNL     1      14.184  12.904  18.691  0.00  0.00    +0.037 A 
ATOM     27  C   UNL     1      15.058  12.662  19.751  0.00  0.00    +0.013 A 
ATOM     28  C   UNL     1      13.201  13.886  18.809  0.00  0.00    +0.013 A 
ATOM     30  C   UNL     1      14.949  13.401  20.929  0.00  0.00    +0.004 A 
ATOM     31  C   UNL     1      13.090  14.624  19.986  0.00  0.00    +0.004 A 
ATOM     32  C   UNL     1      13.964  14.382  21.046  0.00  0.00    -0.050 A 
ATOM     33  C   UNL     1      13.846  15.172  22.306  0.00  0.00    +0.044 C 
ENDBRANCH  22  24
ENDBRANCH  15   8
ENDBRANCH  13  15
TORSDOF 7
ENDMDL
MODEL 5
REMARK VINA RESULT:      -7.7     27.629     31.243
REMARK  Name = 26744684
REMARK  8 active torsions:
REMARK  status: ('A' for Active; 'I' for Inactive)
REMARK    1  A    between atoms: O_2  and  C_11
REMARK    2  A    between atoms: O_3  and  C_12
REMARK    3  A    between atoms: N_8  and  C_15
REMARK    4  A    between atoms: C_10  and  C_14
REMARK    5  A    between atoms: C_13  and  C_15
REMARK    6  A    between atoms: C_14  and  C_16
REMARK    7  A    between atoms: C_22  and  C_24
REMARK    8  A    between atoms: C_32  and  C_33
REMARK                            x       y       z     vdW  Elec       q    Type
REMARK                         _______ _______ _______ _____ _____    ______ ____
ROOT
ATOM      1  O   UNL     1      -4.838 -11.685  18.795  0.00  0.00    -0.366 OA
ATOM     10  C   UNL     1      -6.271 -11.872  18.848  0.00  0.00    +0.159 C 
ATOM     11  C   UNL     1      -6.669 -12.522  17.527  0.00  0.00    +0.175 C 
ATOM     12  C   UNL     1      -5.601 -12.002  16.586  0.00  0.00    +0.176 C 
ATOM     13  C   UNL     1      -4.371 -12.027  17.477  0.00  0.00    +0.167 C 
ENDROOT
BRANCH  11   2
ATOM      2  O   UNL     1      -6.551 -13.937  17.676  0.00  0.00    -0.387 OA
ATOM     34  H   UNL     1      -6.373 -14.116  18.615  0.00  0.00    +0.210 HD
ENDBRANCH  11   2
BRANCH  12   3
ATOM      3  O   UNL     1      -5.436 -12.800  15.433  0.00  0.00    -0.387 OA
ATOM     35  H   UNL     1      -5.349 -13.723  15.727  0.00  0.00    +0.210 HD
ENDBRANCH  12   3
BRANCH  10  14
ATOM     14  C   UNL     1      -6.912 -10.508  19.058  0.00  0.00    +0.130 C 
BRANCH  14  16
ATOM      4  O   UNL     1      -8.891 -11.320  20.089  0.00  0.00    -0.276 OA
ATOM      6  N   UNL     1      -9.167 -10.014  18.186  0.00  0.00    -0.298 N 
ATOM      7  N   UNL     1     -10.837  -8.548  16.331  0.00  0.00    -0.312 N 
ATOM      9  N   UNL     1     -12.445  -6.856  15.967  0.00  0.00    -0.240 NA
ATOM     16  C   UNL     1      -8.411 -10.655  19.168  0.00  0.00    +0.218 C 
ATOM     17  C   UNL     1      -8.593  -9.226  17.093  0.00  0.00    +0.126 C 
ATOM     18  C   UNL     1     -10.624 -10.105  18.227  0.00  0.00    +0.126 C 
ATOM     19  C   UNL     1      -9.543  -9.086  15.902  0.00  0.00    +0.125 C 
ATOM     20  C   UNL     1     -11.290  -8.838  17.694  0.00  0.00    +0.125 C 
ATOM     21  C   UNL     1     -11.635  -7.812  15.458  0.00  0.00    +0.121 A 
ATOM     23  C   UNL     1     -11.542  -8.113  14.109  0.00  0.00    +0.043 A 
ATOM     25  C   UNL     1     -12.332  -7.386  13.225  0.00  0.00    +0.005 A 
ATOM     26  C   UNL     1     -13.198  -6.172  15.078  0.00  0.00    +0.113 A 
ATOM     29  C   UNL     1     -13.178  -6.395  13.711  0.00  0.00    +0.020 A 
ENDBRANCH  14  16
ENDBRANCH  10  14
BRANCH  13  15
ATOM     15  C   UNL     1      -3.296 -11.047  17.046  0.00  0.00    +0.138 C 
BRANCH  15   8
ATOM      5  O   UNL     1      -1.506 -11.583  14.866  0.00  0.00    -0.270 OA
ATOM      8  N   UNL     1      -3.498 -10.684  15.632  0.00  0.00    -0.309 N 
ATOM     22  C   UNL     1      -2.568 -10.996  14.675  0.00  0.00    +0.244 C 
ATOM     36  H   UNL     1      -4.386 -10.257  15.394  0.00  0.00    +0.149 HD
BRANCH  22  24
ATOM     24  C   UNL     1      -2.908 -10.538  13.304  0.00  0.00    +0.037 A 
ATOM     27  C   UNL     1      -4.242 -10.351  12.941  0.00  0.00    +0.013 A 
ATOM     28  C   UNL     1      -1.894 -10.297  12.376  0.00  0.00    +0.013 A 
ATOM     30  C   UNL     1      -4.562  -9.922  11.653  0.00  0.00    +0.004 A 
ATOM     31  C   UNL     1      -2.213  -9.868  11.089  0.00  0.00    +0.004 A 
ATOM     32  C   UNL     1      -3.547  -9.681  10.727  0.00  0.00    -0.050 A 
ATOM     33  C   UNL     1      -3.889  -9.222   9.350  0.00  0.00    +0.044 C 
ENDBRANCH  22  24
ENDBRANCH  15   8
ENDBRANCH  13  15
TORSDOF 7
ENDMDL
MODEL 6
REMARK VINA RESULT:      -7.7     27.834     30.022
REMARK  Name = 26744684
REMARK  8 active torsions:
REMARK  status: ('A' for Active; 'I' for Inactive)
REMARK    1  A    between atoms: O_2  and  C_11
REMARK    2  A    between atoms: O_3  and  C_12
REMARK    3  A    between atoms: N_8  and  C_15
REMARK    4  A    between atoms: C_10  and  C_14
REMARK    5  A    between atoms: C_13  and  C_15
REMARK    6  A    between atoms: C_14  and  C_16
REMARK    7  A    between atoms: C_22  and  C_24
REMARK    8  A    between atoms: C_32  and  C_33
REMARK                            x       y       z     vdW  Elec       q    Type
REMARK                         _______ _______ _______ _____ _____    ______ ____
ROOT
ATOM      1  O   UNL     1      -5.003 -12.768  17.197  0.00  0.00    -0.366 OA
ATOM     10  C   UNL     1      -4.067 -11.715  17.520  0.00  0.00    +0.159 C 
ATOM     11  C   UNL     1      -4.467 -11.192  18.895  0.00  0.00    +0.175 C 
ATOM     12  C   UNL     1      -5.957 -11.466  18.915  0.00  0.00    +0.176 C 
ATOM     13  C   UNL     1      -6.030 -12.806  18.204  0.00  0.00    +0.167 C 
ENDROOT
BRANCH  11   2
ATOM      2  O   UNL     1      -3.804 -11.984  19.880  0.00  0.00    -0.387 OA
ATOM     34  H   UNL     1      -4.491 -12.412  20.419  0.00  0.00    +0.210 HD
ENDBRANCH  11   2
BRANCH  12   3
ATOM      3  O   UNL     1      -6.496 -11.527  20.219  0.00  0.00    -0.387 OA
ATOM     35  H   UNL     1      -6.444 -10.633  20.599  0.00  0.00    +0.210 HD
ENDBRANCH  12   3
BRANCH  10  14
ATOM     14  C   UNL     1      -4.160 -10.657  16.430  0.00  0.00    +0.130 C 
BRANCH  14  16
ATOM      4  O   UNL     1      -1.878 -11.001  15.872  0.00  0.00    -0.276 OA
ATOM      6  N   UNL     1      -3.360 -10.764  14.098  0.00  0.00    -0.298 N 
ATOM      7  N   UNL     1      -3.977 -10.867  11.272  0.00  0.00    -0.312 N 
ATOM      9  N   UNL     1      -4.027 -12.107   9.262  0.00  0.00    -0.240 NA
ATOM     16  C   UNL     1      -3.023 -10.826  15.451  0.00  0.00    +0.218 C 
ATOM     17  C   UNL     1      -4.722 -10.554  13.600  0.00  0.00    +0.126 C 
ATOM     18  C   UNL     1      -2.317 -10.923  13.088  0.00  0.00    +0.126 C 
ATOM     19  C   UNL     1      -4.753 -10.009  12.172  0.00  0.00    +0.125 C 
ATOM     20  C   UNL     1      -2.842 -11.607  11.828  0.00  0.00    +0.125 C 
ATOM     21  C   UNL     1      -4.287 -10.953   9.916  0.00  0.00    +0.121 A 
ATOM     23  C   UNL     1      -4.846  -9.832   9.323  0.00  0.00    +0.043 A 
ATOM     25  C   UNL     1      -5.159  -9.902   7.969  0.00  0.00    +0.005 A 
ATOM     26  C   UNL     1      -4.345 -12.137   7.948  0.00  0.00    +0.113 A 
ATOM     29  C   UNL     1      -4.908 -11.073   7.262  0.00  0.00    +0.020 A 
ENDBRANCH  14  16
ENDBRANCH  10  14
BRANCH  13  15
ATOM     15  C   UNL     1      -7.375 -13.069  17.553  0.00  0.00    +0.138 C 
BRANCH  15   8
ATOM      5  O   UNL     1      -7.778 -11.616  15.109  0.00  0.00    -0.270 OA
ATOM      8  N   UNL     1      -8.103 -11.796  17.395  0.00  0.00    -0.309 N 
ATOM     22  C   UNL     1      -8.230 -11.194  16.170  0.00  0.00    +0.244 C 
ATOM     36  H   UNL     1      -8.559 -11.427  18.222  0.00  0.00    +0.149 HD
BRANCH  22  24
ATOM     24  C   UNL     1      -8.967  -9.904  16.184  0.00  0.00    +0.037 A 
ATOM     27  C   UNL     1      -9.564  -9.429  15.016  0.00  0.00    +0.013 A 
ATOM     28  C   UNL     1      -9.062  -9.167  17.365  0.00  0.00    +0.013 A 
ATOM     30  C   UNL     1     -10.256  -8.218  15.029  0.00  0.00    +0.004 A 
ATOM     31  C   UNL     1      -9.753  -7.956  17.377  0.00  0.00    +0.004 A 
ATOM     32  C   UNL     1     -10.350  -7.482  16.209  0.00  0.00    -0.050 A 
ATOM     33  C   UNL     1     -11.089  -6.186  16.222  0.00  0.00    +0.044 C 
ENDBRANCH  22  24
ENDBRANCH  15   8
ENDBRANCH  13  15
TORSDOF 7
ENDMDL
MODEL 7
REMARK VINA RESULT:      -7.6      2.970      6.988
REMARK  Name = 26744684
REMARK  8 active torsions:
REMARK  status: ('A' for Active; 'I' for Inactive)
REMARK    1  A    between atoms: O_2  and  C_11
REMARK    2  A    between atoms: O_3  and  C_12
REMARK    3  A    between atoms: N_8  and  C_15
REMARK    4  A    between atoms: C_10  and  C_14
REMARK    5  A    between atoms: C_13  and  C_15
REMARK    6  A    between atoms: C_14  and  C_16
REMARK    7  A    between atoms: C_22  and  C_24
REMARK    8  A    between atoms: C_32  and  C_33
REMARK                            x       y       z     vdW  Elec       q    Type
REMARK                         _______ _______ _______ _____ _____    ______ ____
ROOT
ATOM      1  O   UNL     1      13.818   8.039  20.586  0.00  0.00    -0.366 OA
ATOM     10  C   UNL     1      12.589   8.735  20.893  0.00  0.00    +0.159 C 
ATOM     11  C   UNL     1      11.554   8.245  19.886  0.00  0.00    +0.175 C 
ATOM     12  C   UNL     1      12.419   7.889  18.694  0.00  0.00    +0.176 C 
ATOM     13  C   UNL     1      13.639   7.288  19.371  0.00  0.00    +0.167 C 
ENDROOT
BRANCH  11   2
ATOM      2  O   UNL     1      10.938   7.072  20.419  0.00  0.00    -0.387 OA
ATOM     34  H   UNL     1      10.698   7.264  21.342  0.00  0.00    +0.210 HD
ENDBRANCH  11   2
BRANCH  12   3
ATOM      3  O   UNL     1      11.802   6.978  17.809  0.00  0.00    -0.387 OA
ATOM     35  H   UNL     1      12.174   6.097  17.991  0.00  0.00    +0.210 HD
ENDBRANCH  12   3
BRANCH  10  14
ATOM     14  C   UNL     1      12.860  10.229  20.789  0.00  0.00    +0.130 C 
BRANCH  14  16
ATOM      4  O   UNL     1      13.481  10.722  23.027  0.00  0.00    -0.276 OA
ATOM      6  N   UNL     1      15.140  10.936  21.414  0.00  0.00    -0.298 N 
ATOM      7  N   UNL     1      17.901  11.347  20.649  0.00  0.00    -0.312 N 
ATOM      9  N   UNL     1      20.161  10.676  20.811  0.00  0.00    -0.240 NA
ATOM     16  C   UNL     1      13.847  10.648  21.852  0.00  0.00    +0.218 C 
ATOM     17  C   UNL     1      15.572  10.848  20.017  0.00  0.00    +0.126 C 
ATOM     18  C   UNL     1      16.154  11.344  22.383  0.00  0.00    +0.126 C 
ATOM     19  C   UNL     1      16.815  11.690  19.727  0.00  0.00    +0.125 C 
ATOM     20  C   UNL     1      17.548  10.863  21.986  0.00  0.00    +0.125 C 
ATOM     21  C   UNL     1      19.235  11.507  20.280  0.00  0.00    +0.121 A 
ATOM     23  C   UNL     1      19.526  12.521  19.381  0.00  0.00    +0.043 A 
ATOM     25  C   UNL     1      20.854  12.693  19.003  0.00  0.00    +0.005 A 
ATOM     26  C   UNL     1      21.440  10.875  20.420  0.00  0.00    +0.113 A 
ATOM     29  C   UNL     1      21.834  11.858  19.528  0.00  0.00    +0.020 A 
ENDBRANCH  14  16
ENDBRANCH  10  14
BRANCH  13  15
ATOM     15  C   UNL     1      14.898   7.374  18.528  0.00  0.00    +0.138 C 
BRANCH  15   8
ATOM      5  O   UNL     1      16.962   5.381  18.436  0.00  0.00    -0.270 OA
ATOM      8  N   UNL     1      16.082   7.293  19.402  0.00  0.00    -0.309 N 
ATOM     22  C   UNL     1      17.005   6.289  19.262  0.00  0.00    +0.244 C 
ATOM     36  H   UNL     1      16.214   8.051  20.062  0.00  0.00    +0.149 HD
BRANCH  22  24
ATOM     24  C   UNL     1      18.125   6.333  20.236  0.00  0.00    +0.037 A 
ATOM     27  C   UNL     1      19.197   5.449  20.107  0.00  0.00    +0.013 A 
ATOM     28  C   UNL     1      18.106   7.256  21.281  0.00  0.00    +0.013 A 
ATOM     30  C   UNL     1      20.249   5.489  21.022  0.00  0.00    +0.004 A 
ATOM     31  C   UNL     1      19.156   7.297  22.197  0.00  0.00    +0.004 A 
ATOM     32  C   UNL     1      20.228   6.413  22.067  0.00  0.00    -0.050 A 
ATOM     33  C   UNL     1      21.352   6.456  23.046  0.00  0.00    +0.044 C 
ENDBRANCH  22  24
ENDBRANCH  15   8
ENDBRANCH  13  15
TORSDOF 7
ENDMDL
MODEL 8
REMARK VINA RESULT:      -7.6     27.493     31.021
REMARK  Name = 26744684
REMARK  8 active torsions:
REMARK  status: ('A' for Active; 'I' for Inactive)
REMARK    1  A    between atoms: O_2  and  C_11
REMARK    2  A    between atoms: O_3  and  C_12
REMARK    3  A    between atoms: N_8  and  C_15
REMARK    4  A    between atoms: C_10  and  C_14
REMARK    5  A    between atoms: C_13  and  C_15
REMARK    6  A    between atoms: C_14  and  C_16
REMARK    7  A    between atoms: C_22  and  C_24
REMARK    8  A    between atoms: C_32  and  C_33
REMARK                            x       y       z     vdW  Elec       q    Type
REMARK                         _______ _______ _______ _____ _____    ______ ____
ROOT
ATOM      1  O   UNL     1      -3.822 -10.494  16.670  0.00  0.00    -0.366 OA
ATOM     10  C   UNL     1      -5.108 -11.104  16.922  0.00  0.00    +0.159 C 
ATOM     11  C   UNL     1      -4.969 -12.573  16.533  0.00  0.00    +0.175 C 
ATOM     12  C   UNL     1      -3.904 -12.515  15.458  0.00  0.00    +0.176 C 
ATOM     13  C   UNL     1      -2.972 -11.449  16.009  0.00  0.00    +0.167 C 
ENDROOT
BRANCH  11   2
ATOM      2  O   UNL     1      -4.487 -13.288  17.671  0.00  0.00    -0.387 OA
ATOM     34  H   UNL     1      -3.748 -13.844  17.372  0.00  0.00    +0.210 HD
ENDBRANCH  11   2
BRANCH  12   3
ATOM      3  O   UNL     1      -3.242 -13.747  15.261  0.00  0.00    -0.387 OA
ATOM     35  H   UNL     1      -2.290 -13.590  15.389  0.00  0.00    +0.210 HD
ENDBRANCH  12   3
BRANCH  10  14
ATOM     14  C   UNL     1      -6.147 -10.364  16.092  0.00  0.00    +0.130 C 
BRANCH  14  16
ATOM      4  O   UNL     1      -6.966  -9.685  18.215  0.00  0.00    -0.276 OA
ATOM      6  N   UNL     1      -8.312  -9.216  16.380  0.00  0.00    -0.298 N 
ATOM      7  N   UNL     1     -10.613  -7.936  15.179  0.00  0.00    -0.312 N 
ATOM      9  N   UNL     1     -11.826  -5.953  14.753  0.00  0.00    -0.240 NA
ATOM     16  C   UNL     1      -7.170  -9.726  17.000  0.00  0.00    +0.218 C 
ATOM     17  C   UNL     1      -8.553  -9.266  14.936  0.00  0.00    +0.126 C 
ATOM     18  C   UNL     1      -9.346  -8.578  17.190  0.00  0.00    +0.126 C 
ATOM     19  C   UNL     1     -10.034  -9.140  14.578  0.00  0.00    +0.125 C 
ATOM     20  C   UNL     1     -10.043  -7.446  16.436  0.00  0.00    +0.125 C 
ATOM     21  C   UNL     1     -11.699  -7.290  14.591  0.00  0.00    +0.121 A 
ATOM     23  C   UNL     1     -12.588  -8.073  13.872  0.00  0.00    +0.043 A 
ATOM     25  C   UNL     1     -13.678  -7.443  13.281  0.00  0.00    +0.005 A 
ATOM     26  C   UNL     1     -12.897  -5.377  14.164  0.00  0.00    +0.113 A 
ATOM     29  C   UNL     1     -13.842  -6.069  13.424  0.00  0.00    +0.020 A 
ENDBRANCH  14  16
ENDBRANCH  10  14
BRANCH  13  15
ATOM     15  C   UNL     1      -2.156 -10.751  14.937  0.00  0.00    +0.138 C 
BRANCH  15   8
ATOM      5  O   UNL     1      -1.720 -10.981  12.109  0.00  0.00    -0.270 OA
ATOM      8  N   UNL     1      -3.052 -10.276  13.867  0.00  0.00    -0.309 N 
ATOM     22  C   UNL     1      -2.735 -10.444  12.544  0.00  0.00    +0.244 C 
ATOM     36  H   UNL     1      -3.940  -9.884  14.158  0.00  0.00    +0.149 HD
BRANCH  22  24
ATOM     24  C   UNL     1      -3.728  -9.887  11.591  0.00  0.00    +0.037 A 
ATOM     27  C   UNL     1      -5.068  -9.776  11.964  0.00  0.00    +0.013 A 
ATOM     28  C   UNL     1      -3.322  -9.476  10.321  0.00  0.00    +0.013 A 
ATOM     30  C   UNL     1      -6.001  -9.253  11.069  0.00  0.00    +0.004 A 
ATOM     31  C   UNL     1      -4.255  -8.954   9.425  0.00  0.00    +0.004 A 
ATOM     32  C   UNL     1      -5.594  -8.842   9.800  0.00  0.00    -0.050 A 
ATOM     33  C   UNL     1      -6.592  -8.284   8.842  0.00  0.00    +0.044 C 
ENDBRANCH  22  24
ENDBRANCH  15   8
ENDBRANCH  13  15
TORSDOF 7
ENDMDL
MODEL 9
REMARK VINA RESULT:      -7.6     15.235     17.974
REMARK  Name = 26744684
REMARK  8 active torsions:
REMARK  status: ('A' for Active; 'I' for Inactive)
REMARK    1  A    between atoms: O_2  and  C_11
REMARK    2  A    between atoms: O_3  and  C_12
REMARK    3  A    between atoms: N_8  and  C_15
REMARK    4  A    between atoms: C_10  and  C_14
REMARK    5  A    between atoms: C_13  and  C_15
REMARK    6  A    between atoms: C_14  and  C_16
REMARK    7  A    between atoms: C_22  and  C_24
REMARK    8  A    between atoms: C_32  and  C_33
REMARK                            x       y       z     vdW  Elec       q    Type
REMARK                         _______ _______ _______ _____ _____    ______ ____
ROOT
ATOM      1  O   UNL     1      11.354   6.275   6.225  0.00  0.00    -0.366 OA
ATOM     10  C   UNL     1      11.464   7.716   6.286  0.00  0.00    +0.159 C 
ATOM     11  C   UNL     1      10.052   8.245   6.514  0.00  0.00    +0.175 C 
ATOM     12  C   UNL     1       9.204   7.174   5.860  0.00  0.00    +0.176 C 
ATOM     13  C   UNL     1       9.961   5.912   6.239  0.00  0.00    +0.167 C 
ENDROOT
BRANCH  11   2
ATOM      2  O   UNL     1       9.813   8.276   7.921  0.00  0.00    -0.387 OA
ATOM     34  H   UNL     1       9.021   8.820   8.070  0.00  0.00    +0.210 HD
ENDBRANCH  11   2
BRANCH  12   3
ATOM      3  O   UNL     1       7.872   7.153   6.328  0.00  0.00    -0.387 OA
ATOM     35  H   UNL     1       7.344   7.710   5.730  0.00  0.00    +0.210 HD
ENDBRANCH  12   3
BRANCH  10  14
ATOM     14  C   UNL     1      12.075   8.193   4.977  0.00  0.00    +0.130 C 
BRANCH  14  16
ATOM      4  O   UNL     1      12.530  10.474   5.450  0.00  0.00    -0.276 OA
ATOM      6  N   UNL     1      14.368   9.075   5.205  0.00  0.00    -0.298 N 
ATOM      7  N   UNL     1      17.211   8.561   5.380  0.00  0.00    -0.312 N 
ATOM      9  N   UNL     1      19.178   8.526   6.687  0.00  0.00    -0.240 NA
ATOM     16  C   UNL     1      13.002   9.356   5.235  0.00  0.00    +0.218 C 
ATOM     17  C   UNL     1      14.926   7.745   4.948  0.00  0.00    +0.126 C 
ATOM     18  C   UNL     1      15.329  10.147   5.450  0.00  0.00    +0.126 C 
ATOM     19  C   UNL     1      16.372   7.795   4.454  0.00  0.00    +0.125 C 
ATOM     20  C   UNL     1      16.585   9.636   6.154  0.00  0.00    +0.125 C 
ATOM     21  C   UNL     1      18.574   8.300   5.499  0.00  0.00    +0.121 A 
ATOM     23  C   UNL     1      19.228   7.820   4.375  0.00  0.00    +0.043 A 
ATOM     25  C   UNL     1      20.589   7.555   4.478  0.00  0.00    +0.005 A 
ATOM     26  C   UNL     1      20.502   8.257   6.749  0.00  0.00    +0.113 A 
ATOM     29  C   UNL     1      21.245   7.775   5.684  0.00  0.00    +0.020 A 
ENDBRANCH  14  16
ENDBRANCH  10  14
BRANCH  13  15
ATOM     15  C   UNL     1       9.724   4.758   5.282  0.00  0.00    +0.138 C 
BRANCH  15   8
ATOM      5  O   UNL     1      10.086   5.846   2.650  0.00  0.00    -0.270 OA
ATOM      8  N   UNL     1      10.904   4.589   4.414  0.00  0.00    -0.309 N 
ATOM     22  C   UNL     1      10.962   5.160   3.170  0.00  0.00    +0.244 C 
ATOM     36  H   UNL     1      11.692   4.089   4.810  0.00  0.00    +0.149 HD
BRANCH  22  24
ATOM     24  C   UNL     1      12.205   4.873   2.410  0.00  0.00    +0.037 A 
ATOM     27  C   UNL     1      12.441   3.589   1.917  0.00  0.00    +0.013 A 
ATOM     28  C   UNL     1      13.139   5.886   2.190  0.00  0.00    +0.013 A 
ATOM     30  C   UNL     1      13.609   3.318   1.205  0.00  0.00    +0.004 A 
ATOM     31  C   UNL     1      14.307   5.615   1.479  0.00  0.00    +0.004 A 
ATOM     32  C   UNL     1      14.542   4.332   0.986  0.00  0.00    -0.050 A 
ATOM     33  C   UNL     1      15.791   4.042   0.224  0.00  0.00    +0.044 C 
ENDBRANCH  22  24
ENDBRANCH  15   8
ENDBRANCH  13  15
TORSDOF 7
ENDMDL
MODEL 10
REMARK VINA RESULT:      -7.5      3.459      8.544
REMARK  Name = 26744684
REMARK  8 active torsions:
REMARK  status: ('A' for Active; 'I' for Inactive)
REMARK    1  A    between atoms: O_2  and  C_11
REMARK    2  A    between atoms: O_3  and  C_12
REMARK    3  A    between atoms: N_8  and  C_15
REMARK    4  A    between atoms: C_10  and  C_14
REMARK    5  A    between atoms: C_13  and  C_15
REMARK    6  A    between atoms: C_14  and  C_16
REMARK    7  A    between atoms: C_22  and  C_24
REMARK    8  A    between atoms: C_32  and  C_33
REMARK                            x       y       z     vdW  Elec       q    Type
REMARK                         _______ _______ _______ _____ _____    ______ ____
ROOT
ATOM      1  O   UNL     1      14.049   7.970  20.681  0.00  0.00    -0.366 OA
ATOM     10  C   UNL     1      12.837   8.700  20.981  0.00  0.00    +0.159 C 
ATOM     11  C   UNL     1      11.778   8.191  20.009  0.00  0.00    +0.175 C 
ATOM     12  C   UNL     1      12.616   7.775  18.818  0.00  0.00    +0.176 C 
ATOM     13  C   UNL     1      13.837   7.178  19.498  0.00  0.00    +0.167 C 
ENDROOT
BRANCH  11   2
ATOM      2  O   UNL     1      11.150   7.051  20.596  0.00  0.00    -0.387 OA
ATOM     34  H   UNL     1      11.744   6.718  21.291  0.00  0.00    +0.210 HD
ENDBRANCH  11   2
BRANCH  12   3
ATOM      3  O   UNL     1      11.969   6.842  17.978  0.00  0.00    -0.387 OA
ATOM     35  H   UNL     1      12.328   5.963  18.187  0.00  0.00    +0.210 HD
ENDBRANCH  12   3
BRANCH  10  14
ATOM     14  C   UNL     1      13.133  10.184  20.816  0.00  0.00    +0.130 C 
BRANCH  14  16
ATOM      4  O   UNL     1      11.188  11.214  21.706  0.00  0.00    -0.276 OA
ATOM      6  N   UNL     1      13.134  11.401  22.962  0.00  0.00    -0.298 N 
ATOM      7  N   UNL     1      14.532  12.144  25.385  0.00  0.00    -0.312 N 
ATOM      9  N   UNL     1      14.758  11.939  27.728  0.00  0.00    -0.240 NA
ATOM     16  C   UNL     1      12.388  10.976  21.862  0.00  0.00    +0.218 C 
ATOM     17  C   UNL     1      14.559  11.118  23.145  0.00  0.00    +0.126 C 
ATOM     18  C   UNL     1      12.483  12.169  24.020  0.00  0.00    +0.126 C 
ATOM     19  C   UNL     1      15.240  12.096  24.103  0.00  0.00    +0.125 C 
ATOM     20  C   UNL     1      13.091  11.880  25.391  0.00  0.00    +0.125 C 
ATOM     21  C   UNL     1      15.201  12.467  26.564  0.00  0.00    +0.121 A 
ATOM     23  C   UNL     1      16.289  13.318  26.462  0.00  0.00    +0.043 A 
ATOM     25  C   UNL     1      16.967  13.650  27.631  0.00  0.00    +0.005 A 
ATOM     26  C   UNL     1      15.442  12.285  28.842  0.00  0.00    +0.113 A 
ATOM     29  C   UNL     1      16.541  13.127  28.847  0.00  0.00    +0.020 A 
ENDBRANCH  14  16
ENDBRANCH  10  14
BRANCH  13  15
ATOM     15  C   UNL     1      15.083   7.209  18.632  0.00  0.00    +0.138 C 
BRANCH  15   8
ATOM      5  O   UNL     1      17.179   5.270  18.337  0.00  0.00    -0.270 OA
ATOM      8  N   UNL     1      16.278   7.068  19.484  0.00  0.00    -0.309 N 
ATOM     22  C   UNL     1      17.215   6.098  19.243  0.00  0.00    +0.244 C 
ATOM     36  H   UNL     1      16.404   7.764  20.210  0.00  0.00    +0.149 HD
BRANCH  22  24
ATOM     24  C   UNL     1      18.345   6.071  20.207  0.00  0.00    +0.037 A 
ATOM     27  C   UNL     1      19.438   5.234  19.978  0.00  0.00    +0.013 A 
ATOM     28  C   UNL     1      18.314   6.881  21.343  0.00  0.00    +0.013 A 
ATOM     30  C   UNL     1      20.498   5.207  20.884  0.00  0.00    +0.004 A 
ATOM     31  C   UNL     1      19.373   6.854  22.248  0.00  0.00    +0.004 A 
ATOM     32  C   UNL     1      20.466   6.017  22.019  0.00  0.00    -0.050 A 
ATOM     33  C   UNL     1      21.600   5.989  22.987  0.00  0.00    +0.044 C 
ENDBRANCH  22  24
ENDBRANCH  15   8
ENDBRANCH  13  15
TORSDOF 7
ENDMDL
