REMARK  Name = 45783709
REMARK  7 active torsions:
REMARK  status: ('A' for Active; 'I' for Inactive)
REMARK    1  A    between atoms: O_2  and  C_20
REMARK    2  A    between atoms: O_2  and  C_21
REMARK    3  A    between atoms: N_3  and  C_11
REMARK    4  A    between atoms: C_7  and  C_12
REMARK    5  A    between atoms: C_11  and  C_13
REMARK    6  A    between atoms: C_11  and  C_14
REMARK    7  A    between atoms: C_15  and  C_16
REMARK                            x       y       z     vdW  Elec       q    Type
REMARK                         _______ _______ _______ _____ _____    ______ ____
ROOT
ATOM      1  O   UNL     1       1.185   1.953  -0.846  0.00  0.00    -0.336 OA
ATOM      4  N   UNL     1       0.574  -0.167  -0.459  0.00  0.00    -0.190 NA
ATOM      5  N   UNL     1      -0.204   1.975  -0.665  0.00  0.00    -0.056 NA
ATOM     12  C   UNL     1       1.562   0.654  -0.709  0.00  0.00    +0.245 A 
ATOM     15  C   UNL     1      -0.489   0.688  -0.442  0.00  0.00    +0.204 A 
ENDROOT
BRANCH  15  16
ATOM      6  N   UNL     1      -4.176   0.734   0.041  0.00  0.00    -0.221 NA
ATOM     16  C   UNL     1      -1.825   0.225  -0.199  0.00  0.00    +0.041 A 
ATOM     17  C   UNL     1      -2.085  -1.121   0.029  0.00  0.00    +0.018 A 
ATOM     18  C   UNL     1      -2.895   1.105  -0.182  0.00  0.00    +0.126 A 
ATOM     19  C   UNL     1      -3.390  -1.542   0.263  0.00  0.00    +0.068 A 
ATOM     20  C   UNL     1      -4.391  -0.583   0.259  0.00  0.00    +0.214 A 
BRANCH  20   2
ATOM      2  O   UNL     1      -5.685  -0.972   0.486  0.00  0.00    -0.480 OA
ATOM     21  C   UNL     1      -6.673   0.052   0.471  0.00  0.00    +0.279 C 
ENDBRANCH  20   2
ENDBRANCH  15  16
BRANCH  12   7
ATOM      3  N   UNL     1       3.706  -0.323   0.264  0.00  0.00    -0.289 NA
ATOM      7  C   UNL     1       3.048   0.359  -0.863  0.00  0.00    +0.146 C 
ATOM      8  C   UNL     1       3.393  -0.578  -2.029  0.00  0.00    +0.030 C 
ATOM      9  C   UNL     1       3.499  -1.756   0.096  0.00  0.00    +0.085 C 
ATOM     10  C   UNL     1       3.605  -1.958  -1.408  0.00  0.00    +0.017 C 
BRANCH   3  11
ATOM     11  C   UNL     1       3.388   0.161   1.595  0.00  0.00    +0.051 C 
ATOM     13  C   UNL     1       3.611   1.669   1.676  0.00  0.00    +0.024 C 
ATOM     14  C   UNL     1       4.242  -0.575   2.621  0.00  0.00    +0.024 C 
ENDBRANCH   3  11
ENDBRANCH  12   7
TORSDOF 4
