MODEL 1
REMARK VINA RESULT:      -9.1      0.000      0.000
REMARK  Name = 51136810
REMARK  4 active torsions:
REMARK  status: ('A' for Active; 'I' for Inactive)
REMARK    1  A    between atoms: N_3  and  C_9
REMARK    2  A    between atoms: C_10  and  C_19
REMARK    3  A    between atoms: C_20  and  C_23
REMARK    4  A    between atoms: C_29  and  C_31
REMARK                            x       y       z     vdW  Elec       q    Type
REMARK                         _______ _______ _______ _____ _____    ______ ____
ROOT
ATOM      1  O   UNL     1      15.938   5.980  18.412  0.00  0.00    -0.336 OA
ATOM      4  N   UNL     1      16.234   7.608  19.921  0.00  0.00    -0.190 NA
ATOM      5  N   UNL     1      17.196   5.756  18.985  0.00  0.00    -0.056 NA
ATOM     19  C   UNL     1      15.440   7.090  19.019  0.00  0.00    +0.245 A 
ATOM     20  C   UNL     1      17.298   6.757  19.866  0.00  0.00    +0.202 A 
ENDROOT
BRANCH  20  23
ATOM      2  O   UNL     1      24.735   1.361  20.991  0.00  0.00    -0.276 OA
ATOM      6  N   UNL     1      21.678   5.375  21.332  0.00  0.00    -0.312 N 
ATOM      7  N   UNL     1      23.881   3.521  21.037  0.00  0.00    -0.299 N 
ATOM      8  N   UNL     1      20.700   7.281  22.327  0.00  0.00    -0.240 NA
ATOM     21  C   UNL     1      23.052   5.802  21.608  0.00  0.00    +0.125 C 
ATOM     22  C   UNL     1      21.447   3.972  20.981  0.00  0.00    +0.125 C 
ATOM     23  C   UNL     1      18.452   6.934  20.702  0.00  0.00    +0.027 A 
ATOM     24  C   UNL     1      24.052   4.959  20.817  0.00  0.00    +0.126 C 
ATOM     25  C   UNL     1      22.572   3.088  21.517  0.00  0.00    +0.126 C 
ATOM     26  C   UNL     1      20.614   6.267  21.436  0.00  0.00    +0.122 A 
ATOM     27  C   UNL     1      19.524   6.052  20.608  0.00  0.00    +0.055 A 
ATOM     28  C   UNL     1      18.502   7.988  21.607  0.00  0.00    +0.031 A 
ATOM     29  C   UNL     1      24.877   2.571  20.806  0.00  0.00    +0.213 C 
ATOM     30  C   UNL     1      19.639   8.116  22.389  0.00  0.00    +0.113 A 
ATOM     31  C   UNL     1      26.198   3.100  20.304  0.00  0.00    +0.109 C 
ENDBRANCH  20  23
BRANCH  19  10
ATOM      3  N   UNL     1      13.536   8.645  19.400  0.00  0.00    -0.288 NA
ATOM     10  C   UNL     1      14.068   7.547  18.569  0.00  0.00    +0.146 C 
ATOM     13  C   UNL     1      12.659   9.432  18.532  0.00  0.00    +0.085 C 
ATOM     14  C   UNL     1      14.070   8.107  17.135  0.00  0.00    +0.030 C 
ATOM     15  C   UNL     1      13.465   9.500  17.251  0.00  0.00    +0.017 C 
BRANCH   3   9
ATOM      9  C   UNL     1      12.845   8.176  20.599  0.00  0.00    +0.057 C 
ATOM     11  C   UNL     1      12.195   6.815  20.329  0.00  0.00    +0.019 C 
ATOM     12  C   UNL     1      11.800   9.210  21.037  0.00  0.00    +0.019 C 
ATOM     16  C   UNL     1      11.399   6.328  21.538  0.00  0.00    +0.002 C 
ATOM     17  C   UNL     1      11.003   8.720  22.245  0.00  0.00    +0.002 C 
ATOM     18  C   UNL     1      10.365   7.359  21.983  0.00  0.00    +0.000 C 
ENDBRANCH   3   9
ENDBRANCH  19  10
TORSDOF 3
ENDMDL
MODEL 2
REMARK VINA RESULT:      -7.9      2.462     10.512
REMARK  Name = 51136810
REMARK  4 active torsions:
REMARK  status: ('A' for Active; 'I' for Inactive)
REMARK    1  A    between atoms: N_3  and  C_9
REMARK    2  A    between atoms: C_10  and  C_19
REMARK    3  A    between atoms: C_20  and  C_23
REMARK    4  A    between atoms: C_29  and  C_31
REMARK                            x       y       z     vdW  Elec       q    Type
REMARK                         _______ _______ _______ _____ _____    ______ ____
ROOT
ATOM      1  O   UNL     1      20.881   6.052  22.998  0.00  0.00    -0.336 OA
ATOM      4  N   UNL     1      20.777   5.903  20.766  0.00  0.00    -0.190 NA
ATOM      5  N   UNL     1      19.537   6.246  22.659  0.00  0.00    -0.056 NA
ATOM     19  C   UNL     1      21.543   5.858  21.827  0.00  0.00    +0.245 A 
ATOM     20  C   UNL     1      19.555   6.144  21.325  0.00  0.00    +0.202 A 
ENDROOT
BRANCH  20  23
ATOM      2  O   UNL     1      11.704  10.747  23.015  0.00  0.00    -0.276 OA
ATOM      6  N   UNL     1      15.223   8.102  20.526  0.00  0.00    -0.312 N 
ATOM      7  N   UNL     1      13.179   9.953  21.405  0.00  0.00    -0.299 N 
ATOM      8  N   UNL     1      16.068   6.545  18.963  0.00  0.00    -0.240 NA
ATOM     21  C   UNL     1      14.361   8.777  19.552  0.00  0.00    +0.125 C 
ATOM     22  C   UNL     1      14.969   8.331  21.950  0.00  0.00    +0.125 C 
ATOM     23  C   UNL     1      18.371   6.278  20.524  0.00  0.00    +0.027 A 
ATOM     24  C   UNL     1      13.847  10.103  20.110  0.00  0.00    +0.126 C 
ATOM     25  C   UNL     1      13.521   8.762  22.179  0.00  0.00    +0.126 C 
ATOM     26  C   UNL     1      16.233   7.236  20.114  0.00  0.00    +0.122 A 
ATOM     27  C   UNL     1      17.354   7.141  20.922  0.00  0.00    +0.055 A 
ATOM     28  C   UNL     1      18.238   5.550  19.348  0.00  0.00    +0.031 A 
ATOM     29  C   UNL     1      12.267  10.872  21.925  0.00  0.00    +0.213 C 
ATOM     30  C   UNL     1      17.077   5.718  18.610  0.00  0.00    +0.113 A 
ATOM     31  C   UNL     1      11.973  12.078  21.068  0.00  0.00    +0.109 C 
ENDBRANCH  20  23
BRANCH  19  10
ATOM      3  N   UNL     1      23.510   4.599  20.971  0.00  0.00    -0.288 NA
ATOM     10  C   UNL     1      23.035   5.621  21.925  0.00  0.00    +0.146 C 
ATOM     13  C   UNL     1      24.895   4.946  20.650  0.00  0.00    +0.085 C 
ATOM     14  C   UNL     1      23.859   6.878  21.593  0.00  0.00    +0.030 C 
ATOM     15  C   UNL     1      24.811   6.450  20.485  0.00  0.00    +0.017 C 
BRANCH   3   9
ATOM      9  C   UNL     1      23.390   3.235  21.482  0.00  0.00    +0.057 C 
ATOM     11  C   UNL     1      23.691   3.213  22.984  0.00  0.00    +0.019 C 
ATOM     12  C   UNL     1      24.338   2.305  20.715  0.00  0.00    +0.019 C 
ATOM     16  C   UNL     1      23.650   1.790  23.539  0.00  0.00    +0.002 C 
ATOM     17  C   UNL     1      24.296   0.883  21.273  0.00  0.00    +0.002 C 
ATOM     18  C   UNL     1      24.584   0.859  22.771  0.00  0.00    +0.000 C 
ENDBRANCH   3   9
ENDBRANCH  19  10
TORSDOF 3
ENDMDL
MODEL 3
REMARK VINA RESULT:      -7.9      2.761      4.624
REMARK  Name = 51136810
REMARK  4 active torsions:
REMARK  status: ('A' for Active; 'I' for Inactive)
REMARK    1  A    between atoms: N_3  and  C_9
REMARK    2  A    between atoms: C_10  and  C_19
REMARK    3  A    between atoms: C_20  and  C_23
REMARK    4  A    between atoms: C_29  and  C_31
REMARK                            x       y       z     vdW  Elec       q    Type
REMARK                         _______ _______ _______ _____ _____    ______ ____
ROOT
ATOM      1  O   UNL     1      15.605   6.121  18.362  0.00  0.00    -0.336 OA
ATOM      4  N   UNL     1      16.386   7.522  19.925  0.00  0.00    -0.190 NA
ATOM      5  N   UNL     1      16.828   5.587  18.786  0.00  0.00    -0.056 NA
ATOM     19  C   UNL     1      15.420   7.259  19.081  0.00  0.00    +0.245 A 
ATOM     20  C   UNL     1      17.227   6.469  19.708  0.00  0.00    +0.202 A 
ENDROOT
BRANCH  20  23
ATOM      2  O   UNL     1      20.941  11.821  26.285  0.00  0.00    -0.276 OA
ATOM      6  N   UNL     1      20.242   7.877  23.196  0.00  0.00    -0.312 N 
ATOM      7  N   UNL     1      20.753   9.679  25.404  0.00  0.00    -0.299 N 
ATOM      8  N   UNL     1      20.861   6.050  21.834  0.00  0.00    -0.240 NA
ATOM     21  C   UNL     1      21.062   7.449  24.332  0.00  0.00    +0.125 C 
ATOM     22  C   UNL     1      19.756   9.260  23.176  0.00  0.00    +0.125 C 
ATOM     23  C   UNL     1      18.461   6.328  20.428  0.00  0.00    +0.027 A 
ATOM     24  C   UNL     1      20.692   8.228  25.594  0.00  0.00    +0.126 C 
ATOM     25  C   UNL     1      20.650  10.159  24.028  0.00  0.00    +0.126 C 
ATOM     26  C   UNL     1      19.959   7.008  22.146  0.00  0.00    +0.122 A 
ATOM     27  C   UNL     1      18.756   7.187  21.482  0.00  0.00    +0.055 A 
ATOM     28  C   UNL     1      19.363   5.330  20.077  0.00  0.00    +0.031 A 
ATOM     29  C   UNL     1      20.889  10.599  26.444  0.00  0.00    +0.213 C 
ATOM     30  C   UNL     1      20.539   5.234  20.805  0.00  0.00    +0.113 A 
ATOM     31  C   UNL     1      20.981  10.023  27.835  0.00  0.00    +0.109 C 
ENDBRANCH  20  23
BRANCH  19  10
ATOM      3  N   UNL     1      13.771   8.922  19.923  0.00  0.00    -0.288 NA
ATOM     10  C   UNL     1      14.149   8.034  18.805  0.00  0.00    +0.146 C 
ATOM     13  C   UNL     1      13.051  10.049  19.330  0.00  0.00    +0.085 C 
ATOM     14  C   UNL     1      14.276   8.969  17.589  0.00  0.00    +0.030 C 
ATOM     15  C   UNL     1      13.892  10.349  18.106  0.00  0.00    +0.017 C 
BRANCH   3   9
ATOM      9  C   UNL     1      12.984   8.247  20.953  0.00  0.00    +0.057 C 
ATOM     11  C   UNL     1      12.312   7.003  20.364  0.00  0.00    +0.019 C 
ATOM     12  C   UNL     1      11.945   9.214  21.532  0.00  0.00    +0.019 C 
ATOM     16  C   UNL     1      11.418   6.313  21.393  0.00  0.00    +0.002 C 
ATOM     17  C   UNL     1      11.051   8.522  22.560  0.00  0.00    +0.002 C 
ATOM     18  C   UNL     1      10.390   7.276  21.980  0.00  0.00    +0.000 C 
ENDBRANCH   3   9
ENDBRANCH  19  10
TORSDOF 3
ENDMDL
MODEL 4
REMARK VINA RESULT:      -7.8     27.474     31.064
REMARK  Name = 51136810
REMARK  4 active torsions:
REMARK  status: ('A' for Active; 'I' for Inactive)
REMARK    1  A    between atoms: N_3  and  C_9
REMARK    2  A    between atoms: C_10  and  C_19
REMARK    3  A    between atoms: C_20  and  C_23
REMARK    4  A    between atoms: C_29  and  C_31
REMARK                            x       y       z     vdW  Elec       q    Type
REMARK                         _______ _______ _______ _____ _____    ______ ____
ROOT
ATOM      1  O   UNL     1      -2.512 -10.760  14.748  0.00  0.00    -0.336 OA
ATOM      4  N   UNL     1      -4.739 -10.662  14.534  0.00  0.00    -0.190 NA
ATOM      5  N   UNL     1      -3.023 -10.668  16.048  0.00  0.00    -0.056 NA
ATOM     19  C   UNL     1      -3.588 -10.749  13.917  0.00  0.00    +0.245 A 
ATOM     20  C   UNL     1      -4.343 -10.614  15.839  0.00  0.00    +0.202 A 
ENDROOT
BRANCH  20  23
ATOM      2  O   UNL     1     -12.834  -6.929  15.964  0.00  0.00    -0.276 OA
ATOM      6  N   UNL     1      -8.733  -9.474  17.474  0.00  0.00    -0.312 N 
ATOM      7  N   UNL     1     -11.395  -8.517  16.862  0.00  0.00    -0.299 N 
ATOM      8  N   UNL     1      -7.138 -10.313  19.001  0.00  0.00    -0.240 NA
ATOM     21  C   UNL     1      -9.884  -9.921  18.262  0.00  0.00    +0.125 C 
ATOM     22  C   UNL     1      -8.958  -8.477  16.425  0.00  0.00    +0.125 C 
ATOM     23  C   UNL     1      -5.291 -10.511  16.912  0.00  0.00    +0.027 A 
ATOM     24  C   UNL     1     -11.169  -9.844  17.438  0.00  0.00    +0.126 C 
ATOM     25  C   UNL     1     -10.219  -7.664  16.714  0.00  0.00    +0.126 C 
ATOM     26  C   UNL     1      -7.453  -9.955  17.735  0.00  0.00    +0.122 A 
ATOM     27  C   UNL     1      -6.575 -10.034  16.666  0.00  0.00    +0.055 A 
ATOM     28  C   UNL     1      -4.930 -10.888  18.201  0.00  0.00    +0.031 A 
ATOM     29  C   UNL     1     -12.642  -8.046  16.449  0.00  0.00    +0.213 C 
ATOM     30  C   UNL     1      -5.882 -10.771  19.201  0.00  0.00    +0.113 A 
ATOM     31  C   UNL     1     -13.805  -8.991  16.629  0.00  0.00    +0.109 C 
ENDBRANCH  20  23
BRANCH  19  10
ATOM      3  N   UNL     1      -3.962  -9.775  11.658  0.00  0.00    -0.288 NA
ATOM     10  C   UNL     1      -3.297 -10.842  12.434  0.00  0.00    +0.146 C 
ATOM     13  C   UNL     1      -3.115  -9.523  10.492  0.00  0.00    +0.085 C 
ATOM     14  C   UNL     1      -1.800 -10.683  12.112  0.00  0.00    +0.030 C 
ATOM     15  C   UNL     1      -1.728  -9.546  11.102  0.00  0.00    +0.017 C 
BRANCH   3   9
ATOM      9  C   UNL     1      -5.333 -10.109  11.279  0.00  0.00    +0.057 C 
ATOM     11  C   UNL     1      -5.397 -10.429   9.782  0.00  0.00    +0.019 C 
ATOM     12  C   UNL     1      -6.270  -8.950  11.637  0.00  0.00    +0.019 C 
ATOM     16  C   UNL     1      -6.830 -10.708   9.333  0.00  0.00    +0.002 C 
ATOM     17  C   UNL     1      -7.702  -9.231  11.185  0.00  0.00    +0.002 C 
ATOM     18  C   UNL     1      -7.768  -9.561   9.698  0.00  0.00    +0.000 C 
ENDBRANCH   3   9
ENDBRANCH  19  10
TORSDOF 3
ENDMDL
MODEL 5
REMARK VINA RESULT:      -7.6      2.331     10.317
REMARK  Name = 51136810
REMARK  4 active torsions:
REMARK  status: ('A' for Active; 'I' for Inactive)
REMARK    1  A    between atoms: N_3  and  C_9
REMARK    2  A    between atoms: C_10  and  C_19
REMARK    3  A    between atoms: C_20  and  C_23
REMARK    4  A    between atoms: C_29  and  C_31
REMARK                            x       y       z     vdW  Elec       q    Type
REMARK                         _______ _______ _______ _____ _____    ______ ____
ROOT
ATOM      1  O   UNL     1      21.339   5.567  23.128  0.00  0.00    -0.336 OA
ATOM      4  N   UNL     1      21.678   7.356  21.825  0.00  0.00    -0.190 NA
ATOM      5  N   UNL     1      20.087   6.172  22.964  0.00  0.00    -0.056 NA
ATOM     19  C   UNL     1      22.220   6.327  22.426  0.00  0.00    +0.245 A 
ATOM     20  C   UNL     1      20.369   7.220  22.183  0.00  0.00    +0.202 A 
ENDROOT
BRANCH  20  23
ATOM      2  O   UNL     1      11.383   5.893  20.395  0.00  0.00    -0.276 OA
ATOM      6  N   UNL     1      15.775   8.278  21.174  0.00  0.00    -0.312 N 
ATOM      7  N   UNL     1      13.023   7.384  21.094  0.00  0.00    -0.299 N 
ATOM      8  N   UNL     1      17.411   9.959  20.901  0.00  0.00    -0.240 NA
ATOM     21  C   UNL     1      14.678   9.226  21.383  0.00  0.00    +0.125 C 
ATOM     22  C   UNL     1      15.437   6.890  20.850  0.00  0.00    +0.125 C 
ATOM     23  C   UNL     1      19.366   8.149  21.746  0.00  0.00    +0.027 A 
ATOM     24  C   UNL     1      13.440   8.514  21.927  0.00  0.00    +0.126 C 
ATOM     25  C   UNL     1      14.045   6.804  20.226  0.00  0.00    +0.126 C 
ATOM     26  C   UNL     1      17.104   8.689  21.246  0.00  0.00    +0.122 A 
ATOM     27  C   UNL     1      18.034   7.754  21.672  0.00  0.00    +0.055 A 
ATOM     28  C   UNL     1      19.721   9.447  21.399  0.00  0.00    +0.031 A 
ATOM     29  C   UNL     1      11.737   6.844  21.096  0.00  0.00    +0.213 C 
ATOM     30  C   UNL     1      18.715  10.306  20.986  0.00  0.00    +0.113 A 
ATOM     31  C   UNL     1      10.742   7.495  22.026  0.00  0.00    +0.109 C 
ENDBRANCH  20  23
BRANCH  19  10
ATOM      3  N   UNL     1      23.984   4.951  21.338  0.00  0.00    -0.288 NA
ATOM     10  C   UNL     1      23.665   5.876  22.444  0.00  0.00    +0.146 C 
ATOM     13  C   UNL     1      25.400   5.148  21.029  0.00  0.00    +0.085 C 
ATOM     14  C   UNL     1      24.654   7.044  22.273  0.00  0.00    +0.030 C 
ATOM     15  C   UNL     1      25.526   6.657  21.087  0.00  0.00    +0.017 C 
BRANCH   3   9
ATOM      9  C   UNL     1      23.679   3.556  21.649  0.00  0.00    +0.057 C 
ATOM     11  C   UNL     1      24.032   3.258  23.110  0.00  0.00    +0.019 C 
ATOM     12  C   UNL     1      24.443   2.630  20.696  0.00  0.00    +0.019 C 
ATOM     16  C   UNL     1      23.798   1.787  23.450  0.00  0.00    +0.002 C 
ATOM     17  C   UNL     1      24.209   1.160  21.039  0.00  0.00    +0.002 C 
ATOM     18  C   UNL     1      24.548   0.862  22.496  0.00  0.00    +0.000 C 
ENDBRANCH   3   9
ENDBRANCH  19  10
TORSDOF 3
ENDMDL
MODEL 6
REMARK VINA RESULT:      -7.6     26.963     30.503
REMARK  Name = 51136810
REMARK  4 active torsions:
REMARK  status: ('A' for Active; 'I' for Inactive)
REMARK    1  A    between atoms: N_3  and  C_9
REMARK    2  A    between atoms: C_10  and  C_19
REMARK    3  A    between atoms: C_20  and  C_23
REMARK    4  A    between atoms: C_29  and  C_31
REMARK                            x       y       z     vdW  Elec       q    Type
REMARK                         _______ _______ _______ _____ _____    ______ ____
ROOT
ATOM      1  O   UNL     1      -2.843  -9.911  10.350  0.00  0.00    -0.336 OA
ATOM      4  N   UNL     1      -4.405 -10.203  11.928  0.00  0.00    -0.190 NA
ATOM      5  N   UNL     1      -2.150 -10.093  11.553  0.00  0.00    -0.056 NA
ATOM     19  C   UNL     1      -4.164  -9.989  10.660  0.00  0.00    +0.245 A 
ATOM     20  C   UNL     1      -3.140 -10.260  12.437  0.00  0.00    +0.202 A 
ENDROOT
BRANCH  20  23
ATOM      2  O   UNL     1      -9.091 -10.854  19.503  0.00  0.00    -0.276 OA
ATOM      6  N   UNL     1      -4.756 -11.072  16.906  0.00  0.00    -0.312 N 
ATOM      7  N   UNL     1      -7.034 -11.504  18.639  0.00  0.00    -0.299 N 
ATOM      8  N   UNL     1      -2.426 -10.921  16.555  0.00  0.00    -0.240 NA
ATOM     21  C   UNL     1      -4.632 -11.905  18.105  0.00  0.00    +0.125 C 
ATOM     22  C   UNL     1      -6.038 -10.407  16.655  0.00  0.00    +0.125 C 
ATOM     23  C   UNL     1      -2.897 -10.483  13.835  0.00  0.00    +0.027 A 
ATOM     24  C   UNL     1      -5.982 -12.511  18.487  0.00  0.00    +0.126 C 
ATOM     25  C   UNL     1      -6.819 -10.231  17.956  0.00  0.00    +0.126 C 
ATOM     26  C   UNL     1      -3.677 -10.886  16.045  0.00  0.00    +0.122 A 
ATOM     27  C   UNL     1      -3.964 -10.673  14.707  0.00  0.00    +0.055 A 
ATOM     28  C   UNL     1      -1.595 -10.512  14.321  0.00  0.00    +0.031 A 
ATOM     29  C   UNL     1      -8.204 -11.700  19.374  0.00  0.00    +0.213 C 
ATOM     30  C   UNL     1      -1.415 -10.732  15.677  0.00  0.00    +0.113 A 
ATOM     31  C   UNL     1      -8.353 -13.045  20.042  0.00  0.00    +0.109 C 
ENDBRANCH  20  23
BRANCH  19  10
ATOM      3  N   UNL     1      -5.582 -11.116   8.953  0.00  0.00    -0.288 NA
ATOM     10  C   UNL     1      -5.137  -9.823   9.512  0.00  0.00    +0.146 C 
ATOM     13  C   UNL     1      -6.929 -10.897   8.427  0.00  0.00    +0.085 C 
ATOM     14  C   UNL     1      -6.437  -9.112   9.934  0.00  0.00    +0.030 C 
ATOM     15  C   UNL     1      -7.559 -10.053   9.517  0.00  0.00    +0.017 C 
BRANCH   3   9
ATOM      9  C   UNL     1      -4.675 -11.646   7.938  0.00  0.00    +0.057 C 
ATOM     11  C   UNL     1      -5.123 -11.186   6.547  0.00  0.00    +0.019 C 
ATOM     12  C   UNL     1      -4.631 -13.176   8.026  0.00  0.00    +0.019 C 
ATOM     16  C   UNL     1      -4.242 -11.784   5.452  0.00  0.00    +0.002 C 
ATOM     17  C   UNL     1      -3.750 -13.772   6.929  0.00  0.00    +0.002 C 
ATOM     18  C   UNL     1      -4.186 -13.307   5.543  0.00  0.00    +0.000 C 
ENDBRANCH   3   9
ENDBRANCH  19  10
TORSDOF 3
ENDMDL
MODEL 7
REMARK VINA RESULT:      -7.4     26.880     30.338
REMARK  Name = 51136810
REMARK  4 active torsions:
REMARK  status: ('A' for Active; 'I' for Inactive)
REMARK    1  A    between atoms: N_3  and  C_9
REMARK    2  A    between atoms: C_10  and  C_19
REMARK    3  A    between atoms: C_20  and  C_23
REMARK    4  A    between atoms: C_29  and  C_31
REMARK                            x       y       z     vdW  Elec       q    Type
REMARK                         _______ _______ _______ _____ _____    ______ ____
ROOT
ATOM      1  O   UNL     1      -5.289 -11.650  19.001  0.00  0.00    -0.336 OA
ATOM      4  N   UNL     1      -5.804 -10.773  17.006  0.00  0.00    -0.190 NA
ATOM      5  N   UNL     1      -4.096 -11.623  18.269  0.00  0.00    -0.056 NA
ATOM     19  C   UNL     1      -6.245 -11.133  18.184  0.00  0.00    +0.245 A 
ATOM     20  C   UNL     1      -4.481 -11.092  17.104  0.00  0.00    +0.202 A 
ENDROOT
BRANCH  20  23
ATOM      2  O   UNL     1      -5.656 -12.250   7.995  0.00  0.00    -0.276 OA
ATOM      6  N   UNL     1      -3.544 -10.874  12.380  0.00  0.00    -0.312 N 
ATOM      7  N   UNL     1      -4.558 -11.081   9.676  0.00  0.00    -0.299 N 
ATOM      8  N   UNL     1      -1.794 -10.434  13.902  0.00  0.00    -0.240 NA
ATOM     21  C   UNL     1      -2.950 -10.083  11.299  0.00  0.00    +0.125 C 
ATOM     22  C   UNL     1      -4.607 -11.823  12.038  0.00  0.00    +0.125 C 
ATOM     23  C   UNL     1      -3.568 -10.870  16.018  0.00  0.00    +0.027 A 
ATOM     24  C   UNL     1      -3.964  -9.841  10.182  0.00  0.00    +0.126 C 
ATOM     25  C   UNL     1      -4.512 -12.235  10.570  0.00  0.00    +0.126 C 
ATOM     26  C   UNL     1      -3.089 -10.756  13.690  0.00  0.00    +0.122 A 
ATOM     27  C   UNL     1      -4.008 -10.982  14.702  0.00  0.00    +0.055 A 
ATOM     28  C   UNL     1      -2.243 -10.541  16.276  0.00  0.00    +0.031 A 
ATOM     29  C   UNL     1      -5.156 -11.207   8.422  0.00  0.00    +0.213 C 
ATOM     30  C   UNL     1      -1.403 -10.335  15.193  0.00  0.00    +0.113 A 
ATOM     31  C   UNL     1      -5.169  -9.967   7.562  0.00  0.00    +0.109 C 
ENDBRANCH  20  23
BRANCH  19  10
ATOM      3  N   UNL     1      -8.687 -11.127  17.707  0.00  0.00    -0.288 NA
ATOM     10  C   UNL     1      -7.646 -11.051  18.752  0.00  0.00    +0.146 C 
ATOM     13  C   UNL     1      -9.861 -11.733  18.336  0.00  0.00    +0.085 C 
ATOM     14  C   UNL     1      -7.968 -12.215  19.708  0.00  0.00    +0.030 C 
ATOM     15  C   UNL     1      -9.238 -12.846  19.155  0.00  0.00    +0.017 C 
BRANCH   3   9
ATOM      9  C   UNL     1      -8.994  -9.830  17.106  0.00  0.00    +0.057 C 
ATOM     11  C   UNL     1     -10.136  -9.157  17.874  0.00  0.00    +0.019 C 
ATOM     12  C   UNL     1      -9.354 -10.013  15.627  0.00  0.00    +0.019 C 
ATOM     16  C   UNL     1     -10.536  -7.832  17.227  0.00  0.00    +0.002 C 
ATOM     17  C   UNL     1      -9.756  -8.687  14.983  0.00  0.00    +0.002 C 
ATOM     18  C   UNL     1     -10.885  -8.008  15.752  0.00  0.00    +0.000 C 
ENDBRANCH   3   9
ENDBRANCH  19  10
TORSDOF 3
ENDMDL
MODEL 8
REMARK VINA RESULT:      -7.3     28.953     32.693
REMARK  Name = 51136810
REMARK  4 active torsions:
REMARK  status: ('A' for Active; 'I' for Inactive)
REMARK    1  A    between atoms: N_3  and  C_9
REMARK    2  A    between atoms: C_10  and  C_19
REMARK    3  A    between atoms: C_20  and  C_23
REMARK    4  A    between atoms: C_29  and  C_31
REMARK                            x       y       z     vdW  Elec       q    Type
REMARK                         _______ _______ _______ _____ _____    ______ ____
ROOT
ATOM      1  O   UNL     1     -11.232   6.883  20.078  0.00  0.00    -0.336 OA
ATOM      4  N   UNL     1     -12.921   8.351  20.134  0.00  0.00    -0.190 NA
ATOM      5  N   UNL     1     -12.099   6.440  21.084  0.00  0.00    -0.056 NA
ATOM     19  C   UNL     1     -11.789   8.013  19.570  0.00  0.00    +0.245 A 
ATOM     20  C   UNL     1     -13.071   7.357  21.057  0.00  0.00    +0.202 A 
ENDROOT
BRANCH  20  23
ATOM      2  O   UNL     1     -17.184   0.114  25.096  0.00  0.00    -0.276 OA
ATOM      6  N   UNL     1     -16.022   4.908  23.978  0.00  0.00    -0.312 N 
ATOM      7  N   UNL     1     -16.682   2.379  25.223  0.00  0.00    -0.299 N 
ATOM      8  N   UNL     1     -16.403   7.217  23.660  0.00  0.00    -0.240 NA
ATOM     21  C   UNL     1     -16.666   4.872  25.293  0.00  0.00    +0.125 C 
ATOM     22  C   UNL     1     -15.794   3.638  23.284  0.00  0.00    +0.125 C 
ATOM     23  C   UNL     1     -14.203   7.310  21.939  0.00  0.00    +0.027 A 
ATOM     24  C   UNL     1     -16.348   3.564  26.017  0.00  0.00    +0.126 C 
ATOM     25  C   UNL     1     -16.769   2.570  23.777  0.00  0.00    +0.126 C 
ATOM     26  C   UNL     1     -15.667   6.117  23.385  0.00  0.00    +0.122 A 
ATOM     27  C   UNL     1     -14.568   6.110  22.541  0.00  0.00    +0.055 A 
ATOM     28  C   UNL     1     -14.936   8.463  22.196  0.00  0.00    +0.031 A 
ATOM     29  C   UNL     1     -16.903   1.112  25.763  0.00  0.00    +0.213 C 
ATOM     30  C   UNL     1     -16.018   8.364  23.056  0.00  0.00    +0.113 A 
ATOM     31  C   UNL     1     -16.787   0.998  27.263  0.00  0.00    +0.109 C 
ENDBRANCH  20  23
BRANCH  19  10
ATOM      3  N   UNL     1     -11.928   9.377  17.494  0.00  0.00    -0.288 NA
ATOM     10  C   UNL     1     -11.033   8.695  18.450  0.00  0.00    +0.146 C 
ATOM     13  C   UNL     1     -11.169  10.503  16.949  0.00  0.00    +0.085 C 
ATOM     14  C   UNL     1     -10.088   9.800  18.957  0.00  0.00    +0.030 C 
ATOM     15  C   UNL     1     -10.487  11.051  18.186  0.00  0.00    +0.017 C 
BRANCH   3   9
ATOM      9  C   UNL     1     -12.430   8.493  16.444  0.00  0.00    +0.057 C 
ATOM     11  C   UNL     1     -11.790   8.862  15.102  0.00  0.00    +0.019 C 
ATOM     12  C   UNL     1     -13.959   8.587  16.371  0.00  0.00    +0.019 C 
ATOM     16  C   UNL     1     -12.349   8.008  13.965  0.00  0.00    +0.002 C 
ATOM     17  C   UNL     1     -14.515   7.733  15.232  0.00  0.00    +0.002 C 
ATOM     18  C   UNL     1     -13.871   8.089  13.896  0.00  0.00    +0.000 C 
ENDBRANCH   3   9
ENDBRANCH  19  10
TORSDOF 3
ENDMDL
MODEL 9
REMARK VINA RESULT:      -7.2     27.902     30.662
REMARK  Name = 51136810
REMARK  4 active torsions:
REMARK  status: ('A' for Active; 'I' for Inactive)
REMARK    1  A    between atoms: N_3  and  C_9
REMARK    2  A    between atoms: C_10  and  C_19
REMARK    3  A    between atoms: C_20  and  C_23
REMARK    4  A    between atoms: C_29  and  C_31
REMARK                            x       y       z     vdW  Elec       q    Type
REMARK                         _______ _______ _______ _____ _____    ______ ____
ROOT
ATOM      1  O   UNL     1      -4.088 -11.342  17.321  0.00  0.00    -0.336 OA
ATOM      4  N   UNL     1      -5.158 -10.210  15.712  0.00  0.00    -0.190 NA
ATOM      5  N   UNL     1      -3.306 -11.474  16.167  0.00  0.00    -0.056 NA
ATOM     19  C   UNL     1      -5.159 -10.584  16.966  0.00  0.00    +0.245 A 
ATOM     20  C   UNL     1      -4.002 -10.779  15.262  0.00  0.00    +0.202 A 
ENDROOT
BRANCH  20  23
ATOM      2  O   UNL     1      -8.962 -10.213   7.466  0.00  0.00    -0.276 OA
ATOM      6  N   UNL     1      -4.988 -10.099  10.592  0.00  0.00    -0.312 N 
ATOM      7  N   UNL     1      -6.998  -9.631   8.562  0.00  0.00    -0.299 N 
ATOM      8  N   UNL     1      -2.733 -10.355  11.248  0.00  0.00    -0.240 NA
ATOM     21  C   UNL     1      -4.664  -9.332   9.386  0.00  0.00    +0.125 C 
ATOM     22  C   UNL     1      -6.327 -10.682  10.701  0.00  0.00    +0.125 C 
ATOM     23  C   UNL     1      -3.571 -10.637  13.899  0.00  0.00    +0.027 A 
ATOM     24  C   UNL     1      -5.916  -8.675   8.808  0.00  0.00    +0.126 C 
ATOM     25  C   UNL     1      -6.945 -10.880   9.318  0.00  0.00    +0.126 C 
ATOM     26  C   UNL     1      -4.040 -10.300  11.592  0.00  0.00    +0.122 A 
ATOM     27  C   UNL     1      -4.506 -10.433  12.889  0.00  0.00    +0.055 A 
ATOM     28  C   UNL     1      -2.219 -10.700  13.585  0.00  0.00    +0.031 A 
ATOM     29  C   UNL     1      -8.051  -9.409   7.674  0.00  0.00    +0.213 C 
ATOM     30  C   UNL     1      -1.855 -10.555  12.256  0.00  0.00    +0.113 A 
ATOM     31  C   UNL     1      -8.036  -8.092   6.938  0.00  0.00    +0.109 C 
ENDBRANCH  20  23
BRANCH  19  10
ATOM      3  N   UNL     1      -7.551 -10.618  17.649  0.00  0.00    -0.288 NA
ATOM     10  C   UNL     1      -6.170 -10.292  18.055  0.00  0.00    +0.146 C 
ATOM     13  C   UNL     1      -8.267 -10.977  18.874  0.00  0.00    +0.085 C 
ATOM     14  C   UNL     1      -5.929 -11.125  19.327  0.00  0.00    +0.030 C 
ATOM     15  C   UNL     1      -7.248 -11.837  19.593  0.00  0.00    +0.017 C 
BRANCH   3   9
ATOM      9  C   UNL     1      -8.210  -9.533  16.925  0.00  0.00    +0.057 C 
ATOM     11  C   UNL     1      -9.320  -8.927  17.791  0.00  0.00    +0.019 C 
ATOM     12  C   UNL     1      -8.768 -10.056  15.597  0.00  0.00    +0.019 C 
ATOM     16  C   UNL     1     -10.082  -7.839  17.037  0.00  0.00    +0.002 C 
ATOM     17  C   UNL     1      -9.532  -8.966  14.846  0.00  0.00    +0.002 C 
ATOM     18  C   UNL     1     -10.630  -8.352  15.709  0.00  0.00    +0.000 C 
ENDBRANCH   3   9
ENDBRANCH  19  10
TORSDOF 3
ENDMDL
MODEL 10
REMARK VINA RESULT:      -7.2     28.044     31.172
REMARK  Name = 51136810
REMARK  4 active torsions:
REMARK  status: ('A' for Active; 'I' for Inactive)
REMARK    1  A    between atoms: N_3  and  C_9
REMARK    2  A    between atoms: C_10  and  C_19
REMARK    3  A    between atoms: C_20  and  C_23
REMARK    4  A    between atoms: C_29  and  C_31
REMARK                            x       y       z     vdW  Elec       q    Type
REMARK                         _______ _______ _______ _____ _____    ______ ____
ROOT
ATOM      1  O   UNL     1      -1.902 -10.955  15.383  0.00  0.00    -0.336 OA
ATOM      4  N   UNL     1      -4.083 -11.394  15.122  0.00  0.00    -0.190 NA
ATOM      5  N   UNL     1      -2.486 -10.788  16.645  0.00  0.00    -0.056 NA
ATOM     19  C   UNL     1      -2.911 -11.311  14.544  0.00  0.00    +0.245 A 
ATOM     20  C   UNL     1      -3.773 -11.064  16.409  0.00  0.00    +0.202 A 
ENDROOT
BRANCH  20  23
ATOM      2  O   UNL     1     -12.201  -7.235  16.367  0.00  0.00    -0.276 OA
ATOM      6  N   UNL     1      -8.223  -9.958  17.898  0.00  0.00    -0.312 N 
ATOM      7  N   UNL     1     -10.835  -8.910  17.222  0.00  0.00    -0.299 N 
ATOM      8  N   UNL     1      -6.723 -10.932  19.440  0.00  0.00    -0.240 NA
ATOM     21  C   UNL     1      -9.420 -10.437  18.593  0.00  0.00    +0.125 C 
ATOM     22  C   UNL     1      -8.378  -8.885  16.912  0.00  0.00    +0.125 C 
ATOM     23  C   UNL     1      -4.773 -11.018  17.438  0.00  0.00    +0.027 A 
ATOM     24  C   UNL     1     -10.660 -10.278  17.713  0.00  0.00    +0.126 C 
ATOM     25  C   UNL     1      -9.640  -8.070  17.194  0.00  0.00    +0.126 C 
ATOM     26  C   UNL     1      -6.966 -10.480  18.189  0.00  0.00    +0.122 A 
ATOM     27  C   UNL     1      -6.035 -10.501  17.162  0.00  0.00    +0.055 A 
ATOM     28  C   UNL     1      -4.485 -11.492  18.713  0.00  0.00    +0.031 A 
ATOM     29  C   UNL     1     -12.052  -8.387  16.781  0.00  0.00    +0.213 C 
ATOM     30  C   UNL     1      -5.486 -11.427  19.670  0.00  0.00    +0.113 A 
ATOM     31  C   UNL     1     -13.236  -9.320  16.835  0.00  0.00    +0.109 C 
ENDBRANCH  20  23
BRANCH  19  10
ATOM      3  N   UNL     1      -3.105 -12.808  12.567  0.00  0.00    -0.288 NA
ATOM     10  C   UNL     1      -2.533 -11.555  13.099  0.00  0.00    +0.146 C 
ATOM     13  C   UNL     1      -3.295 -12.598  11.131  0.00  0.00    +0.085 C 
ATOM     14  C   UNL     1      -3.054 -10.456  12.155  0.00  0.00    +0.030 C 
ATOM     15  C   UNL     1      -3.857 -11.191  11.091  0.00  0.00    +0.017 C 
BRANCH   3   9
ATOM      9  C   UNL     1      -2.281 -13.982  12.846  0.00  0.00    +0.057 C 
ATOM     11  C   UNL     1      -2.435 -15.007  11.718  0.00  0.00    +0.019 C 
ATOM     12  C   UNL     1      -2.675 -14.585  14.199  0.00  0.00    +0.019 C 
ATOM     16  C   UNL     1      -1.646 -16.282  12.013  0.00  0.00    +0.002 C 
ATOM     17  C   UNL     1      -1.886 -15.861  14.491  0.00  0.00    +0.002 C 
ATOM     18  C   UNL     1      -2.027 -16.879  13.365  0.00  0.00    +0.000 C 
ENDBRANCH   3   9
ENDBRANCH  19  10
TORSDOF 3
ENDMDL
