MODEL 1
REMARK VINA RESULT:      -6.8      0.000      0.000
REMARK  Name = 71693012
REMARK  8 active torsions:
REMARK  status: ('A' for Active; 'I' for Inactive)
REMARK    1  A    between atoms: N_1  and  C_13
REMARK    2  A    between atoms: C_5  and  C_9
REMARK    3  A    between atoms: C_7  and  C_13
REMARK    4  A    between atoms: C_8  and  C_12
REMARK    5  A    between atoms: C_9  and  C_14
REMARK    6  A    between atoms: C_9  and  C_15
REMARK    7  A    between atoms: C_10  and  C_16
REMARK    8  A    between atoms: C_12  and  C_17
REMARK                            x       y       z     vdW  Elec       q    Type
REMARK                         _______ _______ _______ _____ _____    ______ ____
ROOT
ATOM      5  C   UNL     1      13.627   9.122  19.734  0.00  0.00    +0.000 C 
ATOM      6  C   UNL     1      13.476   9.083  21.261  0.00  0.00    +0.012 C 
ATOM      7  C   UNL     1      13.718   7.684  19.162  0.00  0.00    +0.029 C 
ATOM      8  C   UNL     1      12.224   8.302  21.704  0.00  0.00    +0.022 C 
ATOM     10  C   UNL     1      12.101   6.978  20.978  0.00  0.00    -0.073 C 
ATOM     11  C   UNL     1      12.786   6.715  19.851  0.00  0.00    -0.023 C 
ATOM     16  C   UNL     1      11.206   5.944  21.602  0.00  0.00    +0.039 C 
ENDROOT
BRANCH   5   9
ATOM      9  C   UNL     1      14.850   9.963  19.354  0.00  0.00    -0.013 C 
ATOM     14  C   UNL     1      14.415  11.257  18.674  0.00  0.00    +0.007 C 
ATOM     15  C   UNL     1      15.696  10.257  20.588  0.00  0.00    +0.007 C 
ENDBRANCH   5   9
BRANCH   8  12
ATOM     12  C   UNL     1      10.956   9.144  21.526  0.00  0.00    +0.082 C 
BRANCH  12  17
ATOM      2  N   UNL     1      10.905  11.588  22.059  0.00  0.00    -0.341 N 
ATOM      3  N   UNL     1      10.896  10.210  23.809  0.00  0.00    -0.213 NA
ATOM      4  N   UNL     1      10.836  11.918  25.532  0.00  0.00    -0.234 NA
ATOM     17  C   UNL     1      10.919  10.291  22.496  0.00  0.00    +0.110 A 
ATOM     18  C   UNL     1      10.871  12.395  23.164  0.00  0.00    +0.085 A 
ATOM     19  C   UNL     1      10.866  11.512  24.238  0.00  0.00    +0.178 A 
ATOM     20  C   UNL     1      10.845  13.773  23.344  0.00  0.00    +0.031 A 
ATOM     21  C   UNL     1      10.813  14.206  24.668  0.00  0.00    +0.022 A 
ATOM     22  C   UNL     1      10.811  13.263  25.689  0.00  0.00    +0.113 A 
ATOM     25  H   UNL     1      10.921  11.896  21.096  0.00  0.00    +0.167 HD
ENDBRANCH  12  17
ENDBRANCH   8  12
BRANCH   7  13
ATOM     13  C   UNL     1      13.445   7.669  17.654  0.00  0.00    +0.085 C 
BRANCH  13   1
ATOM      1  N   UNL     1      12.118   7.146  17.377  0.00  0.00    -0.329 NA
ATOM     23  H   UNL     1      11.425   7.890  17.427  0.00  0.00    +0.118 HD
ATOM     24  H   UNL     1      11.862   6.476  18.101  0.00  0.00    +0.118 HD
ENDBRANCH  13   1
ENDBRANCH   7  13
TORSDOF 5
ENDMDL
MODEL 2
REMARK VINA RESULT:      -6.4      4.742      7.142
REMARK  Name = 71693012
REMARK  8 active torsions:
REMARK  status: ('A' for Active; 'I' for Inactive)
REMARK    1  A    between atoms: N_1  and  C_13
REMARK    2  A    between atoms: C_5  and  C_9
REMARK    3  A    between atoms: C_7  and  C_13
REMARK    4  A    between atoms: C_8  and  C_12
REMARK    5  A    between atoms: C_9  and  C_14
REMARK    6  A    between atoms: C_9  and  C_15
REMARK    7  A    between atoms: C_10  and  C_16
REMARK    8  A    between atoms: C_12  and  C_17
REMARK                            x       y       z     vdW  Elec       q    Type
REMARK                         _______ _______ _______ _____ _____    ______ ____
ROOT
ATOM      5  C   UNL     1      19.779   6.355  21.616  0.00  0.00    +0.000 C 
ATOM      6  C   UNL     1      18.917   6.520  20.356  0.00  0.00    +0.012 C 
ATOM      7  C   UNL     1      20.173   7.741  22.187  0.00  0.00    +0.029 C 
ATOM      8  C   UNL     1      17.629   7.318  20.630  0.00  0.00    +0.022 C 
ATOM     10  C   UNL     1      17.906   8.576  21.431  0.00  0.00    -0.073 C 
ATOM     11  C   UNL     1      19.054   8.752  22.108  0.00  0.00    -0.023 C 
ATOM     16  C   UNL     1      16.852   9.646  21.395  0.00  0.00    +0.039 C 
ENDROOT
BRANCH   5   9
ATOM      9  C   UNL     1      21.010   5.501  21.296  0.00  0.00    -0.013 C 
ATOM     14  C   UNL     1      20.600   4.234  20.552  0.00  0.00    +0.007 C 
ATOM     15  C   UNL     1      22.017   6.305  20.480  0.00  0.00    +0.007 C 
ENDBRANCH   5   9
BRANCH   8  12
ATOM     12  C   UNL     1      16.577   6.448  21.326  0.00  0.00    +0.082 C 
BRANCH  12  17
ATOM      2  N   UNL     1      14.298   7.213  22.018  0.00  0.00    -0.341 N 
ATOM      3  N   UNL     1      14.664   7.105  19.823  0.00  0.00    -0.213 NA
ATOM      4  N   UNL     1      12.464   7.851  19.119  0.00  0.00    -0.234 NA
ATOM     17  C   UNL     1      15.185   6.920  21.017  0.00  0.00    +0.110 A 
ATOM     18  C   UNL     1      13.128   7.612  21.429  0.00  0.00    +0.085 A 
ATOM     19  C   UNL     1      13.383   7.535  20.064  0.00  0.00    +0.178 A 
ATOM     20  C   UNL     1      11.897   8.024  21.925  0.00  0.00    +0.031 A 
ATOM     21  C   UNL     1      10.942   8.354  20.966  0.00  0.00    +0.022 A 
ATOM     22  C   UNL     1      11.271   8.251  19.619  0.00  0.00    +0.113 A 
ATOM     25  H   UNL     1      14.472   7.144  23.012  0.00  0.00    +0.167 HD
ENDBRANCH  12  17
ENDBRANCH   8  12
BRANCH   7  13
ATOM     13  C   UNL     1      20.656   7.625  23.638  0.00  0.00    +0.085 C 
BRANCH  13   1
ATOM      1  N   UNL     1      19.856   6.657  24.369  0.00  0.00    -0.329 NA
ATOM     23  H   UNL     1      18.867   6.779  24.155  0.00  0.00    +0.118 HD
ATOM     24  H   UNL     1      19.949   6.828  25.369  0.00  0.00    +0.118 HD
ENDBRANCH  13   1
ENDBRANCH   7  13
TORSDOF 5
ENDMDL
MODEL 3
REMARK VINA RESULT:      -6.0     15.449     19.527
REMARK  Name = 71693012
REMARK  8 active torsions:
REMARK  status: ('A' for Active; 'I' for Inactive)
REMARK    1  A    between atoms: N_1  and  C_13
REMARK    2  A    between atoms: C_5  and  C_9
REMARK    3  A    between atoms: C_7  and  C_13
REMARK    4  A    between atoms: C_8  and  C_12
REMARK    5  A    between atoms: C_9  and  C_14
REMARK    6  A    between atoms: C_9  and  C_15
REMARK    7  A    between atoms: C_10  and  C_16
REMARK    8  A    between atoms: C_12  and  C_17
REMARK                            x       y       z     vdW  Elec       q    Type
REMARK                         _______ _______ _______ _____ _____    ______ ____
ROOT
ATOM      5  C   UNL     1      13.126   4.018   0.261  0.00  0.00    +0.000 C 
ATOM      6  C   UNL     1      11.955   4.999   0.418  0.00  0.00    +0.012 C 
ATOM      7  C   UNL     1      14.471   4.729   0.557  0.00  0.00    +0.029 C 
ATOM      8  C   UNL     1      11.886   5.603   1.833  0.00  0.00    +0.022 C 
ATOM     10  C   UNL     1      13.242   6.086   2.306  0.00  0.00    -0.073 C 
ATOM     11  C   UNL     1      14.385   5.696   1.714  0.00  0.00    -0.023 C 
ATOM     16  C   UNL     1      13.251   7.067   3.445  0.00  0.00    +0.039 C 
ENDROOT
BRANCH   5   9
ATOM      9  C   UNL     1      13.105   3.405  -1.143  0.00  0.00    -0.013 C 
ATOM     14  C   UNL     1      11.670   3.127  -1.581  0.00  0.00    +0.007 C 
ATOM     15  C   UNL     1      13.806   4.326  -2.137  0.00  0.00    +0.007 C 
ENDBRANCH   5   9
BRANCH   8  12
ATOM     12  C   UNL     1      11.282   4.607   2.829  0.00  0.00    +0.082 C 
BRANCH  12  17
ATOM      2  N   UNL     1      10.831   4.998   5.259  0.00  0.00    -0.341 N 
ATOM      3  N   UNL     1       9.681   6.271   3.838  0.00  0.00    -0.213 NA
ATOM      4  N   UNL     1       8.440   7.527   5.503  0.00  0.00    -0.234 NA
ATOM     17  C   UNL     1      10.577   5.314   3.952  0.00  0.00    +0.110 A 
ATOM     18  C   UNL     1      10.045   5.803   6.038  0.00  0.00    +0.085 A 
ATOM     19  C   UNL     1       9.341   6.585   5.130  0.00  0.00    +0.178 A 
ATOM     20  C   UNL     1       9.873   5.935   7.412  0.00  0.00    +0.031 A 
ATOM     21  C   UNL     1       8.952   6.900   7.812  0.00  0.00    +0.022 A 
ATOM     22  C   UNL     1       8.285   7.643   6.844  0.00  0.00    +0.113 A 
ATOM     25  H   UNL     1      11.477   4.294   5.590  0.00  0.00    +0.167 HD
ENDBRANCH  12  17
ENDBRANCH   8  12
BRANCH   7  13
ATOM     13  C   UNL     1      15.588   3.713   0.822  0.00  0.00    +0.085 C 
BRANCH  13   1
ATOM      1  N   UNL     1      15.488   3.182   2.171  0.00  0.00    -0.329 NA
ATOM     23  H   UNL     1      15.588   2.168   2.162  0.00  0.00    +0.118 HD
ATOM     24  H   UNL     1      14.557   3.368   2.540  0.00  0.00    +0.118 HD
ENDBRANCH  13   1
ENDBRANCH   7  13
TORSDOF 5
ENDMDL
MODEL 4
REMARK VINA RESULT:      -5.9     33.496     35.034
REMARK  Name = 71693012
REMARK  8 active torsions:
REMARK  status: ('A' for Active; 'I' for Inactive)
REMARK    1  A    between atoms: N_1  and  C_13
REMARK    2  A    between atoms: C_5  and  C_9
REMARK    3  A    between atoms: C_7  and  C_13
REMARK    4  A    between atoms: C_8  and  C_12
REMARK    5  A    between atoms: C_9  and  C_14
REMARK    6  A    between atoms: C_9  and  C_15
REMARK    7  A    between atoms: C_10  and  C_16
REMARK    8  A    between atoms: C_12  and  C_17
REMARK                            x       y       z     vdW  Elec       q    Type
REMARK                         _______ _______ _______ _____ _____    ______ ____
ROOT
ATOM      5  C   UNL     1       3.515 -15.237   0.517  0.00  0.00    +0.000 C 
ATOM      6  C   UNL     1       2.897 -13.885   0.133  0.00  0.00    +0.012 C 
ATOM      7  C   UNL     1       3.131 -15.615   1.970  0.00  0.00    +0.029 C 
ATOM      8  C   UNL     1       1.360 -13.893   0.244  0.00  0.00    +0.022 C 
ATOM     10  C   UNL     1       0.894 -14.504   1.551  0.00  0.00    -0.073 C 
ATOM     11  C   UNL     1       1.704 -15.259   2.315  0.00  0.00    -0.023 C 
ATOM     16  C   UNL     1      -0.510 -14.188   1.982  0.00  0.00    +0.039 C 
ENDROOT
BRANCH   5   9
ATOM      9  C   UNL     1       5.034 -15.187   0.326  0.00  0.00    -0.013 C 
ATOM     14  C   UNL     1       5.536 -16.490  -0.289  0.00  0.00    +0.007 C 
ATOM     15  C   UNL     1       5.422 -13.995  -0.543  0.00  0.00    +0.007 C 
ENDBRANCH   5   9
BRANCH   8  12
ATOM     12  C   UNL     1       0.723 -14.608  -0.952  0.00  0.00    +0.082 C 
BRANCH  12  17
ATOM      2  N   UNL     1       0.825 -12.769  -2.646  0.00  0.00    -0.341 N 
ATOM      3  N   UNL     1       1.983 -14.608  -3.134  0.00  0.00    -0.213 NA
ATOM      4  N   UNL     1       2.854 -13.851  -5.270  0.00  0.00    -0.234 NA
ATOM     17  C   UNL     1       1.197 -14.026  -2.254  0.00  0.00    +0.110 A 
ATOM     18  C   UNL     1       1.409 -12.525  -3.859  0.00  0.00    +0.085 A 
ATOM     19  C   UNL     1       2.123 -13.685  -4.140  0.00  0.00    +0.178 A 
ATOM     20  C   UNL     1       1.394 -11.441  -4.730  0.00  0.00    +0.031 A 
ATOM     21  C   UNL     1       2.141 -11.596  -5.895  0.00  0.00    +0.022 A 
ATOM     22  C   UNL     1       2.829 -12.786  -6.106  0.00  0.00    +0.113 A 
ATOM     25  H   UNL     1       0.224 -12.136  -2.135  0.00  0.00    +0.167 HD
ENDBRANCH  12  17
ENDBRANCH   8  12
BRANCH   7  13
ATOM     13  C   UNL     1       3.363 -17.106   2.235  0.00  0.00    +0.085 C 
BRANCH  13   1
ATOM      1  N   UNL     1       4.417 -17.295   3.218  0.00  0.00    -0.329 NA
ATOM     23  H   UNL     1       5.112 -16.554   3.141  0.00  0.00    +0.118 HD
ATOM     24  H   UNL     1       4.911 -18.164   3.021  0.00  0.00    +0.118 HD
ENDBRANCH  13   1
ENDBRANCH   7  13
TORSDOF 5
ENDMDL
MODEL 5
REMARK VINA RESULT:      -5.9     26.666     29.243
REMARK  Name = 71693012
REMARK  8 active torsions:
REMARK  status: ('A' for Active; 'I' for Inactive)
REMARK    1  A    between atoms: N_1  and  C_13
REMARK    2  A    between atoms: C_5  and  C_9
REMARK    3  A    between atoms: C_7  and  C_13
REMARK    4  A    between atoms: C_8  and  C_12
REMARK    5  A    between atoms: C_9  and  C_14
REMARK    6  A    between atoms: C_9  and  C_15
REMARK    7  A    between atoms: C_10  and  C_16
REMARK    8  A    between atoms: C_12  and  C_17
REMARK                            x       y       z     vdW  Elec       q    Type
REMARK                         _______ _______ _______ _____ _____    ______ ____
ROOT
ATOM      5  C   UNL     1     -12.874   7.901  33.026  0.00  0.00    +0.000 C 
ATOM      6  C   UNL     1     -14.039   7.041  32.513  0.00  0.00    +0.012 C 
ATOM      7  C   UNL     1     -13.004   8.131  34.554  0.00  0.00    +0.029 C 
ATOM      8  C   UNL     1     -14.101   5.669  33.208  0.00  0.00    +0.022 C 
ATOM     10  C   UNL     1     -13.964   5.793  34.713  0.00  0.00    -0.073 C 
ATOM     11  C   UNL     1     -13.485   6.906  35.296  0.00  0.00    -0.023 C 
ATOM     16  C   UNL     1     -14.434   4.626  35.534  0.00  0.00    +0.039 C 
ENDROOT
BRANCH   5   9
ATOM      9  C   UNL     1     -12.826   9.224  32.255  0.00  0.00    -0.013 C 
ATOM     14  C   UNL     1     -11.639   9.238  31.296  0.00  0.00    +0.007 C 
ATOM     15  C   UNL     1     -14.132   9.448  31.501  0.00  0.00    +0.007 C 
ENDBRANCH   5   9
BRANCH   8  12
ATOM     12  C   UNL     1     -13.047   4.712  32.640  0.00  0.00    +0.082 C 
BRANCH  12  17
ATOM      2  N   UNL     1     -13.077   2.432  31.610  0.00  0.00    -0.341 N 
ATOM      3  N   UNL     1     -14.811   3.744  31.123  0.00  0.00    -0.213 NA
ATOM      4  N   UNL     1     -15.985   2.168  29.699  0.00  0.00    -0.234 NA
ATOM     17  C   UNL     1     -13.675   3.652  31.782  0.00  0.00    +0.110 A 
ATOM     18  C   UNL     1     -13.881   1.692  30.786  0.00  0.00    +0.085 A 
ATOM     19  C   UNL     1     -14.951   2.531  30.498  0.00  0.00    +0.178 A 
ATOM     20  C   UNL     1     -13.794   0.404  30.267  0.00  0.00    +0.031 A 
ATOM     21  C   UNL     1     -14.849   0.016  29.445  0.00  0.00    +0.022 A 
ATOM     22  C   UNL     1     -15.885   0.912  29.203  0.00  0.00    +0.113 A 
ATOM     25  H   UNL     1     -12.200   2.134  32.014  0.00  0.00    +0.167 HD
ENDBRANCH  12  17
ENDBRANCH   8  12
BRANCH   7  13
ATOM     13  C   UNL     1     -11.677   8.606  35.157  0.00  0.00    +0.085 C 
BRANCH  13   1
ATOM      1  N   UNL     1     -11.559   8.175  36.539  0.00  0.00    -0.329 NA
ATOM     23  H   UNL     1     -10.852   7.446  36.625  0.00  0.00    +0.118 HD
ATOM     24  H   UNL     1     -12.436   7.750  36.837  0.00  0.00    +0.118 HD
ENDBRANCH  13   1
ENDBRANCH   7  13
TORSDOF 5
ENDMDL
MODEL 6
REMARK VINA RESULT:      -5.8     14.831     19.649
REMARK  Name = 71693012
REMARK  8 active torsions:
REMARK  status: ('A' for Active; 'I' for Inactive)
REMARK    1  A    between atoms: N_1  and  C_13
REMARK    2  A    between atoms: C_5  and  C_9
REMARK    3  A    between atoms: C_7  and  C_13
REMARK    4  A    between atoms: C_8  and  C_12
REMARK    5  A    between atoms: C_9  and  C_14
REMARK    6  A    between atoms: C_9  and  C_15
REMARK    7  A    between atoms: C_10  and  C_16
REMARK    8  A    between atoms: C_12  and  C_17
REMARK                            x       y       z     vdW  Elec       q    Type
REMARK                         _______ _______ _______ _____ _____    ______ ____
ROOT
ATOM      5  C   UNL     1       8.892   8.183   5.362  0.00  0.00    +0.000 C 
ATOM      6  C   UNL     1       8.641   7.099   4.304  0.00  0.00    +0.012 C 
ATOM      7  C   UNL     1       8.573   7.641   6.779  0.00  0.00    +0.029 C 
ATOM      8  C   UNL     1       9.493   5.838   4.547  0.00  0.00    +0.022 C 
ATOM     10  C   UNL     1       9.442   5.395   5.996  0.00  0.00    -0.073 C 
ATOM     11  C   UNL     1       9.015   6.210   6.977  0.00  0.00    -0.023 C 
ATOM     16  C   UNL     1       9.850   3.978   6.284  0.00  0.00    +0.039 C 
ENDROOT
BRANCH   5   9
ATOM      9  C   UNL     1       8.067   9.431   5.033  0.00  0.00    -0.013 C 
ATOM     14  C   UNL     1       8.981  10.636   4.835  0.00  0.00    +0.007 C 
ATOM     15  C   UNL     1       7.212   9.191   3.793  0.00  0.00    +0.007 C 
ENDBRANCH   5   9
BRANCH   8  12
ATOM     12  C   UNL     1      10.940   6.053   4.091  0.00  0.00    +0.082 C 
BRANCH  12  17
ATOM      2  N   UNL     1      12.427   4.781   2.532  0.00  0.00    -0.341 N 
ATOM      3  N   UNL     1      10.376   5.221   1.780  0.00  0.00    -0.213 NA
ATOM      4  N   UNL     1      10.617   4.151  -0.385  0.00  0.00    -0.234 NA
ATOM     17  C   UNL     1      11.213   5.360   2.787  0.00  0.00    +0.110 A 
ATOM     18  C   UNL     1      12.368   4.236   1.277  0.00  0.00    +0.085 A 
ATOM     19  C   UNL     1      11.083   4.524   0.833  0.00  0.00    +0.178 A 
ATOM     20  C   UNL     1      13.278   3.535   0.494  0.00  0.00    +0.031 A 
ATOM     21  C   UNL     1      12.814   3.143  -0.760  0.00  0.00    +0.022 A 
ATOM     22  C   UNL     1      11.516   3.469  -1.135  0.00  0.00    +0.113 A 
ATOM     25  H   UNL     1      13.224   4.763   3.153  0.00  0.00    +0.167 HD
ENDBRANCH  12  17
ENDBRANCH   8  12
BRANCH   7  13
ATOM     13  C   UNL     1       9.199   8.524   7.864  0.00  0.00    +0.085 C 
BRANCH  13   1
ATOM      1  N   UNL     1      10.632   8.654   7.656  0.00  0.00    -0.329 NA
ATOM     23  H   UNL     1      11.008   9.405   8.232  0.00  0.00    +0.118 HD
ATOM     24  H   UNL     1      10.809   8.926   6.690  0.00  0.00    +0.118 HD
ENDBRANCH  13   1
ENDBRANCH   7  13
TORSDOF 5
ENDMDL
MODEL 7
REMARK VINA RESULT:      -5.7     16.718     20.728
REMARK  Name = 71693012
REMARK  8 active torsions:
REMARK  status: ('A' for Active; 'I' for Inactive)
REMARK    1  A    between atoms: N_1  and  C_13
REMARK    2  A    between atoms: C_5  and  C_9
REMARK    3  A    between atoms: C_7  and  C_13
REMARK    4  A    between atoms: C_8  and  C_12
REMARK    5  A    between atoms: C_9  and  C_14
REMARK    6  A    between atoms: C_9  and  C_15
REMARK    7  A    between atoms: C_10  and  C_16
REMARK    8  A    between atoms: C_12  and  C_17
REMARK                            x       y       z     vdW  Elec       q    Type
REMARK                         _______ _______ _______ _____ _____    ______ ____
ROOT
ATOM      5  C   UNL     1      11.125   4.352  -1.166  0.00  0.00    +0.000 C 
ATOM      6  C   UNL     1      11.452   5.383  -0.076  0.00  0.00    +0.012 C 
ATOM      7  C   UNL     1      12.425   3.691  -1.692  0.00  0.00    +0.029 C 
ATOM      8  C   UNL     1      12.196   4.755   1.117  0.00  0.00    +0.022 C 
ATOM     10  C   UNL     1      13.337   3.866   0.663  0.00  0.00    -0.073 C 
ATOM     11  C   UNL     1      13.429   3.411  -0.599  0.00  0.00    -0.023 C 
ATOM     16  C   UNL     1      14.394   3.548   1.683  0.00  0.00    +0.039 C 
ENDROOT
BRANCH   5   9
ATOM      9  C   UNL     1      10.332   5.021  -2.293  0.00  0.00    -0.013 C 
ATOM     14  C   UNL     1       9.064   5.666  -1.741  0.00  0.00    +0.007 C 
ATOM     15  C   UNL     1      11.195   6.053  -3.011  0.00  0.00    +0.007 C 
ENDBRANCH   5   9
BRANCH   8  12
ATOM     12  C   UNL     1      11.232   3.988   2.028  0.00  0.00    +0.082 C 
BRANCH  12  17
ATOM      2  N   UNL     1      11.832   5.756   3.694  0.00  0.00    -0.341 N 
ATOM      3  N   UNL     1      10.183   4.379   4.285  0.00  0.00    -0.213 NA
ATOM      4  N   UNL     1       9.740   5.364   6.459  0.00  0.00    -0.234 NA
ATOM     17  C   UNL     1      11.054   4.684   3.347  0.00  0.00    +0.110 A 
ATOM     18  C   UNL     1      11.436   6.167   4.939  0.00  0.00    +0.085 A 
ATOM     19  C   UNL     1      10.410   5.294   5.282  0.00  0.00    +0.178 A 
ATOM     20  C   UNL     1      11.851   7.186   5.788  0.00  0.00    +0.031 A 
ATOM     21  C   UNL     1      11.172   7.271   7.001  0.00  0.00    +0.022 A 
ATOM     22  C   UNL     1      10.157   6.361   7.275  0.00  0.00    +0.113 A 
ATOM     25  H   UNL     1      12.568   6.167   3.136  0.00  0.00    +0.167 HD
ENDBRANCH  12  17
ENDBRANCH   8  12
BRANCH   7  13
ATOM     13  C   UNL     1      12.119   2.393  -2.449  0.00  0.00    +0.085 C 
BRANCH  13   1
ATOM      1  N   UNL     1      12.744   2.404  -3.760  0.00  0.00    -0.329 NA
ATOM     23  H   UNL     1      12.169   1.901  -4.433  0.00  0.00    +0.118 HD
ATOM     24  H   UNL     1      13.629   1.901  -3.716  0.00  0.00    +0.118 HD
ENDBRANCH  13   1
ENDBRANCH   7  13
TORSDOF 5
ENDMDL
MODEL 8
REMARK VINA RESULT:      -5.7     26.157     29.117
REMARK  Name = 71693012
REMARK  8 active torsions:
REMARK  status: ('A' for Active; 'I' for Inactive)
REMARK    1  A    between atoms: N_1  and  C_13
REMARK    2  A    between atoms: C_5  and  C_9
REMARK    3  A    between atoms: C_7  and  C_13
REMARK    4  A    between atoms: C_8  and  C_12
REMARK    5  A    between atoms: C_9  and  C_14
REMARK    6  A    between atoms: C_9  and  C_15
REMARK    7  A    between atoms: C_10  and  C_16
REMARK    8  A    between atoms: C_12  and  C_17
REMARK                            x       y       z     vdW  Elec       q    Type
REMARK                         _______ _______ _______ _____ _____    ______ ____
ROOT
ATOM      5  C   UNL     1     -10.088  -9.000  17.465  0.00  0.00    +0.000 C 
ATOM      6  C   UNL     1      -9.325  -9.391  16.191  0.00  0.00    +0.012 C 
ATOM      7  C   UNL     1     -10.656 -10.262  18.164  0.00  0.00    +0.029 C 
ATOM      8  C   UNL     1      -8.159 -10.355  16.481  0.00  0.00    +0.022 C 
ATOM     10  C   UNL     1      -8.581 -11.490  17.392  0.00  0.00    -0.073 C 
ATOM     11  C   UNL     1      -9.707 -11.436  18.126  0.00  0.00    -0.023 C 
ATOM     16  C   UNL     1      -7.702 -12.709  17.406  0.00  0.00    +0.039 C 
ENDROOT
BRANCH   5   9
ATOM      9  C   UNL     1     -11.191  -7.994  17.122  0.00  0.00    -0.013 C 
ATOM     14  C   UNL     1     -10.626  -6.848  16.289  0.00  0.00    +0.007 C 
ATOM     15  C   UNL     1     -12.332  -8.688  16.385  0.00  0.00    +0.007 C 
ENDBRANCH   5   9
BRANCH   8  12
ATOM     12  C   UNL     1      -6.955  -9.606  17.061  0.00  0.00    +0.082 C 
BRANCH  12  17
ATOM      2  N   UNL     1      -4.518 -10.173  17.057  0.00  0.00    -0.341 N 
ATOM      3  N   UNL     1      -5.525 -10.187  15.070  0.00  0.00    -0.213 NA
ATOM      4  N   UNL     1      -3.579 -10.802  13.755  0.00  0.00    -0.234 NA
ATOM     17  C   UNL     1      -5.682  -9.988  16.361  0.00  0.00    +0.110 A 
ATOM     18  C   UNL     1      -3.546 -10.511  16.153  0.00  0.00    +0.085 A 
ATOM     19  C   UNL     1      -4.200 -10.512  14.926  0.00  0.00    +0.178 A 
ATOM     20  C   UNL     1      -2.194 -10.811  16.268  0.00  0.00    +0.031 A 
ATOM     21  C   UNL     1      -1.542 -11.112  15.074  0.00  0.00    +0.022 A 
ATOM     22  C   UNL     1      -2.262 -11.092  13.885  0.00  0.00    +0.113 A 
ATOM     25  H   UNL     1      -4.395 -10.074  18.055  0.00  0.00    +0.167 HD
ENDBRANCH  12  17
ENDBRANCH   8  12
BRANCH   7  13
ATOM     13  C   UNL     1     -11.042  -9.963  19.617  0.00  0.00    +0.085 C 
BRANCH  13   1
ATOM      1  N   UNL     1      -9.963 -10.326  20.519  0.00  0.00    -0.329 NA
ATOM     23  H   UNL     1      -9.862  -9.626  21.253  0.00  0.00    +0.118 HD
ATOM     24  H   UNL     1      -9.081 -10.324  20.008  0.00  0.00    +0.118 HD
ENDBRANCH  13   1
ENDBRANCH   7  13
TORSDOF 5
ENDMDL
MODEL 9
REMARK VINA RESULT:      -5.7      4.799      8.030
REMARK  Name = 71693012
REMARK  8 active torsions:
REMARK  status: ('A' for Active; 'I' for Inactive)
REMARK    1  A    between atoms: N_1  and  C_13
REMARK    2  A    between atoms: C_5  and  C_9
REMARK    3  A    between atoms: C_7  and  C_13
REMARK    4  A    between atoms: C_8  and  C_12
REMARK    5  A    between atoms: C_9  and  C_14
REMARK    6  A    between atoms: C_9  and  C_15
REMARK    7  A    between atoms: C_10  and  C_16
REMARK    8  A    between atoms: C_12  and  C_17
REMARK                            x       y       z     vdW  Elec       q    Type
REMARK                         _______ _______ _______ _____ _____    ______ ____
ROOT
ATOM      5  C   UNL     1      13.401   8.164  19.842  0.00  0.00    +0.000 C 
ATOM      6  C   UNL     1      14.278   7.763  21.036  0.00  0.00    +0.012 C 
ATOM      7  C   UNL     1      13.443   9.699  19.631  0.00  0.00    +0.029 C 
ATOM      8  C   UNL     1      15.747   8.190  20.851  0.00  0.00    +0.022 C 
ATOM     10  C   UNL     1      15.860   9.626  20.379  0.00  0.00    -0.073 C 
ATOM     11  C   UNL     1      14.816  10.288  19.850  0.00  0.00    -0.023 C 
ATOM     16  C   UNL     1      17.190  10.298  20.574  0.00  0.00    +0.039 C 
ENDROOT
BRANCH   5   9
ATOM      9  C   UNL     1      11.970   7.659  20.055  0.00  0.00    -0.013 C 
ATOM     14  C   UNL     1      11.974   6.400  20.917  0.00  0.00    +0.007 C 
ATOM     15  C   UNL     1      11.111   8.747  20.691  0.00  0.00    +0.007 C 
ENDBRANCH   5   9
BRANCH   8  12
ATOM     12  C   UNL     1      16.481   7.241  19.897  0.00  0.00    +0.082 C 
BRANCH  12  17
ATOM      2  N   UNL     1      18.628   5.961  19.781  0.00  0.00    -0.341 N 
ATOM      3  N   UNL     1      18.208   6.985  21.714  0.00  0.00    -0.213 NA
ATOM      4  N   UNL     1      20.229   6.288  22.865  0.00  0.00    -0.234 NA
ATOM     17  C   UNL     1      17.766   6.746  20.498  0.00  0.00    +0.110 A 
ATOM     18  C   UNL     1      19.695   5.675  20.590  0.00  0.00    +0.085 A 
ATOM     19  C   UNL     1      19.408   6.324  21.785  0.00  0.00    +0.178 A 
ATOM     20  C   UNL     1      20.859   4.935  20.415  0.00  0.00    +0.031 A 
ATOM     21  C   UNL     1      21.713   4.890  21.514  0.00  0.00    +0.022 A 
ATOM     22  C   UNL     1      21.358   5.564  22.677  0.00  0.00    +0.113 A 
ATOM     25  H   UNL     1      18.500   5.646  18.829  0.00  0.00    +0.167 HD
ENDBRANCH  12  17
ENDBRANCH   8  12
BRANCH   7  13
ATOM     13  C   UNL     1      12.940  10.081  18.234  0.00  0.00    +0.085 C 
BRANCH  13   1
ATOM      1  N   UNL     1      14.033  10.575  17.413  0.00  0.00    -0.329 NA
ATOM     23  H   UNL     1      14.069  11.593  17.446  0.00  0.00    +0.118 HD
ATOM     24  H   UNL     1      13.859  10.332  16.439  0.00  0.00    +0.118 HD
ENDBRANCH  13   1
ENDBRANCH   7  13
TORSDOF 5
ENDMDL
MODEL 10
REMARK VINA RESULT:      -5.5     25.697     27.904
REMARK  Name = 71693012
REMARK  8 active torsions:
REMARK  status: ('A' for Active; 'I' for Inactive)
REMARK    1  A    between atoms: N_1  and  C_13
REMARK    2  A    between atoms: C_5  and  C_9
REMARK    3  A    between atoms: C_7  and  C_13
REMARK    4  A    between atoms: C_8  and  C_12
REMARK    5  A    between atoms: C_9  and  C_14
REMARK    6  A    between atoms: C_9  and  C_15
REMARK    7  A    between atoms: C_10  and  C_16
REMARK    8  A    between atoms: C_12  and  C_17
REMARK                            x       y       z     vdW  Elec       q    Type
REMARK                         _______ _______ _______ _____ _____    ______ ____
ROOT
ATOM      5  C   UNL     1      21.704  -8.567   3.001  0.00  0.00    +0.000 C 
ATOM      6  C   UNL     1      22.112  -7.931   1.664  0.00  0.00    +0.012 C 
ATOM      7  C   UNL     1      22.407  -7.847   4.180  0.00  0.00    +0.029 C 
ATOM      8  C   UNL     1      21.761  -6.433   1.599  0.00  0.00    +0.022 C 
ATOM     10  C   UNL     1      22.188  -5.700   2.856  0.00  0.00    -0.073 C 
ATOM     11  C   UNL     1      22.486  -6.350   3.995  0.00  0.00    -0.023 C 
ATOM     16  C   UNL     1      22.310  -4.205   2.759  0.00  0.00    +0.039 C 
ENDROOT
BRANCH   5   9
ATOM      9  C   UNL     1      22.019 -10.066   2.981  0.00  0.00    -0.013 C 
ATOM     14  C   UNL     1      20.731 -10.881   3.054  0.00  0.00    +0.007 C 
ATOM     15  C   UNL     1      22.817 -10.425   1.733  0.00  0.00    +0.007 C 
ENDBRANCH   5   9
BRANCH   8  12
ATOM     12  C   UNL     1      20.268  -6.226   1.326  0.00  0.00    +0.082 C 
BRANCH  12  17
ATOM      2  N   UNL     1      18.786  -4.850  -0.147  0.00  0.00    -0.341 N 
ATOM      3  N   UNL     1      20.970  -4.722  -0.570  0.00  0.00    -0.213 NA
ATOM      4  N   UNL     1      20.822  -3.166  -2.427  0.00  0.00    -0.234 NA
ATOM     17  C   UNL     1      20.045  -5.264   0.195  0.00  0.00    +0.110 A 
ATOM     18  C   UNL     1      18.908  -3.986  -1.202  0.00  0.00    +0.085 A 
ATOM     19  C   UNL     1      20.276  -3.925  -1.445  0.00  0.00    +0.178 A 
ATOM     20  C   UNL     1      17.993  -3.263  -1.960  0.00  0.00    +0.031 A 
ATOM     21  C   UNL     1      18.539  -2.478  -2.972  0.00  0.00    +0.022 A 
ATOM     22  C   UNL     1      19.918  -2.468  -3.154  0.00  0.00    +0.113 A 
ATOM     25  H   UNL     1      17.922  -5.133   0.295  0.00  0.00    +0.167 HD
ENDBRANCH  12  17
ENDBRANCH   8  12
BRANCH   7  13
ATOM     13  C   UNL     1      21.717  -8.162   5.512  0.00  0.00    +0.085 C 
BRANCH  13   1
ATOM      1  N   UNL     1      22.042  -7.154   6.508  0.00  0.00    -0.329 NA
ATOM     23  H   UNL     1      22.483  -6.348   6.068  0.00  0.00    +0.118 HD
ATOM     24  H   UNL     1      22.732  -7.532   7.157  0.00  0.00    +0.118 HD
ENDBRANCH  13   1
ENDBRANCH   7  13
TORSDOF 5
ENDMDL
