MODEL 1
REMARK VINA RESULT:      -8.3      0.000      0.000
REMARK  Name = 11913055
REMARK  11 active torsions:
REMARK  status: ('A' for Active; 'I' for Inactive)
REMARK    1  A    between atoms: O_3  and  C_13
REMARK    2  A    between atoms: O_3  and  C_17
REMARK    3  A    between atoms: O_5  and  C_36
REMARK    4  A    between atoms: O_5  and  C_37
REMARK    5  A    between atoms: N_6  and  C_12
REMARK    6  A    between atoms: N_8  and  C_19
REMARK    7  A    between atoms: C_18  and  C_21
REMARK    8  A    between atoms: C_18  and  C_26
REMARK    9  A    between atoms: C_18  and  C_27
REMARK   10  A    between atoms: C_18  and  C_28
REMARK   11  A    between atoms: C_20  and  C_31
REMARK                            x       y       z     vdW  Elec       q    Type
REMARK                         _______ _______ _______ _____ _____    ______ ____
ROOT
ATOM      1  O   UNL     1      -4.693  -9.030  10.074  0.00  0.00    -0.368 OA
ATOM      2  O   UNL     1      -6.180 -11.683  10.479  0.00  0.00    -0.368 OA
ATOM     10  C   UNL     1      -4.798 -11.319  10.683  0.00  0.00    +0.173 C 
ATOM     11  C   UNL     1      -4.431 -10.351   9.575  0.00  0.00    +0.192 C 
ATOM     12  C   UNL     1      -4.660 -10.500  11.945  0.00  0.00    +0.130 C 
ATOM     13  C   UNL     1      -5.392 -10.734   8.475  0.00  0.00    +0.235 C 
ATOM     14  C   UNL     1      -5.029  -9.106  11.469  0.00  0.00    +0.185 C 
ATOM     15  C   UNL     1      -6.637 -11.098   9.251  0.00  0.00    +0.207 C 
ENDROOT
BRANCH  12   6
ATOM      6  N   UNL     1      -3.290 -10.524  12.412  0.00  0.00    -0.306 N 
ATOM      7  N   UNL     1      -3.950 -10.589  14.637  0.00  0.00    -0.214 NA
ATOM      9  N   UNL     1      -1.620 -10.590  14.023  0.00  0.00    -0.223 NA
ATOM     16  C   UNL     1      -2.938 -10.570  13.749  0.00  0.00    +0.216 A 
ATOM     20  C   UNL     1      -3.571 -10.632  15.931  0.00  0.00    +0.076 A 
ATOM     22  C   UNL     1      -1.312 -10.634  15.337  0.00  0.00    +0.116 A 
ATOM     23  C   UNL     1      -2.254 -10.657  16.344  0.00  0.00    +0.048 A 
ATOM     38  H   UNL     1      -2.535 -10.563  11.737  0.00  0.00    +0.149 HD
BRANCH  20  31
ATOM     31  C   UNL     1      -4.653 -10.654  16.887  0.00  0.00    +0.001 A 
ATOM     32  C   UNL     1      -5.866 -10.038  16.578  0.00  0.00    +0.013 A 
ATOM     33  C   UNL     1      -4.487 -11.289  18.117  0.00  0.00    +0.013 A 
ATOM     34  C   UNL     1      -6.913 -10.057  17.500  0.00  0.00    +0.046 A 
ATOM     35  C   UNL     1      -5.533 -11.309  19.039  0.00  0.00    +0.046 A 
ATOM     36  C   UNL     1      -6.746 -10.693  18.730  0.00  0.00    +0.120 A 
BRANCH  36   5
ATOM      5  O   UNL     1      -7.768 -10.713  19.629  0.00  0.00    -0.495 OA
ATOM     37  C   UNL     1      -9.072 -10.995  19.122  0.00  0.00    +0.277 C 
ENDBRANCH  36   5
ENDBRANCH  20  31
ENDBRANCH  12   6
BRANCH  13   3
ATOM      3  O   UNL     1      -5.627  -9.698   7.548  0.00  0.00    -0.442 OA
BRANCH   3  17
ATOM      4  O   UNL     1      -7.764  -9.667   6.736  0.00  0.00    -0.226 OA
ATOM      8  N   UNL     1      -7.043  -8.142   8.359  0.00  0.00    -0.251 N 
ATOM     17  C   UNL     1      -6.911  -9.200   7.480  0.00  0.00    +0.405 C 
ATOM     39  H   UNL     1      -6.215  -7.899   8.897  0.00  0.00    +0.158 HD
BRANCH   8  19
ATOM     19  C   UNL     1      -8.189  -7.350   8.602  0.00  0.00    +0.036 A 
ATOM     21  C   UNL     1     -10.449  -5.787   9.082  0.00  0.00    -0.042 A 
ATOM     24  C   UNL     1      -8.196  -6.005   8.236  0.00  0.00    +0.024 A 
ATOM     25  C   UNL     1      -9.311  -7.915   9.208  0.00  0.00    +0.024 A 
ATOM     29  C   UNL     1      -9.326  -5.223   8.476  0.00  0.00    +0.006 A 
ATOM     30  C   UNL     1     -10.441  -7.133   9.448  0.00  0.00    +0.006 A 
BRANCH  21  18
ATOM     18  C   UNL     1     -11.657  -4.951   9.338  0.00  0.00    -0.013 C 
ATOM     26  C   UNL     1     -12.119  -4.876  10.831  0.00  0.00    +0.015 C 
ATOM     27  C   UNL     1     -11.424  -3.471   8.902  0.00  0.00    +0.015 C 
ATOM     28  C   UNL     1     -12.892  -5.485   8.547  0.00  0.00    +0.015 C 
ENDBRANCH  21  18
ENDBRANCH   8  19
ENDBRANCH   3  17
ENDBRANCH  13   3
TORSDOF 7
ENDMDL
MODEL 2
REMARK VINA RESULT:      -7.9      4.074      6.983
REMARK  Name = 11913055
REMARK  11 active torsions:
REMARK  status: ('A' for Active; 'I' for Inactive)
REMARK    1  A    between atoms: O_3  and  C_13
REMARK    2  A    between atoms: O_3  and  C_17
REMARK    3  A    between atoms: O_5  and  C_36
REMARK    4  A    between atoms: O_5  and  C_37
REMARK    5  A    between atoms: N_6  and  C_12
REMARK    6  A    between atoms: N_8  and  C_19
REMARK    7  A    between atoms: C_18  and  C_21
REMARK    8  A    between atoms: C_18  and  C_26
REMARK    9  A    between atoms: C_18  and  C_27
REMARK   10  A    between atoms: C_18  and  C_28
REMARK   11  A    between atoms: C_20  and  C_31
REMARK                            x       y       z     vdW  Elec       q    Type
REMARK                         _______ _______ _______ _____ _____    ______ ____
ROOT
ATOM      1  O   UNL     1     -11.385  -8.670  17.536  0.00  0.00    -0.368 OA
ATOM      2  O   UNL     1      -9.435  -8.734  15.168  0.00  0.00    -0.368 OA
ATOM     10  C   UNL     1      -9.214  -8.814  16.592  0.00  0.00    +0.173 C 
ATOM     11  C   UNL     1     -10.219  -7.885  17.245  0.00  0.00    +0.192 C 
ATOM     12  C   UNL     1      -9.602 -10.184  17.099  0.00  0.00    +0.130 C 
ATOM     13  C   UNL     1     -10.484  -6.873  16.155  0.00  0.00    +0.235 C 
ATOM     14  C   UNL     1     -11.105 -10.054  17.269  0.00  0.00    +0.185 C 
ATOM     15  C   UNL     1     -10.420  -7.725  14.907  0.00  0.00    +0.207 C 
ENDROOT
BRANCH  12   6
ATOM      6  N   UNL     1      -8.973 -10.442  18.378  0.00  0.00    -0.306 N 
ATOM      7  N   UNL     1      -6.866 -10.603  17.416  0.00  0.00    -0.214 NA
ATOM      9  N   UNL     1      -7.181 -10.875  19.789  0.00  0.00    -0.223 NA
ATOM     16  C   UNL     1      -7.614 -10.649  18.534  0.00  0.00    +0.216 A 
ATOM     20  C   UNL     1      -5.546 -10.811  17.604  0.00  0.00    +0.076 A 
ATOM     22  C   UNL     1      -5.851 -11.074  19.905  0.00  0.00    +0.116 A 
ATOM     23  C   UNL     1      -4.977 -11.052  18.838  0.00  0.00    +0.048 A 
ATOM     38  H   UNL     1      -9.535 -10.423  19.221  0.00  0.00    +0.149 HD
BRANCH  20  31
ATOM     31  C   UNL     1      -4.740 -10.761  16.408  0.00  0.00    +0.001 A 
ATOM     32  C   UNL     1      -3.355 -10.910  16.495  0.00  0.00    +0.013 A 
ATOM     33  C   UNL     1      -5.343 -10.562  15.166  0.00  0.00    +0.013 A 
ATOM     34  C   UNL     1      -2.575 -10.861  15.339  0.00  0.00    +0.046 A 
ATOM     35  C   UNL     1      -4.563 -10.514  14.011  0.00  0.00    +0.046 A 
ATOM     36  C   UNL     1      -3.179 -10.662  14.098  0.00  0.00    +0.120 A 
BRANCH  36   5
ATOM      5  O   UNL     1      -2.417 -10.617  12.971  0.00  0.00    -0.495 OA
ATOM     37  C   UNL     1      -2.910 -11.310  11.826  0.00  0.00    +0.277 C 
ENDBRANCH  36   5
ENDBRANCH  20  31
ENDBRANCH  12   6
BRANCH  13   3
ATOM      3  O   UNL     1     -11.724  -6.215  16.287  0.00  0.00    -0.442 OA
BRANCH   3  17
ATOM      4  O   UNL     1     -13.301  -7.050  14.858  0.00  0.00    -0.226 OA
ATOM      8  N   UNL     1     -12.289  -4.970  14.495  0.00  0.00    -0.251 N 
ATOM     17  C   UNL     1     -12.522  -6.156  15.164  0.00  0.00    +0.405 C 
ATOM     39  H   UNL     1     -11.599  -4.348  14.908  0.00  0.00    +0.158 HD
BRANCH   8  19
ATOM     19  C   UNL     1     -12.893  -4.512  13.301  0.00  0.00    +0.036 A 
ATOM     21  C   UNL     1     -14.087  -3.611  10.946  0.00  0.00    -0.042 A 
ATOM     24  C   UNL     1     -14.200  -4.025  13.324  0.00  0.00    +0.024 A 
ATOM     25  C   UNL     1     -12.184  -4.549  12.101  0.00  0.00    +0.024 A 
ATOM     29  C   UNL     1     -14.796  -3.574  12.147  0.00  0.00    +0.006 A 
ATOM     30  C   UNL     1     -12.780  -4.098  10.924  0.00  0.00    +0.006 A 
BRANCH  21  18
ATOM     18  C   UNL     1     -14.725  -3.127   9.688  0.00  0.00    -0.013 C 
ATOM     26  C   UNL     1     -13.738  -2.778   8.526  0.00  0.00    +0.015 C 
ATOM     27  C   UNL     1     -15.697  -4.197   9.100  0.00  0.00    +0.015 C 
ATOM     28  C   UNL     1     -15.551  -1.827   9.936  0.00  0.00    +0.015 C 
ENDBRANCH  21  18
ENDBRANCH   8  19
ENDBRANCH   3  17
ENDBRANCH  13   3
TORSDOF 7
ENDMDL
MODEL 3
REMARK VINA RESULT:      -7.9      3.599      6.405
REMARK  Name = 11913055
REMARK  11 active torsions:
REMARK  status: ('A' for Active; 'I' for Inactive)
REMARK    1  A    between atoms: O_3  and  C_13
REMARK    2  A    between atoms: O_3  and  C_17
REMARK    3  A    between atoms: O_5  and  C_36
REMARK    4  A    between atoms: O_5  and  C_37
REMARK    5  A    between atoms: N_6  and  C_12
REMARK    6  A    between atoms: N_8  and  C_19
REMARK    7  A    between atoms: C_18  and  C_21
REMARK    8  A    between atoms: C_18  and  C_26
REMARK    9  A    between atoms: C_18  and  C_27
REMARK   10  A    between atoms: C_18  and  C_28
REMARK   11  A    between atoms: C_20  and  C_31
REMARK                            x       y       z     vdW  Elec       q    Type
REMARK                         _______ _______ _______ _____ _____    ______ ____
ROOT
ATOM      1  O   UNL     1      -4.977  -9.083  10.169  0.00  0.00    -0.368 OA
ATOM      2  O   UNL     1      -6.424 -11.744  10.662  0.00  0.00    -0.368 OA
ATOM     10  C   UNL     1      -5.037 -11.368  10.802  0.00  0.00    +0.173 C 
ATOM     11  C   UNL     1      -4.727 -10.406   9.671  0.00  0.00    +0.192 C 
ATOM     12  C   UNL     1      -4.850 -10.536  12.049  0.00  0.00    +0.130 C 
ATOM     13  C   UNL     1      -5.733 -10.807   8.618  0.00  0.00    +0.235 C 
ATOM     14  C   UNL     1      -5.251  -9.149  11.578  0.00  0.00    +0.185 C 
ATOM     15  C   UNL     1      -6.940 -11.174   9.451  0.00  0.00    +0.207 C 
ENDROOT
BRANCH  12   6
ATOM      6  N   UNL     1      -3.461 -10.546  12.456  0.00  0.00    -0.306 N 
ATOM      7  N   UNL     1      -4.021 -10.624  14.707  0.00  0.00    -0.214 NA
ATOM      9  N   UNL     1      -1.721 -10.597  13.992  0.00  0.00    -0.223 NA
ATOM     16  C   UNL     1      -3.049 -10.591  13.776  0.00  0.00    +0.216 A 
ATOM     20  C   UNL     1      -3.585 -10.666  15.984  0.00  0.00    +0.076 A 
ATOM     22  C   UNL     1      -1.355 -10.640  15.290  0.00  0.00    +0.116 A 
ATOM     23  C   UNL     1      -2.252 -10.677  16.338  0.00  0.00    +0.048 A 
ATOM     38  H   UNL     1      -2.736 -10.574  11.748  0.00  0.00    +0.149 HD
BRANCH  20  31
ATOM     31  C   UNL     1      -4.624 -10.703  16.985  0.00  0.00    +0.001 A 
ATOM     32  C   UNL     1      -5.845 -10.072  16.745  0.00  0.00    +0.013 A 
ATOM     33  C   UNL     1      -4.408 -11.368  18.192  0.00  0.00    +0.013 A 
ATOM     34  C   UNL     1      -6.849 -10.106  17.713  0.00  0.00    +0.046 A 
ATOM     35  C   UNL     1      -5.413 -11.402  19.159  0.00  0.00    +0.046 A 
ATOM     36  C   UNL     1      -6.633 -10.771  18.919  0.00  0.00    +0.120 A 
BRANCH  36   5
ATOM      5  O   UNL     1      -7.615 -10.806  19.862  0.00  0.00    -0.495 OA
ATOM     37  C   UNL     1      -8.886 -11.311  19.457  0.00  0.00    +0.277 C 
ENDBRANCH  36   5
ENDBRANCH  20  31
ENDBRANCH  12   6
BRANCH  13   3
ATOM      3  O   UNL     1      -6.017  -9.781   7.693  0.00  0.00    -0.442 OA
BRANCH   3  17
ATOM      4  O   UNL     1      -6.427  -9.458   5.467  0.00  0.00    -0.226 OA
ATOM      8  N   UNL     1      -5.023 -11.172   6.222  0.00  0.00    -0.251 N 
ATOM     17  C   UNL     1      -5.869 -10.088   6.356  0.00  0.00    +0.405 C 
ATOM     39  H   UNL     1      -4.653 -11.564   7.084  0.00  0.00    +0.158 HD
BRANCH   8  19
ATOM     19  C   UNL     1      -4.606 -11.808   5.030  0.00  0.00    +0.036 A 
ATOM     21  C   UNL     1      -3.786 -13.064   2.678  0.00  0.00    -0.042 A 
ATOM     24  C   UNL     1      -5.538 -12.100   4.034  0.00  0.00    +0.024 A 
ATOM     25  C   UNL     1      -3.264 -12.143   4.850  0.00  0.00    +0.024 A 
ATOM     29  C   UNL     1      -5.128 -12.728   2.858  0.00  0.00    +0.006 A 
ATOM     30  C   UNL     1      -2.854 -12.771   3.674  0.00  0.00    +0.006 A 
BRANCH  21  18
ATOM     18  C   UNL     1      -3.348 -13.734   1.420  0.00  0.00    -0.013 C 
ATOM     26  C   UNL     1      -3.581 -12.917   0.106  0.00  0.00    +0.015 C 
ATOM     27  C   UNL     1      -1.819 -14.046   1.448  0.00  0.00    +0.015 C 
ATOM     28  C   UNL     1      -4.099 -15.085   1.207  0.00  0.00    +0.015 C 
ENDBRANCH  21  18
ENDBRANCH   8  19
ENDBRANCH   3  17
ENDBRANCH  13   3
TORSDOF 7
ENDMDL
MODEL 4
REMARK VINA RESULT:      -7.5      4.289     11.251
REMARK  Name = 11913055
REMARK  11 active torsions:
REMARK  status: ('A' for Active; 'I' for Inactive)
REMARK    1  A    between atoms: O_3  and  C_13
REMARK    2  A    between atoms: O_3  and  C_17
REMARK    3  A    between atoms: O_5  and  C_36
REMARK    4  A    between atoms: O_5  and  C_37
REMARK    5  A    between atoms: N_6  and  C_12
REMARK    6  A    between atoms: N_8  and  C_19
REMARK    7  A    between atoms: C_18  and  C_21
REMARK    8  A    between atoms: C_18  and  C_26
REMARK    9  A    between atoms: C_18  and  C_27
REMARK   10  A    between atoms: C_18  and  C_28
REMARK   11  A    between atoms: C_20  and  C_31
REMARK                            x       y       z     vdW  Elec       q    Type
REMARK                         _______ _______ _______ _____ _____    ______ ____
ROOT
ATOM      1  O   UNL     1      -9.034  -5.714   8.724  0.00  0.00    -0.368 OA
ATOM      2  O   UNL     1     -11.422  -6.512   6.970  0.00  0.00    -0.368 OA
ATOM     10  C   UNL     1     -11.221  -6.572   8.398  0.00  0.00    +0.173 C 
ATOM     11  C   UNL     1      -9.768  -6.944   8.621  0.00  0.00    +0.192 C 
ATOM     12  C   UNL     1     -11.340  -5.190   8.996  0.00  0.00    +0.130 C 
ATOM     13  C   UNL     1      -9.426  -7.695   7.355  0.00  0.00    +0.235 C 
ATOM     14  C   UNL     1      -9.956  -4.612   8.756  0.00  0.00    +0.185 C 
ATOM     15  C   UNL     1     -10.222  -6.943   6.313  0.00  0.00    +0.207 C 
ENDROOT
BRANCH  12   6
ATOM      6  N   UNL     1     -11.607  -5.279  10.416  0.00  0.00    -0.306 N 
ATOM      7  N   UNL     1     -13.380  -3.788  10.273  0.00  0.00    -0.214 NA
ATOM      9  N   UNL     1     -12.743  -4.774  12.377  0.00  0.00    -0.223 NA
ATOM     16  C   UNL     1     -12.621  -4.584  11.050  0.00  0.00    +0.216 A 
ATOM     20  C   UNL     1     -14.358  -3.123  10.923  0.00  0.00    +0.076 A 
ATOM     22  C   UNL     1     -13.742  -4.080  12.962  0.00  0.00    +0.116 A 
ATOM     23  C   UNL     1     -14.589  -3.232  12.279  0.00  0.00    +0.048 A 
ATOM     38  H   UNL     1     -11.065  -5.920  10.985  0.00  0.00    +0.149 HD
BRANCH  20  31
ATOM     31  C   UNL     1     -15.176  -2.270  10.093  0.00  0.00    +0.001 A 
ATOM     32  C   UNL     1     -14.970  -2.237   8.713  0.00  0.00    +0.013 A 
ATOM     33  C   UNL     1     -16.168  -1.478  10.669  0.00  0.00    +0.013 A 
ATOM     34  C   UNL     1     -15.758  -1.412   7.910  0.00  0.00    +0.046 A 
ATOM     35  C   UNL     1     -16.957  -0.654   9.866  0.00  0.00    +0.046 A 
ATOM     36  C   UNL     1     -16.751  -0.621   8.487  0.00  0.00    +0.120 A 
BRANCH  36   5
ATOM      5  O   UNL     1     -17.521   0.182   7.702  0.00  0.00    -0.495 OA
ATOM     37  C   UNL     1     -17.241   0.184   6.304  0.00  0.00    +0.277 C 
ENDBRANCH  36   5
ENDBRANCH  20  31
ENDBRANCH  12   6
BRANCH  13   3
ATOM      3  O   UNL     1      -8.046  -7.706   7.065  0.00  0.00    -0.442 OA
BRANCH   3  17
ATOM      4  O   UNL     1      -7.326  -9.854   7.369  0.00  0.00    -0.226 OA
ATOM      8  N   UNL     1      -6.515  -8.088   8.675  0.00  0.00    -0.251 N 
ATOM     17  C   UNL     1      -7.285  -8.672   7.687  0.00  0.00    +0.405 C 
ATOM     39  H   UNL     1      -6.618  -7.083   8.791  0.00  0.00    +0.158 HD
BRANCH   8  19
ATOM     19  C   UNL     1      -5.598  -8.717   9.550  0.00  0.00    +0.036 A 
ATOM     21  C   UNL     1      -3.789  -9.959  11.272  0.00  0.00    -0.042 A 
ATOM     24  C   UNL     1      -4.276  -8.909   9.151  0.00  0.00    +0.024 A 
ATOM     25  C   UNL     1      -6.017  -9.146  10.809  0.00  0.00    +0.024 A 
ATOM     29  C   UNL     1      -3.371  -9.529  10.013  0.00  0.00    +0.006 A 
ATOM     30  C   UNL     1      -5.113  -9.767  11.670  0.00  0.00    +0.006 A 
BRANCH  21  18
ATOM     18  C   UNL     1      -2.822 -10.621  12.193  0.00  0.00    -0.013 C 
ATOM     26  C   UNL     1      -3.163 -10.514  13.717  0.00  0.00    +0.015 C 
ATOM     27  C   UNL     1      -2.717 -12.150  11.899  0.00  0.00    +0.015 C 
ATOM     28  C   UNL     1      -1.392 -10.014  12.045  0.00  0.00    +0.015 C 
ENDBRANCH  21  18
ENDBRANCH   8  19
ENDBRANCH   3  17
ENDBRANCH  13   3
TORSDOF 7
ENDMDL
MODEL 5
REMARK VINA RESULT:      -7.5      7.619     11.674
REMARK  Name = 11913055
REMARK  11 active torsions:
REMARK  status: ('A' for Active; 'I' for Inactive)
REMARK    1  A    between atoms: O_3  and  C_13
REMARK    2  A    between atoms: O_3  and  C_17
REMARK    3  A    between atoms: O_5  and  C_36
REMARK    4  A    between atoms: O_5  and  C_37
REMARK    5  A    between atoms: N_6  and  C_12
REMARK    6  A    between atoms: N_8  and  C_19
REMARK    7  A    between atoms: C_18  and  C_21
REMARK    8  A    between atoms: C_18  and  C_26
REMARK    9  A    between atoms: C_18  and  C_27
REMARK   10  A    between atoms: C_18  and  C_28
REMARK   11  A    between atoms: C_20  and  C_31
REMARK                            x       y       z     vdW  Elec       q    Type
REMARK                         _______ _______ _______ _____ _____    ______ ____
ROOT
ATOM      1  O   UNL     1      -5.066 -13.320   4.021  0.00  0.00    -0.368 OA
ATOM      2  O   UNL     1      -2.618 -12.956   5.834  0.00  0.00    -0.368 OA
ATOM     10  C   UNL     1      -3.678 -12.049   5.464  0.00  0.00    +0.173 C 
ATOM     11  C   UNL     1      -4.017 -12.340   4.014  0.00  0.00    +0.192 C 
ATOM     12  C   UNL     1      -4.943 -12.399   6.212  0.00  0.00    +0.130 C 
ATOM     13  C   UNL     1      -2.722 -12.908   3.484  0.00  0.00    +0.235 C 
ATOM     14  C   UNL     1      -5.517 -13.525   5.369  0.00  0.00    +0.185 C 
ATOM     15  C   UNL     1      -2.207 -13.689   4.672  0.00  0.00    +0.207 C 
ENDROOT
BRANCH  12   6
ATOM      6  N   UNL     1      -5.848 -11.270   6.223  0.00  0.00    -0.306 N 
ATOM      7  N   UNL     1      -5.116 -10.583   8.317  0.00  0.00    -0.214 NA
ATOM      9  N   UNL     1      -6.823  -9.367   7.129  0.00  0.00    -0.223 NA
ATOM     16  C   UNL     1      -5.933 -10.367   7.269  0.00  0.00    +0.216 A 
ATOM     20  C   UNL     1      -5.225  -9.686   9.318  0.00  0.00    +0.076 A 
ATOM     22  C   UNL     1      -6.880  -8.506   8.167  0.00  0.00    +0.116 A 
ATOM     23  C   UNL     1      -6.097  -8.617   9.298  0.00  0.00    +0.048 A 
ATOM     38  H   UNL     1      -6.422 -11.084   5.409  0.00  0.00    +0.149 HD
BRANCH  20  31
ATOM     31  C   UNL     1      -4.349  -9.913  10.444  0.00  0.00    +0.001 A 
ATOM     32  C   UNL     1      -4.865 -10.428  11.634  0.00  0.00    +0.013 A 
ATOM     33  C   UNL     1      -2.990  -9.618  10.343  0.00  0.00    +0.013 A 
ATOM     34  C   UNL     1      -4.021 -10.646  12.722  0.00  0.00    +0.046 A 
ATOM     35  C   UNL     1      -2.146  -9.837  11.431  0.00  0.00    +0.046 A 
ATOM     36  C   UNL     1      -2.661 -10.351  12.621  0.00  0.00    +0.120 A 
BRANCH  36   5
ATOM      5  O   UNL     1      -1.837 -10.567  13.683  0.00  0.00    -0.495 OA
ATOM     37  C   UNL     1      -2.457 -10.810  14.945  0.00  0.00    +0.277 C 
ENDBRANCH  36   5
ENDBRANCH  20  31
ENDBRANCH  12   6
BRANCH  13   3
ATOM      3  O   UNL     1      -2.891 -13.722   2.345  0.00  0.00    -0.442 OA
BRANCH   3  17
ATOM      4  O   UNL     1      -1.873 -15.730   1.941  0.00  0.00    -0.226 OA
ATOM      8  N   UNL     1      -0.742 -13.699   1.665  0.00  0.00    -0.251 N 
ATOM     17  C   UNL     1      -1.819 -14.506   1.974  0.00  0.00    +0.405 C 
ATOM     39  H   UNL     1      -0.891 -12.697   1.752  0.00  0.00    +0.158 HD
BRANCH   8  19
ATOM     19  C   UNL     1       0.548 -14.094   1.241  0.00  0.00    +0.036 A 
ATOM     21  C   UNL     1       3.095 -14.871   0.408  0.00  0.00    -0.042 A 
ATOM     24  C   UNL     1       1.477 -14.555   2.174  0.00  0.00    +0.024 A 
ATOM     25  C   UNL     1       0.893 -14.020  -0.108  0.00  0.00    +0.024 A 
ATOM     29  C   UNL     1       2.750 -14.944   1.757  0.00  0.00    +0.006 A 
ATOM     30  C   UNL     1       2.166 -14.409  -0.525  0.00  0.00    +0.006 A 
BRANCH  21  18
ATOM     18  C   UNL     1       4.455 -15.288  -0.037  0.00  0.00    -0.013 C 
ATOM     26  C   UNL     1       4.490 -16.373  -1.164  0.00  0.00    +0.015 C 
ATOM     27  C   UNL     1       5.261 -14.077  -0.604  0.00  0.00    +0.015 C 
ATOM     28  C   UNL     1       5.278 -15.889   1.144  0.00  0.00    +0.015 C 
ENDBRANCH  21  18
ENDBRANCH   8  19
ENDBRANCH   3  17
ENDBRANCH  13   3
TORSDOF 7
ENDMDL
MODEL 6
REMARK VINA RESULT:      -7.4      2.758      3.227
REMARK  Name = 11913055
REMARK  11 active torsions:
REMARK  status: ('A' for Active; 'I' for Inactive)
REMARK    1  A    between atoms: O_3  and  C_13
REMARK    2  A    between atoms: O_3  and  C_17
REMARK    3  A    between atoms: O_5  and  C_36
REMARK    4  A    between atoms: O_5  and  C_37
REMARK    5  A    between atoms: N_6  and  C_12
REMARK    6  A    between atoms: N_8  and  C_19
REMARK    7  A    between atoms: C_18  and  C_21
REMARK    8  A    between atoms: C_18  and  C_26
REMARK    9  A    between atoms: C_18  and  C_27
REMARK   10  A    between atoms: C_18  and  C_28
REMARK   11  A    between atoms: C_20  and  C_31
REMARK                            x       y       z     vdW  Elec       q    Type
REMARK                         _______ _______ _______ _____ _____    ______ ____
ROOT
ATOM      1  O   UNL     1      -4.474  -8.970  10.156  0.00  0.00    -0.368 OA
ATOM      2  O   UNL     1      -6.098 -11.557  10.444  0.00  0.00    -0.368 OA
ATOM     10  C   UNL     1      -4.706 -11.269  10.691  0.00  0.00    +0.173 C 
ATOM     11  C   UNL     1      -4.265 -10.286   9.623  0.00  0.00    +0.192 C 
ATOM     12  C   UNL     1      -4.559 -10.495  11.981  0.00  0.00    +0.130 C 
ATOM     13  C   UNL     1      -5.216 -10.589   8.490  0.00  0.00    +0.235 C 
ATOM     14  C   UNL     1      -4.847  -9.071  11.540  0.00  0.00    +0.185 C 
ATOM     15  C   UNL     1      -6.497 -10.913   9.225  0.00  0.00    +0.207 C 
ENDROOT
BRANCH  12   6
ATOM      6  N   UNL     1      -3.203 -10.602  12.478  0.00  0.00    -0.306 N 
ATOM      7  N   UNL     1      -3.916 -10.639  14.688  0.00  0.00    -0.214 NA
ATOM      9  N   UNL     1      -1.577 -10.773  14.126  0.00  0.00    -0.223 NA
ATOM     16  C   UNL     1      -2.885 -10.675  13.822  0.00  0.00    +0.216 A 
ATOM     20  C   UNL     1      -3.570 -10.711  15.990  0.00  0.00    +0.076 A 
ATOM     22  C   UNL     1      -1.302 -10.841  15.446  0.00  0.00    +0.116 A 
ATOM     23  C   UNL     1      -2.267 -10.815  16.432  0.00  0.00    +0.048 A 
ATOM     38  H   UNL     1      -2.437 -10.680  11.820  0.00  0.00    +0.149 HD
BRANCH  20  31
ATOM     31  C   UNL     1      -4.673 -10.675  16.920  0.00  0.00    +0.001 A 
ATOM     32  C   UNL     1      -5.849 -10.007  16.579  0.00  0.00    +0.013 A 
ATOM     33  C   UNL     1      -4.563 -11.306  18.159  0.00  0.00    +0.013 A 
ATOM     34  C   UNL     1      -6.916  -9.970  17.478  0.00  0.00    +0.046 A 
ATOM     35  C   UNL     1      -5.630 -11.270  19.057  0.00  0.00    +0.046 A 
ATOM     36  C   UNL     1      -6.805 -10.602  18.717  0.00  0.00    +0.120 A 
BRANCH  36   5
ATOM      5  O   UNL     1      -7.848 -10.567  19.592  0.00  0.00    -0.495 OA
ATOM     37  C   UNL     1      -9.126 -10.960  19.094  0.00  0.00    +0.277 C 
ENDBRANCH  36   5
ENDBRANCH  20  31
ENDBRANCH  12   6
BRANCH  13   3
ATOM      3  O   UNL     1      -5.377  -9.515   7.590  0.00  0.00    -0.442 OA
BRANCH   3  17
ATOM      4  O   UNL     1      -6.540 -10.737   6.047  0.00  0.00    -0.226 OA
ATOM      8  N   UNL     1      -6.950  -8.455   6.370  0.00  0.00    -0.251 N 
ATOM     17  C   UNL     1      -6.326  -9.666   6.601  0.00  0.00    +0.405 C 
ATOM     39  H   UNL     1      -6.634  -7.671   6.935  0.00  0.00    +0.158 HD
BRANCH   8  19
ATOM     19  C   UNL     1      -7.977  -8.169   5.442  0.00  0.00    +0.036 A 
ATOM     21  C   UNL     1     -10.006  -7.606   3.611  0.00  0.00    -0.042 A 
ATOM     24  C   UNL     1      -9.289  -8.001   5.884  0.00  0.00    +0.024 A 
ATOM     25  C   UNL     1      -7.679  -8.055   4.084  0.00  0.00    +0.024 A 
ATOM     29  C   UNL     1     -10.303  -7.720   4.969  0.00  0.00    +0.006 A 
ATOM     30  C   UNL     1      -8.693  -7.774   3.168  0.00  0.00    +0.006 A 
BRANCH  21  18
ATOM     18  C   UNL     1     -11.090  -7.304   2.633  0.00  0.00    -0.013 C 
ATOM     26  C   UNL     1     -12.416  -6.748   3.250  0.00  0.00    +0.015 C 
ATOM     27  C   UNL     1     -10.633  -6.230   1.597  0.00  0.00    +0.015 C 
ATOM     28  C   UNL     1     -11.505  -8.579   1.836  0.00  0.00    +0.015 C 
ENDBRANCH  21  18
ENDBRANCH   8  19
ENDBRANCH   3  17
ENDBRANCH  13   3
TORSDOF 7
ENDMDL
MODEL 7
REMARK VINA RESULT:      -7.1     27.517     30.637
REMARK  Name = 11913055
REMARK  11 active torsions:
REMARK  status: ('A' for Active; 'I' for Inactive)
REMARK    1  A    between atoms: O_3  and  C_13
REMARK    2  A    between atoms: O_3  and  C_17
REMARK    3  A    between atoms: O_5  and  C_36
REMARK    4  A    between atoms: O_5  and  C_37
REMARK    5  A    between atoms: N_6  and  C_12
REMARK    6  A    between atoms: N_8  and  C_19
REMARK    7  A    between atoms: C_18  and  C_21
REMARK    8  A    between atoms: C_18  and  C_26
REMARK    9  A    between atoms: C_18  and  C_27
REMARK   10  A    between atoms: C_18  and  C_28
REMARK   11  A    between atoms: C_20  and  C_31
REMARK                            x       y       z     vdW  Elec       q    Type
REMARK                         _______ _______ _______ _____ _____    ______ ____
ROOT
ATOM      1  O   UNL     1      13.796   7.710  21.639  0.00  0.00    -0.368 OA
ATOM      2  O   UNL     1      14.404   7.326  18.657  0.00  0.00    -0.368 OA
ATOM     10  C   UNL     1      14.769   8.373  19.580  0.00  0.00    +0.173 C 
ATOM     11  C   UNL     1      13.586   8.570  20.509  0.00  0.00    +0.192 C 
ATOM     12  C   UNL     1      15.874   7.895  20.494  0.00  0.00    +0.130 C 
ATOM     13  C   UNL     1      12.425   8.107  19.661  0.00  0.00    +0.235 C 
ATOM     14  C   UNL     1      15.107   7.128  21.557  0.00  0.00    +0.185 C 
ATOM     15  C   UNL     1      13.035   6.963  18.883  0.00  0.00    +0.207 C 
ENDROOT
BRANCH  12   6
ATOM      6  N   UNL     1      16.559   9.025  21.086  0.00  0.00    -0.306 N 
ATOM      7  N   UNL     1      18.499   7.793  21.421  0.00  0.00    -0.214 NA
ATOM      9  N   UNL     1      18.361  10.109  22.068  0.00  0.00    -0.223 NA
ATOM     16  C   UNL     1      17.863   8.974  21.545  0.00  0.00    +0.216 A 
ATOM     20  C   UNL     1      19.767   7.778  21.880  0.00  0.00    +0.076 A 
ATOM     22  C   UNL     1      19.635  10.024  22.507  0.00  0.00    +0.116 A 
ATOM     23  C   UNL     1      20.394   8.874  22.437  0.00  0.00    +0.048 A 
ATOM     38  H   UNL     1      16.093   9.923  21.127  0.00  0.00    +0.149 HD
BRANCH  20  31
ATOM     31  C   UNL     1      20.452   6.514  21.748  0.00  0.00    +0.001 A 
ATOM     32  C   UNL     1      21.403   6.135  22.697  0.00  0.00    +0.013 A 
ATOM     33  C   UNL     1      20.166   5.673  20.674  0.00  0.00    +0.013 A 
ATOM     34  C   UNL     1      22.067   4.915  22.570  0.00  0.00    +0.046 A 
ATOM     35  C   UNL     1      20.830   4.452  20.547  0.00  0.00    +0.046 A 
ATOM     36  C   UNL     1      21.780   4.074  21.495  0.00  0.00    +0.120 A 
BRANCH  36   5
ATOM      5  O   UNL     1      22.427   2.882  21.373  0.00  0.00    -0.495 OA
ATOM     37  C   UNL     1      23.368   2.548  22.392  0.00  0.00    +0.277 C 
ENDBRANCH  36   5
ENDBRANCH  20  31
ENDBRANCH  12   6
BRANCH  13   3
ATOM      3  O   UNL     1      11.306   7.700  20.416  0.00  0.00    -0.442 OA
BRANCH   3  17
ATOM      4  O   UNL     1      10.222   8.131  22.383  0.00  0.00    -0.226 OA
ATOM      8  N   UNL     1      11.448   9.784  21.265  0.00  0.00    -0.251 N 
ATOM     17  C   UNL     1      10.923   8.520  21.456  0.00  0.00    +0.405 C 
ATOM     39  H   UNL     1      12.011   9.915  20.429  0.00  0.00    +0.158 HD
BRANCH   8  19
ATOM     19  C   UNL     1      11.300  10.922  22.091  0.00  0.00    +0.036 A 
ATOM     21  C   UNL     1      11.003  13.166  23.722  0.00  0.00    -0.042 A 
ATOM     24  C   UNL     1      11.127  10.766  23.466  0.00  0.00    +0.024 A 
ATOM     25  C   UNL     1      11.324  12.199  21.531  0.00  0.00    +0.024 A 
ATOM     29  C   UNL     1      10.979  11.888  24.281  0.00  0.00    +0.006 A 
ATOM     30  C   UNL     1      11.176  13.321  22.346  0.00  0.00    +0.006 A 
BRANCH  21  18
ATOM     18  C   UNL     1      10.847  14.365  24.594  0.00  0.00    -0.013 C 
ATOM     26  C   UNL     1       9.729  15.370  24.160  0.00  0.00    +0.015 C 
ATOM     27  C   UNL     1      10.491  13.957  26.058  0.00  0.00    +0.015 C 
ATOM     28  C   UNL     1      12.162  15.203  24.645  0.00  0.00    +0.015 C 
ENDBRANCH  21  18
ENDBRANCH   8  19
ENDBRANCH   3  17
ENDBRANCH  13   3
TORSDOF 7
ENDMDL
MODEL 8
REMARK VINA RESULT:      -7.0     28.667     32.212
REMARK  Name = 11913055
REMARK  11 active torsions:
REMARK  status: ('A' for Active; 'I' for Inactive)
REMARK    1  A    between atoms: O_3  and  C_13
REMARK    2  A    between atoms: O_3  and  C_17
REMARK    3  A    between atoms: O_5  and  C_36
REMARK    4  A    between atoms: O_5  and  C_37
REMARK    5  A    between atoms: N_6  and  C_12
REMARK    6  A    between atoms: N_8  and  C_19
REMARK    7  A    between atoms: C_18  and  C_21
REMARK    8  A    between atoms: C_18  and  C_26
REMARK    9  A    between atoms: C_18  and  C_27
REMARK   10  A    between atoms: C_18  and  C_28
REMARK   11  A    between atoms: C_20  and  C_31
REMARK                            x       y       z     vdW  Elec       q    Type
REMARK                         _______ _______ _______ _____ _____    ______ ____
ROOT
ATOM      1  O   UNL     1      22.015   8.603  21.207  0.00  0.00    -0.368 OA
ATOM      2  O   UNL     1      20.941   6.661  23.326  0.00  0.00    -0.368 OA
ATOM     10  C   UNL     1      21.489   6.434  22.010  0.00  0.00    +0.173 C 
ATOM     11  C   UNL     1      21.013   7.577  21.134  0.00  0.00    +0.192 C 
ATOM     12  C   UNL     1      22.990   6.599  22.040  0.00  0.00    +0.130 C 
ATOM     13  C   UNL     1      19.731   7.997  21.814  0.00  0.00    +0.235 C 
ATOM     14  C   UNL     1      23.155   8.104  21.925  0.00  0.00    +0.185 C 
ATOM     15  C   UNL     1      20.064   7.795  23.275  0.00  0.00    +0.207 C 
ENDROOT
BRANCH  12   6
ATOM      6  N   UNL     1      23.590   5.940  20.899  0.00  0.00    -0.306 N 
ATOM      7  N   UNL     1      23.671   3.897  22.000  0.00  0.00    -0.214 NA
ATOM      9  N   UNL     1      24.475   4.132  19.742  0.00  0.00    -0.223 NA
ATOM     16  C   UNL     1      23.927   4.598  20.879  0.00  0.00    +0.216 A 
ATOM     20  C   UNL     1      24.013   2.593  21.948  0.00  0.00    +0.076 A 
ATOM     22  C   UNL     1      24.792   2.820  19.757  0.00  0.00    +0.116 A 
ATOM     23  C   UNL     1      24.581   1.994  20.842  0.00  0.00    +0.048 A 
ATOM     38  H   UNL     1      23.731   6.461  20.041  0.00  0.00    +0.149 HD
BRANCH  20  31
ATOM     31  C   UNL     1      23.740   1.839  23.148  0.00  0.00    +0.001 A 
ATOM     32  C   UNL     1      24.605   0.815  23.538  0.00  0.00    +0.013 A 
ATOM     33  C   UNL     1      22.613   2.130  23.915  0.00  0.00    +0.013 A 
ATOM     34  C   UNL     1      24.341   0.084  24.697  0.00  0.00    +0.046 A 
ATOM     35  C   UNL     1      22.350   1.399  25.074  0.00  0.00    +0.046 A 
ATOM     36  C   UNL     1      23.214   0.376  25.464  0.00  0.00    +0.120 A 
BRANCH  36   5
ATOM      5  O   UNL     1      22.959  -0.336  26.596  0.00  0.00    -0.495 OA
ATOM     37  C   UNL     1      23.135  -1.750  26.526  0.00  0.00    +0.277 C 
ENDBRANCH  36   5
ENDBRANCH  20  31
ENDBRANCH  12   6
BRANCH  13   3
ATOM      3  O   UNL     1      19.356   9.327  21.532  0.00  0.00    -0.442 OA
BRANCH   3  17
ATOM      4  O   UNL     1      17.620  10.574  20.720  0.00  0.00    -0.226 OA
ATOM      8  N   UNL     1      17.272   8.488  21.724  0.00  0.00    -0.251 N 
ATOM     17  C   UNL     1      18.022   9.557  21.272  0.00  0.00    +0.405 C 
ATOM     39  H   UNL     1      17.789   7.728  22.160  0.00  0.00    +0.158 HD
BRANCH   8  19
ATOM     19  C   UNL     1      15.870   8.319  21.657  0.00  0.00    +0.036 A 
ATOM     21  C   UNL     1      13.103   7.984  21.522  0.00  0.00    -0.042 A 
ATOM     24  C   UNL     1      15.334   7.186  21.046  0.00  0.00    +0.024 A 
ATOM     25  C   UNL     1      15.023   9.285  22.201  0.00  0.00    +0.024 A 
ATOM     29  C   UNL     1      13.951   7.018  20.979  0.00  0.00    +0.006 A 
ATOM     30  C   UNL     1      13.640   9.117  22.134  0.00  0.00    +0.006 A 
BRANCH  21  18
ATOM     18  C   UNL     1      11.625   7.804  21.451  0.00  0.00    -0.013 C 
ATOM     26  C   UNL     1      10.936   8.399  20.179  0.00  0.00    +0.015 C 
ATOM     27  C   UNL     1      11.238   6.292  21.463  0.00  0.00    +0.015 C 
ATOM     28  C   UNL     1      10.914   8.481  22.664  0.00  0.00    +0.015 C 
ENDBRANCH  21  18
ENDBRANCH   8  19
ENDBRANCH   3  17
ENDBRANCH  13   3
TORSDOF 7
ENDMDL
MODEL 9
REMARK VINA RESULT:      -6.9     25.164     26.904
REMARK  Name = 11913055
REMARK  11 active torsions:
REMARK  status: ('A' for Active; 'I' for Inactive)
REMARK    1  A    between atoms: O_3  and  C_13
REMARK    2  A    between atoms: O_3  and  C_17
REMARK    3  A    between atoms: O_5  and  C_36
REMARK    4  A    between atoms: O_5  and  C_37
REMARK    5  A    between atoms: N_6  and  C_12
REMARK    6  A    between atoms: N_8  and  C_19
REMARK    7  A    between atoms: C_18  and  C_21
REMARK    8  A    between atoms: C_18  and  C_26
REMARK    9  A    between atoms: C_18  and  C_27
REMARK   10  A    between atoms: C_18  and  C_28
REMARK   11  A    between atoms: C_20  and  C_31
REMARK                            x       y       z     vdW  Elec       q    Type
REMARK                         _______ _______ _______ _____ _____    ______ ____
ROOT
ATOM      1  O   UNL     1      10.964  13.885  10.792  0.00  0.00    -0.368 OA
ATOM      2  O   UNL     1       9.742  12.052  12.928  0.00  0.00    -0.368 OA
ATOM     10  C   UNL     1      11.073  12.122  12.375  0.00  0.00    +0.173 C 
ATOM     11  C   UNL     1      10.920  12.454  10.903  0.00  0.00    +0.192 C 
ATOM     12  C   UNL     1      11.807  13.314  12.943  0.00  0.00    +0.130 C 
ATOM     13  C   UNL     1       9.547  11.910  10.588  0.00  0.00    +0.235 C 
ATOM     14  C   UNL     1      11.309  14.450  12.067  0.00  0.00    +0.185 C 
ATOM     15  C   UNL     1       8.789  12.195  11.865  0.00  0.00    +0.207 C 
ENDROOT
BRANCH  12   6
ATOM      6  N   UNL     1      13.236  13.147  12.783  0.00  0.00    -0.306 N 
ATOM      7  N   UNL     1      13.338  11.567  14.480  0.00  0.00    -0.214 NA
ATOM      9  N   UNL     1      15.313  12.234  13.274  0.00  0.00    -0.223 NA
ATOM     16  C   UNL     1      13.996  12.278  13.545  0.00  0.00    +0.216 A 
ATOM     20  C   UNL     1      14.109  10.731  15.207  0.00  0.00    +0.076 A 
ATOM     22  C   UNL     1      16.024  11.377  14.037  0.00  0.00    +0.116 A 
ATOM     23  C   UNL     1      15.470  10.592  15.027  0.00  0.00    +0.048 A 
ATOM     38  H   UNL     1      13.715  13.647  12.042  0.00  0.00    +0.149 HD
BRANCH  20  31
ATOM     31  C   UNL     1      13.407   9.965  16.209  0.00  0.00    +0.001 A 
ATOM     32  C   UNL     1      12.138   9.454  15.933  0.00  0.00    +0.013 A 
ATOM     33  C   UNL     1      13.994   9.737  17.453  0.00  0.00    +0.013 A 
ATOM     34  C   UNL     1      11.458   8.715  16.901  0.00  0.00    +0.046 A 
ATOM     35  C   UNL     1      13.314   8.997  18.421  0.00  0.00    +0.046 A 
ATOM     36  C   UNL     1      12.046   8.487  18.145  0.00  0.00    +0.120 A 
BRANCH  36   5
ATOM      5  O   UNL     1      11.383   7.763  19.088  0.00  0.00    -0.495 OA
ATOM     37  C   UNL     1      11.000   8.447  20.280  0.00  0.00    +0.277 C 
ENDBRANCH  36   5
ENDBRANCH  20  31
ENDBRANCH  12   6
BRANCH  13   3
ATOM      3  O   UNL     1       8.946  12.518   9.466  0.00  0.00    -0.442 OA
BRANCH   3  17
ATOM      4  O   UNL     1       8.835  12.387   7.186  0.00  0.00    -0.226 OA
ATOM      8  N   UNL     1       9.398  10.532   8.500  0.00  0.00    -0.251 N 
ATOM     17  C   UNL     1       9.043  11.847   8.266  0.00  0.00    +0.405 C 
ATOM     39  H   UNL     1       9.529  10.267   9.473  0.00  0.00    +0.158 HD
BRANCH   8  19
ATOM     19  C   UNL     1       9.603   9.504   7.550  0.00  0.00    +0.036 A 
ATOM     21  C   UNL     1      10.005   7.478   5.675  0.00  0.00    -0.042 A 
ATOM     24  C   UNL     1      10.458   9.715   6.469  0.00  0.00    +0.024 A 
ATOM     25  C   UNL     1       8.948   8.281   7.694  0.00  0.00    +0.024 A 
ATOM     29  C   UNL     1      10.659   8.701   5.532  0.00  0.00    +0.006 A 
ATOM     30  C   UNL     1       9.150   7.267   6.757  0.00  0.00    +0.006 A 
BRANCH  21  18
ATOM     18  C   UNL     1      10.221   6.395   4.674  0.00  0.00    -0.013 C 
ATOM     26  C   UNL     1       9.800   4.960   5.134  0.00  0.00    +0.015 C 
ATOM     27  C   UNL     1       9.414   6.664   3.366  0.00  0.00    +0.015 C 
ATOM     28  C   UNL     1      11.727   6.280   4.281  0.00  0.00    +0.015 C 
ENDBRANCH  21  18
ENDBRANCH   8  19
ENDBRANCH   3  17
ENDBRANCH  13   3
TORSDOF 7
ENDMDL
MODEL 10
REMARK VINA RESULT:      -6.9     21.005     23.367
REMARK  Name = 11913055
REMARK  11 active torsions:
REMARK  status: ('A' for Active; 'I' for Inactive)
REMARK    1  A    between atoms: O_3  and  C_13
REMARK    2  A    between atoms: O_3  and  C_17
REMARK    3  A    between atoms: O_5  and  C_36
REMARK    4  A    between atoms: O_5  and  C_37
REMARK    5  A    between atoms: N_6  and  C_12
REMARK    6  A    between atoms: N_8  and  C_19
REMARK    7  A    between atoms: C_18  and  C_21
REMARK    8  A    between atoms: C_18  and  C_26
REMARK    9  A    between atoms: C_18  and  C_27
REMARK   10  A    between atoms: C_18  and  C_28
REMARK   11  A    between atoms: C_20  and  C_31
REMARK                            x       y       z     vdW  Elec       q    Type
REMARK                         _______ _______ _______ _____ _____    ______ ____
ROOT
ATOM      1  O   UNL     1       5.666  11.288   0.736  0.00  0.00    -0.368 OA
ATOM      2  O   UNL     1       5.593  10.360   3.660  0.00  0.00    -0.368 OA
ATOM     10  C   UNL     1       6.109   9.730   2.469  0.00  0.00    +0.173 C 
ATOM     11  C   UNL     1       5.163  10.086   1.339  0.00  0.00    +0.192 C 
ATOM     12  C   UNL     1       7.415  10.375   2.067  0.00  0.00    +0.130 C 
ATOM     13  C   UNL     1       3.862  10.328   2.067  0.00  0.00    +0.235 C 
ATOM     14  C   UNL     1       6.950  11.601   1.301  0.00  0.00    +0.185 C 
ATOM     15  C   UNL     1       4.331  10.969   3.354  0.00  0.00    +0.207 C 
ENDROOT
BRANCH  12   6
ATOM      6  N   UNL     1       8.164   9.494   1.196  0.00  0.00    -0.306 N 
ATOM      7  N   UNL     1       8.757   8.102   2.958  0.00  0.00    -0.214 NA
ATOM      9  N   UNL     1       9.479   7.645   0.705  0.00  0.00    -0.223 NA
ATOM     16  C   UNL     1       8.829   8.364   1.639  0.00  0.00    +0.216 A 
ATOM     20  C   UNL     1       9.417   6.995   3.355  0.00  0.00    +0.076 A 
ATOM     22  C   UNL     1      10.117   6.550   1.171  0.00  0.00    +0.116 A 
ATOM     23  C   UNL     1      10.120   6.172   2.498  0.00  0.00    +0.048 A 
ATOM     38  H   UNL     1       8.169   9.668   0.198  0.00  0.00    +0.149 HD
BRANCH  20  31
ATOM     31  C   UNL     1       9.341   6.709   4.768  0.00  0.00    +0.001 A 
ATOM     32  C   UNL     1       8.606   7.547   5.608  0.00  0.00    +0.013 A 
ATOM     33  C   UNL     1      10.002   5.599   5.294  0.00  0.00    +0.013 A 
ATOM     34  C   UNL     1       8.533   7.273   6.974  0.00  0.00    +0.046 A 
ATOM     35  C   UNL     1       9.927   5.325   6.659  0.00  0.00    +0.046 A 
ATOM     36  C   UNL     1       9.194   6.162   7.499  0.00  0.00    +0.120 A 
BRANCH  36   5
ATOM      5  O   UNL     1       9.119   5.895   8.832  0.00  0.00    -0.495 OA
ATOM     37  C   UNL     1       9.460   4.573   9.248  0.00  0.00    +0.277 C 
ENDBRANCH  36   5
ENDBRANCH  20  31
ENDBRANCH  12   6
BRANCH  13   3
ATOM      3  O   UNL     1       2.966  11.153   1.357  0.00  0.00    -0.442 OA
BRANCH   3  17
ATOM      4  O   UNL     1       1.352  12.496   2.263  0.00  0.00    -0.226 OA
ATOM      8  N   UNL     1       1.058  10.182   2.067  0.00  0.00    -0.251 N 
ATOM     17  C   UNL     1       1.734  11.380   1.936  0.00  0.00    +0.405 C 
ATOM     39  H   UNL     1       1.544   9.352   1.734  0.00  0.00    +0.158 HD
BRANCH   8  19
ATOM     19  C   UNL     1      -0.230   9.964   2.609  0.00  0.00    +0.036 A 
ATOM     21  C   UNL     1      -2.771   9.539   3.678  0.00  0.00    -0.042 A 
ATOM     24  C   UNL     1      -1.356  10.088   1.797  0.00  0.00    +0.024 A 
ATOM     25  C   UNL     1      -0.372   9.628   3.955  0.00  0.00    +0.024 A 
ATOM     29  C   UNL     1      -2.627   9.875   2.332  0.00  0.00    +0.006 A 
ATOM     30  C   UNL     1      -1.643   9.415   4.489  0.00  0.00    +0.006 A 
BRANCH  21  18
ATOM     18  C   UNL     1      -4.129   9.309   4.248  0.00  0.00    -0.013 C 
ATOM     26  C   UNL     1      -4.562  10.304   5.376  0.00  0.00    +0.015 C 
ATOM     27  C   UNL     1      -5.231   9.426   3.149  0.00  0.00    +0.015 C 
ATOM     28  C   UNL     1      -4.245   7.888   4.881  0.00  0.00    +0.015 C 
ENDBRANCH  21  18
ENDBRANCH   8  19
ENDBRANCH   3  17
ENDBRANCH  13   3
TORSDOF 7
ENDMDL
