MODEL 1
REMARK VINA RESULT:      -6.6      0.000      0.000
REMARK  Name = 38027816
REMARK  13 active torsions:
REMARK  status: ('A' for Active; 'I' for Inactive)
REMARK    1  A    between atoms: O_3  and  C_31
REMARK    2  A    between atoms: O_3  and  C_33
REMARK    3  A    between atoms: N_4  and  C_15
REMARK    4  A    between atoms: N_5  and  C_22
REMARK    5  A    between atoms: C_8  and  C_12
REMARK    6  A    between atoms: C_9  and  C_15
REMARK    7  A    between atoms: C_11  and  C_16
REMARK    8  A    between atoms: C_12  and  C_17
REMARK    9  A    between atoms: C_12  and  C_18
REMARK   10  A    between atoms: C_13  and  C_19
REMARK   11  A    between atoms: C_16  and  C_20
REMARK   12  A    between atoms: C_21  and  C_23
REMARK   13  A    between atoms: C_22  and  C_24
REMARK                            x       y       z     vdW  Elec       q    Type
REMARK                         _______ _______ _______ _____ _____    ______ ____
ROOT
ATOM      8  C   UNL     1      -5.792 -10.541  15.372  0.00  0.00    +0.000 C 
ATOM      9  C   UNL     1      -6.587 -10.570  16.701  0.00  0.00    +0.032 C 
ATOM     10  C   UNL     1      -4.848 -11.749  15.286  0.00  0.00    +0.012 C 
ATOM     11  C   UNL     1      -3.844 -11.789  16.453  0.00  0.00    +0.023 C 
ATOM     13  C   UNL     1      -4.523 -11.555  17.787  0.00  0.00    -0.073 C 
ATOM     14  C   UNL     1      -5.755 -11.021  17.878  0.00  0.00    -0.022 C 
ATOM     19  C   UNL     1      -3.773 -11.990  19.015  0.00  0.00    +0.039 C 
ENDROOT
BRANCH   8  12
ATOM     12  C   UNL     1      -6.721 -10.521  14.155  0.00  0.00    -0.013 C 
ATOM     17  C   UNL     1      -7.033 -11.943  13.699  0.00  0.00    +0.007 C 
ATOM     18  C   UNL     1      -6.095  -9.715  13.020  0.00  0.00    +0.007 C 
ENDBRANCH   8  12
BRANCH   9  15
ATOM     15  C   UNL     1      -7.203  -9.199  17.007  0.00  0.00    +0.112 C 
BRANCH  15   4
ATOM      2  O   UNL     1      -9.838  -9.692  15.980  0.00  0.00    -0.270 OA
ATOM      4  N   UNL     1      -8.403  -9.341  17.770  0.00  0.00    -0.311 N 
ATOM     21  C   UNL     1      -9.648  -9.579  17.188  0.00  0.00    +0.247 C 
ATOM     34  H   UNL     1      -8.325  -9.265  18.778  0.00  0.00    +0.149 HD
BRANCH  21  23
ATOM      6  N   UNL     1     -11.687 -10.183  20.297  0.00  0.00    -0.243 NA
ATOM      7  N   UNL     1     -13.160  -9.432  18.543  0.00  0.00    -0.243 NA
ATOM     23  C   UNL     1     -10.803  -9.674  18.117  0.00  0.00    +0.073 A 
ATOM     25  C   UNL     1     -10.661 -10.084  19.426  0.00  0.00    +0.127 A 
ATOM     26  C   UNL     1     -12.089  -9.356  17.727  0.00  0.00    +0.127 A 
ATOM     32  C   UNL     1     -12.892  -9.845  19.796  0.00  0.00    +0.221 A 
ENDBRANCH  21  23
ENDBRANCH  15   4
ENDBRANCH   9  15
BRANCH  11  16
ATOM     16  C   UNL     1      -2.703 -10.790  16.235  0.00  0.00    +0.103 C 
BRANCH  16  20
ATOM      1  O   UNL     1      -1.236 -12.065  14.795  0.00  0.00    -0.276 OA
ATOM      5  N   UNL     1      -2.131 -10.062  14.032  0.00  0.00    -0.311 N 
ATOM     20  C   UNL     1      -1.936 -11.071  14.963  0.00  0.00    +0.214 C 
ATOM     35  H   UNL     1      -2.733  -9.276  14.262  0.00  0.00    +0.149 HD
BRANCH   5  22
ATOM     22  C   UNL     1      -1.518 -10.066  12.723  0.00  0.00    +0.139 C 
BRANCH  22  24
ATOM     24  C   UNL     1      -2.515 -10.336  11.635  0.00  0.00    -0.030 A 
ATOM     27  C   UNL     1      -2.785  -9.359  10.676  0.00  0.00    +0.009 A 
ATOM     28  C   UNL     1      -3.171 -11.566  11.580  0.00  0.00    +0.009 A 
ATOM     29  C   UNL     1      -3.710  -9.611   9.665  0.00  0.00    +0.046 A 
ATOM     30  C   UNL     1      -4.097 -11.818  10.567  0.00  0.00    +0.046 A 
ATOM     31  C   UNL     1      -4.367 -10.840   9.610  0.00  0.00    +0.120 A 
BRANCH  31   3
ATOM      3  O   UNL     1      -5.270 -11.087   8.622  0.00  0.00    -0.495 OA
ATOM     33  C   UNL     1      -5.774  -9.961   7.907  0.00  0.00    +0.277 C 
ENDBRANCH  31   3
ENDBRANCH  22  24
ENDBRANCH   5  22
ENDBRANCH  16  20
ENDBRANCH  11  16
TORSDOF 9
ENDMDL
MODEL 2
REMARK VINA RESULT:      -6.5      3.566      8.607
REMARK  Name = 38027816
REMARK  13 active torsions:
REMARK  status: ('A' for Active; 'I' for Inactive)
REMARK    1  A    between atoms: O_3  and  C_31
REMARK    2  A    between atoms: O_3  and  C_33
REMARK    3  A    between atoms: N_4  and  C_15
REMARK    4  A    between atoms: N_5  and  C_22
REMARK    5  A    between atoms: C_8  and  C_12
REMARK    6  A    between atoms: C_9  and  C_15
REMARK    7  A    between atoms: C_11  and  C_16
REMARK    8  A    between atoms: C_12  and  C_17
REMARK    9  A    between atoms: C_12  and  C_18
REMARK   10  A    between atoms: C_13  and  C_19
REMARK   11  A    between atoms: C_16  and  C_20
REMARK   12  A    between atoms: C_21  and  C_23
REMARK   13  A    between atoms: C_22  and  C_24
REMARK                            x       y       z     vdW  Elec       q    Type
REMARK                         _______ _______ _______ _____ _____    ______ ____
ROOT
ATOM      8  C   UNL     1      -4.890 -10.566  10.962  0.00  0.00    +0.000 C 
ATOM      9  C   UNL     1      -4.379  -9.657   9.816  0.00  0.00    +0.032 C 
ATOM     10  C   UNL     1      -4.316 -10.103  12.309  0.00  0.00    +0.012 C 
ATOM     11  C   UNL     1      -2.776 -10.119  12.324  0.00  0.00    +0.023 C 
ATOM     13  C   UNL     1      -2.194  -9.472  11.083  0.00  0.00    -0.073 C 
ATOM     14  C   UNL     1      -2.930  -9.262   9.976  0.00  0.00    -0.022 C 
ATOM     19  C   UNL     1      -0.759  -9.031  11.158  0.00  0.00    +0.039 C 
ENDROOT
BRANCH   8  12
ATOM     12  C   UNL     1      -6.419 -10.589  11.030  0.00  0.00    -0.013 C 
ATOM     17  C   UNL     1      -6.976  -9.171  10.963  0.00  0.00    +0.007 C 
ATOM     18  C   UNL     1      -6.884 -11.293  12.301  0.00  0.00    +0.007 C 
ENDBRANCH   8  12
BRANCH   9  15
ATOM     15  C   UNL     1      -4.578 -10.325   8.450  0.00  0.00    +0.112 C 
BRANCH  15   4
ATOM      2  O   UNL     1      -7.251 -10.989   7.639  0.00  0.00    -0.270 OA
ATOM      4  N   UNL     1      -5.438  -9.540   7.622  0.00  0.00    -0.311 N 
ATOM     21  C   UNL     1      -6.729  -9.940   7.274  0.00  0.00    +0.247 C 
ATOM     34  H   UNL     1      -5.077  -8.654   7.284  0.00  0.00    +0.149 HD
BRANCH  21  23
ATOM      6  N   UNL     1      -9.184  -7.345   6.078  0.00  0.00    -0.243 NA
ATOM      7  N   UNL     1      -7.911  -8.131   4.189  0.00  0.00    -0.243 NA
ATOM     23  C   UNL     1      -7.486  -9.024   6.383  0.00  0.00    +0.073 A 
ATOM     25  C   UNL     1      -8.476  -8.189   6.858  0.00  0.00    +0.127 A 
ATOM     26  C   UNL     1      -7.243  -8.951   5.026  0.00  0.00    +0.127 A 
ATOM     32  C   UNL     1      -8.854  -7.367   4.773  0.00  0.00    +0.221 A 
ENDBRANCH  21  23
ENDBRANCH  15   4
ENDBRANCH   9  15
BRANCH  11  16
ATOM     16  C   UNL     1      -2.239 -11.543  12.502  0.00  0.00    +0.103 C 
BRANCH  16  20
ATOM      1  O   UNL     1      -2.340 -13.179  14.281  0.00  0.00    -0.276 OA
ATOM      5  N   UNL     1      -2.328 -10.916  14.807  0.00  0.00    -0.311 N 
ATOM     20  C   UNL     1      -2.307 -12.000  13.942  0.00  0.00    +0.214 C 
ATOM     35  H   UNL     1      -2.294  -9.973  14.431  0.00  0.00    +0.149 HD
BRANCH   5  22
ATOM     22  C   UNL     1      -2.392 -11.055  16.244  0.00  0.00    +0.139 C 
BRANCH  22  24
ATOM     24  C   UNL     1      -3.776 -10.812  16.772  0.00  0.00    -0.030 A 
ATOM     27  C   UNL     1      -4.696 -10.086  16.015  0.00  0.00    +0.009 A 
ATOM     28  C   UNL     1      -4.144 -11.313  18.021  0.00  0.00    +0.009 A 
ATOM     29  C   UNL     1      -5.981  -9.862  16.505  0.00  0.00    +0.046 A 
ATOM     30  C   UNL     1      -5.430 -11.088  18.512  0.00  0.00    +0.046 A 
ATOM     31  C   UNL     1      -6.349 -10.363  17.754  0.00  0.00    +0.120 A 
BRANCH  31   3
ATOM      3  O   UNL     1      -7.604 -10.145  18.233  0.00  0.00    -0.495 OA
ATOM     33  C   UNL     1      -8.477  -9.354  17.431  0.00  0.00    +0.277 C 
ENDBRANCH  31   3
ENDBRANCH  22  24
ENDBRANCH   5  22
ENDBRANCH  16  20
ENDBRANCH  11  16
TORSDOF 9
ENDMDL
MODEL 3
REMARK VINA RESULT:      -6.4     24.586     27.860
REMARK  Name = 38027816
REMARK  13 active torsions:
REMARK  status: ('A' for Active; 'I' for Inactive)
REMARK    1  A    between atoms: O_3  and  C_31
REMARK    2  A    between atoms: O_3  and  C_33
REMARK    3  A    between atoms: N_4  and  C_15
REMARK    4  A    between atoms: N_5  and  C_22
REMARK    5  A    between atoms: C_8  and  C_12
REMARK    6  A    between atoms: C_9  and  C_15
REMARK    7  A    between atoms: C_11  and  C_16
REMARK    8  A    between atoms: C_12  and  C_17
REMARK    9  A    between atoms: C_12  and  C_18
REMARK   10  A    between atoms: C_13  and  C_19
REMARK   11  A    between atoms: C_16  and  C_20
REMARK   12  A    between atoms: C_21  and  C_23
REMARK   13  A    between atoms: C_22  and  C_24
REMARK                            x       y       z     vdW  Elec       q    Type
REMARK                         _______ _______ _______ _____ _____    ______ ____
ROOT
ATOM      8  C   UNL     1       8.863   8.566   5.224  0.00  0.00    +0.000 C 
ATOM      9  C   UNL     1       8.797   8.033   6.677  0.00  0.00    +0.032 C 
ATOM     10  C   UNL     1       8.334   7.511   4.242  0.00  0.00    +0.012 C 
ATOM     11  C   UNL     1       9.130   6.194   4.315  0.00  0.00    +0.023 C 
ATOM     13  C   UNL     1       9.339   5.742   5.746  0.00  0.00    -0.073 C 
ATOM     14  C   UNL     1       9.173   6.575   6.790  0.00  0.00    -0.022 C 
ATOM     19  C   UNL     1       9.700   4.298   5.954  0.00  0.00    +0.039 C 
ENDROOT
BRANCH   8  12
ATOM     12  C   UNL     1       8.075   9.868   5.060  0.00  0.00    -0.013 C 
ATOM     17  C   UNL     1       6.941   9.682   4.057  0.00  0.00    +0.007 C 
ATOM     18  C   UNL     1       9.001  11.000   4.625  0.00  0.00    +0.007 C 
ENDBRANCH   8  12
BRANCH   9  15
ATOM     15  C   UNL     1       9.686   8.863   7.611  0.00  0.00    +0.112 C 
BRANCH  15   4
ATOM      2  O   UNL     1      11.659  10.801   6.840  0.00  0.00    -0.270 OA
ATOM      4  N   UNL     1      11.069   8.615   7.349  0.00  0.00    -0.311 N 
ATOM     21  C   UNL     1      11.963   9.619   6.977  0.00  0.00    +0.247 C 
ATOM     34  H   UNL     1      11.397   7.659   7.445  0.00  0.00    +0.149 HD
BRANCH  21  23
ATOM      6  N   UNL     1      14.981   7.442   6.392  0.00  0.00    -0.243 NA
ATOM      7  N   UNL     1      15.664   9.750   6.292  0.00  0.00    -0.243 NA
ATOM     23  C   UNL     1      13.361   9.194   6.713  0.00  0.00    +0.073 A 
ATOM     25  C   UNL     1      13.721   7.865   6.630  0.00  0.00    +0.127 A 
ATOM     26  C   UNL     1      14.385  10.102   6.532  0.00  0.00    +0.127 A 
ATOM     32  C   UNL     1      15.889   8.424   6.234  0.00  0.00    +0.221 A 
ENDBRANCH  21  23
ENDBRANCH  15   4
ENDBRANCH   9  15
BRANCH  11  16
ATOM     16  C   UNL     1      10.467   6.316   3.577  0.00  0.00    +0.103 C 
BRANCH  16  20
ATOM      1  O   UNL     1      10.008   5.217   1.471  0.00  0.00    -0.276 OA
ATOM      5  N   UNL     1      11.581   4.306   2.918  0.00  0.00    -0.311 N 
ATOM     20  C   UNL     1      10.636   5.242   2.526  0.00  0.00    +0.214 C 
ATOM     35  H   UNL     1      12.052   4.413   3.812  0.00  0.00    +0.149 HD
BRANCH   5  22
ATOM     22  C   UNL     1      11.946   3.166   2.108  0.00  0.00    +0.139 C 
BRANCH  22  24
ATOM     24  C   UNL     1      13.095   3.470   1.191  0.00  0.00    -0.030 A 
ATOM     27  C   UNL     1      12.873   3.636  -0.176  0.00  0.00    +0.009 A 
ATOM     28  C   UNL     1      14.386   3.590   1.708  0.00  0.00    +0.009 A 
ATOM     29  C   UNL     1      13.940   3.920  -1.026  0.00  0.00    +0.046 A 
ATOM     30  C   UNL     1      15.454   3.874   0.856  0.00  0.00    +0.046 A 
ATOM     31  C   UNL     1      15.231   4.039  -0.511  0.00  0.00    +0.120 A 
BRANCH  31   3
ATOM      3  O   UNL     1      16.273   4.317  -1.340  0.00  0.00    -0.495 OA
ATOM     33  C   UNL     1      15.977   5.028  -2.540  0.00  0.00    +0.277 C 
ENDBRANCH  31   3
ENDBRANCH  22  24
ENDBRANCH   5  22
ENDBRANCH  16  20
ENDBRANCH  11  16
TORSDOF 9
ENDMDL
MODEL 4
REMARK VINA RESULT:      -6.0     23.218     27.298
REMARK  Name = 38027816
REMARK  13 active torsions:
REMARK  status: ('A' for Active; 'I' for Inactive)
REMARK    1  A    between atoms: O_3  and  C_31
REMARK    2  A    between atoms: O_3  and  C_33
REMARK    3  A    between atoms: N_4  and  C_15
REMARK    4  A    between atoms: N_5  and  C_22
REMARK    5  A    between atoms: C_8  and  C_12
REMARK    6  A    between atoms: C_9  and  C_15
REMARK    7  A    between atoms: C_11  and  C_16
REMARK    8  A    between atoms: C_12  and  C_17
REMARK    9  A    between atoms: C_12  and  C_18
REMARK   10  A    between atoms: C_13  and  C_19
REMARK   11  A    between atoms: C_16  and  C_20
REMARK   12  A    between atoms: C_21  and  C_23
REMARK   13  A    between atoms: C_22  and  C_24
REMARK                            x       y       z     vdW  Elec       q    Type
REMARK                         _______ _______ _______ _____ _____    ______ ____
ROOT
ATOM      8  C   UNL     1      12.502   7.872   4.790  0.00  0.00    +0.000 C 
ATOM      9  C   UNL     1      11.575   9.106   4.918  0.00  0.00    +0.032 C 
ATOM     10  C   UNL     1      12.568   7.400   3.330  0.00  0.00    +0.012 C 
ATOM     11  C   UNL     1      11.181   7.027   2.775  0.00  0.00    +0.023 C 
ATOM     13  C   UNL     1      10.142   8.082   3.099  0.00  0.00    -0.073 C 
ATOM     14  C   UNL     1      10.342   9.011   4.051  0.00  0.00    -0.022 C 
ATOM     19  C   UNL     1       8.887   8.074   2.272  0.00  0.00    +0.039 C 
ENDROOT
BRANCH   8  12
ATOM     12  C   UNL     1      13.914   8.166   5.304  0.00  0.00    -0.013 C 
ATOM     17  C   UNL     1      14.925   8.077   4.165  0.00  0.00    +0.007 C 
ATOM     18  C   UNL     1      14.282   7.205   6.430  0.00  0.00    +0.007 C 
ENDBRANCH   8  12
BRANCH   9  15
ATOM     15  C   UNL     1      11.158   9.335   6.376  0.00  0.00    +0.112 C 
BRANCH  15   4
ATOM      2  O   UNL     1       8.600   8.249   7.097  0.00  0.00    -0.270 OA
ATOM      4  N   UNL     1      10.914   8.091   7.036  0.00  0.00    -0.311 N 
ATOM     21  C   UNL     1       9.633   7.638   7.351  0.00  0.00    +0.247 C 
ATOM     34  H   UNL     1      11.722   7.525   7.275  0.00  0.00    +0.149 HD
BRANCH  21  23
ATOM      6  N   UNL     1       8.816   5.037   9.950  0.00  0.00    -0.243 NA
ATOM      7  N   UNL     1      10.051   3.984   8.168  0.00  0.00    -0.243 NA
ATOM     23  C   UNL     1       9.551   6.336   8.062  0.00  0.00    +0.073 A 
ATOM     25  C   UNL     1       8.911   6.202   9.276  0.00  0.00    +0.127 A 
ATOM     26  C   UNL     1      10.107   5.181   7.549  0.00  0.00    +0.127 A 
ATOM     32  C   UNL     1       9.400   3.983   9.347  0.00  0.00    +0.221 A 
ENDBRANCH  21  23
ENDBRANCH  15   4
ENDBRANCH   9  15
BRANCH  11  16
ATOM     16  C   UNL     1      10.737   5.649   3.277  0.00  0.00    +0.103 C 
BRANCH  16  20
ATOM      1  O   UNL     1      10.190   4.218   1.404  0.00  0.00    -0.276 OA
ATOM      5  N   UNL     1      12.265   4.016   2.431  0.00  0.00    -0.311 N 
ATOM     20  C   UNL     1      11.001   4.561   2.260  0.00  0.00    +0.214 C 
ATOM     35  H   UNL     1      12.868   4.370   3.169  0.00  0.00    +0.149 HD
BRANCH   5  22
ATOM     22  C   UNL     1      12.786   2.955   1.600  0.00  0.00    +0.139 C 
BRANCH  22  24
ATOM     24  C   UNL     1      13.774   3.464   0.591  0.00  0.00    -0.030 A 
ATOM     27  C   UNL     1      13.374   3.693  -0.725  0.00  0.00    +0.009 A 
ATOM     28  C   UNL     1      15.094   3.711   0.971  0.00  0.00    +0.009 A 
ATOM     29  C   UNL     1      14.291   4.166  -1.661  0.00  0.00    +0.046 A 
ATOM     30  C   UNL     1      16.012   4.185   0.034  0.00  0.00    +0.046 A 
ATOM     31  C   UNL     1      15.611   4.413  -1.283  0.00  0.00    +0.120 A 
BRANCH  31   3
ATOM      3  O   UNL     1      16.507   4.876  -2.196  0.00  0.00    -0.495 OA
ATOM     33  C   UNL     1      16.049   5.871  -3.108  0.00  0.00    +0.277 C 
ENDBRANCH  31   3
ENDBRANCH  22  24
ENDBRANCH   5  22
ENDBRANCH  16  20
ENDBRANCH  11  16
TORSDOF 9
ENDMDL
MODEL 5
REMARK VINA RESULT:      -6.0     18.740     21.508
REMARK  Name = 38027816
REMARK  13 active torsions:
REMARK  status: ('A' for Active; 'I' for Inactive)
REMARK    1  A    between atoms: O_3  and  C_31
REMARK    2  A    between atoms: O_3  and  C_33
REMARK    3  A    between atoms: N_4  and  C_15
REMARK    4  A    between atoms: N_5  and  C_22
REMARK    5  A    between atoms: C_8  and  C_12
REMARK    6  A    between atoms: C_9  and  C_15
REMARK    7  A    between atoms: C_11  and  C_16
REMARK    8  A    between atoms: C_12  and  C_17
REMARK    9  A    between atoms: C_12  and  C_18
REMARK   10  A    between atoms: C_13  and  C_19
REMARK   11  A    between atoms: C_16  and  C_20
REMARK   12  A    between atoms: C_21  and  C_23
REMARK   13  A    between atoms: C_22  and  C_24
REMARK                            x       y       z     vdW  Elec       q    Type
REMARK                         _______ _______ _______ _____ _____    ______ ____
ROOT
ATOM      8  C   UNL     1     -13.786   9.034  21.148  0.00  0.00    +0.000 C 
ATOM      9  C   UNL     1     -14.086   8.754  22.642  0.00  0.00    +0.032 C 
ATOM     10  C   UNL     1     -12.464   9.802  21.003  0.00  0.00    +0.012 C 
ATOM     11  C   UNL     1     -12.483  11.145  21.756  0.00  0.00    +0.023 C 
ATOM     13  C   UNL     1     -13.027  10.994  23.162  0.00  0.00    -0.073 C 
ATOM     14  C   UNL     1     -13.730   9.912  23.543  0.00  0.00    -0.022 C 
ATOM     19  C   UNL     1     -12.705  12.094  24.135  0.00  0.00    +0.039 C 
ENDROOT
BRANCH   8  12
ATOM     12  C   UNL     1     -13.727   7.742  20.329  0.00  0.00    -0.013 C 
ATOM     17  C   UNL     1     -12.711   6.776  20.928  0.00  0.00    +0.007 C 
ATOM     18  C   UNL     1     -13.388   8.049  18.873  0.00  0.00    +0.007 C 
ENDBRANCH   8  12
BRANCH   9  15
ATOM     15  C   UNL     1     -15.559   8.381  22.849  0.00  0.00    +0.112 C 
BRANCH  15   4
ATOM      2  O   UNL     1     -16.510   5.963  21.628  0.00  0.00    -0.270 OA
ATOM      4  N   UNL     1     -15.676   7.100  23.471  0.00  0.00    -0.311 N 
ATOM     21  C   UNL     1     -16.150   5.972  22.802  0.00  0.00    +0.247 C 
ATOM     34  H   UNL     1     -15.393   7.027  24.443  0.00  0.00    +0.149 HD
BRANCH  21  23
ATOM      6  N   UNL     1     -16.213   3.600  25.727  0.00  0.00    -0.243 NA
ATOM      7  N   UNL     1     -16.505   2.331  23.700  0.00  0.00    -0.243 NA
ATOM     23  C   UNL     1     -16.237   4.721  23.597  0.00  0.00    +0.073 A 
ATOM     25  C   UNL     1     -16.139   4.717  24.973  0.00  0.00    +0.127 A 
ATOM     26  C   UNL     1     -16.422   3.486  23.008  0.00  0.00    +0.127 A 
ATOM     32  C   UNL     1     -16.395   2.458  25.036  0.00  0.00    +0.221 A 
ENDBRANCH  21  23
ENDBRANCH  15   4
ENDBRANCH   9  15
BRANCH  11  16
ATOM     16  C   UNL     1     -13.269  12.205  20.975  0.00  0.00    +0.103 C 
BRANCH  16  20
ATOM      1  O   UNL     1     -13.677  11.975  18.602  0.00  0.00    -0.276 OA
ATOM      5  N   UNL     1     -11.558  12.570  19.347  0.00  0.00    -0.311 N 
ATOM     20  C   UNL     1     -12.892  12.229  19.511  0.00  0.00    +0.214 C 
ATOM     35  H   UNL     1     -10.986  12.767  20.164  0.00  0.00    +0.149 HD
BRANCH   5  22
ATOM     22  C   UNL     1     -10.923  12.669  18.053  0.00  0.00    +0.139 C 
BRANCH  22  24
ATOM     24  C   UNL     1     -10.781  11.330  17.391  0.00  0.00    -0.030 A 
ATOM     27  C   UNL     1     -10.203  10.266  18.083  0.00  0.00    +0.009 A 
ATOM     28  C   UNL     1     -11.230  11.148  16.082  0.00  0.00    +0.009 A 
ATOM     29  C   UNL     1     -10.072   9.022  17.468  0.00  0.00    +0.046 A 
ATOM     30  C   UNL     1     -11.100   9.903  15.467  0.00  0.00    +0.046 A 
ATOM     31  C   UNL     1     -10.521   8.840  16.160  0.00  0.00    +0.120 A 
BRANCH  31   3
ATOM      3  O   UNL     1     -10.395   7.625  15.559  0.00  0.00    -0.495 OA
ATOM     33  C   UNL     1     -10.234   7.615  14.142  0.00  0.00    +0.277 C 
ENDBRANCH  31   3
ENDBRANCH  22  24
ENDBRANCH   5  22
ENDBRANCH  16  20
ENDBRANCH  11  16
TORSDOF 9
ENDMDL
MODEL 6
REMARK VINA RESULT:      -6.0     24.458     26.899
REMARK  Name = 38027816
REMARK  13 active torsions:
REMARK  status: ('A' for Active; 'I' for Inactive)
REMARK    1  A    between atoms: O_3  and  C_31
REMARK    2  A    between atoms: O_3  and  C_33
REMARK    3  A    between atoms: N_4  and  C_15
REMARK    4  A    between atoms: N_5  and  C_22
REMARK    5  A    between atoms: C_8  and  C_12
REMARK    6  A    between atoms: C_9  and  C_15
REMARK    7  A    between atoms: C_11  and  C_16
REMARK    8  A    between atoms: C_12  and  C_17
REMARK    9  A    between atoms: C_12  and  C_18
REMARK   10  A    between atoms: C_13  and  C_19
REMARK   11  A    between atoms: C_16  and  C_20
REMARK   12  A    between atoms: C_21  and  C_23
REMARK   13  A    between atoms: C_22  and  C_24
REMARK                            x       y       z     vdW  Elec       q    Type
REMARK                         _______ _______ _______ _____ _____    ______ ____
ROOT
ATOM      8  C   UNL     1       8.928   8.764   4.992  0.00  0.00    +0.000 C 
ATOM      9  C   UNL     1       8.781   9.260   6.452  0.00  0.00    +0.032 C 
ATOM     10  C   UNL     1       8.414   7.322   4.863  0.00  0.00    +0.012 C 
ATOM     11  C   UNL     1       9.170   6.348   5.787  0.00  0.00    +0.023 C 
ATOM     13  C   UNL     1       9.302   6.896   7.194  0.00  0.00    -0.073 C 
ATOM     14  C   UNL     1       9.112   8.198   7.474  0.00  0.00    -0.022 C 
ATOM     19  C   UNL     1       9.613   5.904   8.280  0.00  0.00    +0.039 C 
ENDROOT
BRANCH   8  12
ATOM     12  C   UNL     1       8.184   9.669   4.007  0.00  0.00    -0.013 C 
ATOM     17  C   UNL     1       6.787   9.990   4.528  0.00  0.00    +0.007 C 
ATOM     18  C   UNL     1       8.110   9.013   2.632  0.00  0.00    +0.007 C 
ENDBRANCH   8  12
BRANCH   9  15
ATOM     15  C   UNL     1       9.650  10.498   6.705  0.00  0.00    +0.112 C 
BRANCH  15   4
ATOM      2  O   UNL     1      11.643  10.733   8.758  0.00  0.00    -0.270 OA
ATOM      4  N   UNL     1       9.455  10.994   8.031  0.00  0.00    -0.311 N 
ATOM     21  C   UNL     1      10.483  11.073   8.970  0.00  0.00    +0.247 C 
ATOM     34  H   UNL     1       8.520  11.300   8.280  0.00  0.00    +0.149 HD
BRANCH  21  23
ATOM      6  N   UNL     1      10.756  12.429  12.474  0.00  0.00    -0.243 NA
ATOM      7  N   UNL     1       8.423  12.182  11.923  0.00  0.00    -0.243 NA
ATOM     23  C   UNL     1      10.111  11.586  10.314  0.00  0.00    +0.073 A 
ATOM     25  C   UNL     1      11.057  11.960  11.245  0.00  0.00    +0.127 A 
ATOM     26  C   UNL     1       8.796  11.721  10.712  0.00  0.00    +0.127 A 
ATOM     32  C   UNL     1       9.438  12.514  12.743  0.00  0.00    +0.221 A 
ENDBRANCH  21  23
ENDBRANCH  15   4
ENDBRANCH   9  15
BRANCH  11  16
ATOM     16  C   UNL     1      10.542   5.989   5.207  0.00  0.00    +0.103 C 
BRANCH  16  20
ATOM      1  O   UNL     1      10.050   3.623   5.103  0.00  0.00    -0.276 OA
ATOM      5  N   UNL     1      11.199   4.631   3.353  0.00  0.00    -0.311 N 
ATOM     20  C   UNL     1      10.552   4.614   4.579  0.00  0.00    +0.214 C 
ATOM     35  H   UNL     1      11.582   5.504   3.000  0.00  0.00    +0.149 HD
BRANCH   5  22
ATOM     22  C   UNL     1      11.360   3.455   2.529  0.00  0.00    +0.139 C 
BRANCH  22  24
ATOM     24  C   UNL     1      12.413   3.644   1.476  0.00  0.00    -0.030 A 
ATOM     27  C   UNL     1      12.045   3.927   0.161  0.00  0.00    +0.009 A 
ATOM     28  C   UNL     1      13.763   3.539   1.815  0.00  0.00    +0.009 A 
ATOM     29  C   UNL     1      13.024   4.104  -0.815  0.00  0.00    +0.046 A 
ATOM     30  C   UNL     1      14.743   3.716   0.837  0.00  0.00    +0.046 A 
ATOM     31  C   UNL     1      14.373   3.999  -0.477  0.00  0.00    +0.120 A 
BRANCH  31   3
ATOM      3  O   UNL     1      15.329   4.172  -1.430  0.00  0.00    -0.495 OA
ATOM     33  C   UNL     1      15.320   5.407  -2.142  0.00  0.00    +0.277 C 
ENDBRANCH  31   3
ENDBRANCH  22  24
ENDBRANCH   5  22
ENDBRANCH  16  20
ENDBRANCH  11  16
TORSDOF 9
ENDMDL
MODEL 7
REMARK VINA RESULT:      -5.9     29.253     32.636
REMARK  Name = 38027816
REMARK  13 active torsions:
REMARK  status: ('A' for Active; 'I' for Inactive)
REMARK    1  A    between atoms: O_3  and  C_31
REMARK    2  A    between atoms: O_3  and  C_33
REMARK    3  A    between atoms: N_4  and  C_15
REMARK    4  A    between atoms: N_5  and  C_22
REMARK    5  A    between atoms: C_8  and  C_12
REMARK    6  A    between atoms: C_9  and  C_15
REMARK    7  A    between atoms: C_11  and  C_16
REMARK    8  A    between atoms: C_12  and  C_17
REMARK    9  A    between atoms: C_12  and  C_18
REMARK   10  A    between atoms: C_13  and  C_19
REMARK   11  A    between atoms: C_16  and  C_20
REMARK   12  A    between atoms: C_21  and  C_23
REMARK   13  A    between atoms: C_22  and  C_24
REMARK                            x       y       z     vdW  Elec       q    Type
REMARK                         _______ _______ _______ _____ _____    ______ ____
ROOT
ATOM      8  C   UNL     1      21.116   6.428  21.542  0.00  0.00    +0.000 C 
ATOM      9  C   UNL     1      19.639   6.892  21.505  0.00  0.00    +0.032 C 
ATOM     10  C   UNL     1      21.968   7.417  22.352  0.00  0.00    +0.012 C 
ATOM     11  C   UNL     1      21.919   8.841  21.769  0.00  0.00    +0.023 C 
ATOM     13  C   UNL     1      20.501   9.272  21.452  0.00  0.00    -0.073 C 
ATOM     14  C   UNL     1      19.492   8.387  21.351  0.00  0.00    -0.022 C 
ATOM     19  C   UNL     1      20.259  10.747  21.299  0.00  0.00    +0.039 C 
ENDROOT
BRANCH   8  12
ATOM     12  C   UNL     1      21.255   5.021  22.131  0.00  0.00    -0.013 C 
ATOM     17  C   UNL     1      22.236   5.027  23.298  0.00  0.00    +0.007 C 
ATOM     18  C   UNL     1      21.700   4.035  21.055  0.00  0.00    +0.007 C 
ENDBRANCH   8  12
BRANCH   9  15
ATOM     15  C   UNL     1      18.866   6.185  20.384  0.00  0.00    +0.112 C 
BRANCH  15   4
ATOM      2  O   UNL     1      16.892   5.501  18.415  0.00  0.00    -0.270 OA
ATOM      4  N   UNL     1      17.506   6.622  20.352  0.00  0.00    -0.311 N 
ATOM     21  C   UNL     1      16.610   6.241  19.354  0.00  0.00    +0.247 C 
ATOM     34  H   UNL     1      17.195   7.234  21.100  0.00  0.00    +0.149 HD
BRANCH  21  23
ATOM      6  N   UNL     1      13.235   7.208  20.720  0.00  0.00    -0.243 NA
ATOM      7  N   UNL     1      13.393   7.976  18.441  0.00  0.00    -0.243 NA
ATOM     23  C   UNL     1      15.238   6.803  19.448  0.00  0.00    +0.073 A 
ATOM     25  C   UNL     1      14.483   6.709  20.599  0.00  0.00    +0.127 A 
ATOM     26  C   UNL     1      14.636   7.455  18.390  0.00  0.00    +0.127 A 
ATOM     32  C   UNL     1      12.758   7.820  19.619  0.00  0.00    +0.221 A 
ENDBRANCH  21  23
ENDBRANCH  15   4
ENDBRANCH   9  15
BRANCH  11  16
ATOM     16  C   UNL     1      22.818   8.965  20.535  0.00  0.00    +0.103 C 
BRANCH  16  20
ATOM      1  O   UNL     1      25.016   8.938  21.545  0.00  0.00    -0.276 OA
ATOM      5  N   UNL     1      24.426   7.265  20.044  0.00  0.00    -0.311 N 
ATOM     20  C   UNL     1      24.205   8.417  20.785  0.00  0.00    +0.214 C 
ATOM     35  H   UNL     1      23.690   6.907  19.442  0.00  0.00    +0.149 HD
BRANCH   5  22
ATOM     22  C   UNL     1      25.667   6.527  20.085  0.00  0.00    +0.139 C 
BRANCH  22  24
ATOM     24  C   UNL     1      25.453   5.083  20.434  0.00  0.00    -0.030 A 
ATOM     27  C   UNL     1      25.531   4.666  21.763  0.00  0.00    +0.009 A 
ATOM     28  C   UNL     1      25.172   4.157  19.429  0.00  0.00    +0.009 A 
ATOM     29  C   UNL     1      25.331   3.326  22.087  0.00  0.00    +0.046 A 
ATOM     30  C   UNL     1      24.972   2.815  19.754  0.00  0.00    +0.046 A 
ATOM     31  C   UNL     1      25.051   2.399  21.082  0.00  0.00    +0.120 A 
BRANCH  31   3
ATOM      3  O   UNL     1      24.854   1.090  21.398  0.00  0.00    -0.495 OA
ATOM     33  C   UNL     1      25.023   0.719  22.764  0.00  0.00    +0.277 C 
ENDBRANCH  31   3
ENDBRANCH  22  24
ENDBRANCH   5  22
ENDBRANCH  16  20
ENDBRANCH  11  16
TORSDOF 9
ENDMDL
MODEL 8
REMARK VINA RESULT:      -5.8     25.073     29.685
REMARK  Name = 38027816
REMARK  13 active torsions:
REMARK  status: ('A' for Active; 'I' for Inactive)
REMARK    1  A    between atoms: O_3  and  C_31
REMARK    2  A    between atoms: O_3  and  C_33
REMARK    3  A    between atoms: N_4  and  C_15
REMARK    4  A    between atoms: N_5  and  C_22
REMARK    5  A    between atoms: C_8  and  C_12
REMARK    6  A    between atoms: C_9  and  C_15
REMARK    7  A    between atoms: C_11  and  C_16
REMARK    8  A    between atoms: C_12  and  C_17
REMARK    9  A    between atoms: C_12  and  C_18
REMARK   10  A    between atoms: C_13  and  C_19
REMARK   11  A    between atoms: C_16  and  C_20
REMARK   12  A    between atoms: C_21  and  C_23
REMARK   13  A    between atoms: C_22  and  C_24
REMARK                            x       y       z     vdW  Elec       q    Type
REMARK                         _______ _______ _______ _____ _____    ______ ____
ROOT
ATOM      8  C   UNL     1      10.867   5.898   5.265  0.00  0.00    +0.000 C 
ATOM      9  C   UNL     1      10.830   5.740   3.725  0.00  0.00    +0.032 C 
ATOM     10  C   UNL     1      11.086   7.369   5.648  0.00  0.00    +0.012 C 
ATOM     11  C   UNL     1      12.395   7.935   5.069  0.00  0.00    +0.023 C 
ATOM     13  C   UNL     1      12.559   7.586   3.603  0.00  0.00    -0.073 C 
ATOM     14  C   UNL     1      11.841   6.610   3.017  0.00  0.00    -0.022 C 
ATOM     19  C   UNL     1      13.535   8.414   2.814  0.00  0.00    +0.039 C 
ENDROOT
BRANCH   8  12
ATOM     12  C   UNL     1       9.586   5.376   5.921  0.00  0.00    -0.013 C 
ATOM     17  C   UNL     1       8.393   6.236   5.519  0.00  0.00    +0.007 C 
ATOM     18  C   UNL     1       9.741   5.341   7.438  0.00  0.00    +0.007 C 
ENDBRANCH   8  12
BRANCH   9  15
ATOM     15  C   UNL     1      11.038   4.278   3.313  0.00  0.00    +0.112 C 
BRANCH  15   4
ATOM      2  O   UNL     1       9.810   4.013   0.732  0.00  0.00    -0.270 OA
ATOM      4  N   UNL     1      11.708   4.196   2.054  0.00  0.00    -0.311 N 
ATOM     21  C   UNL     1      11.031   4.067   0.841  0.00  0.00    +0.247 C 
ATOM     34  H   UNL     1      12.722   4.238   2.062  0.00  0.00    +0.149 HD
BRANCH  21  23
ATOM      6  N   UNL     1      12.088   3.505  -2.731  0.00  0.00    -0.243 NA
ATOM      7  N   UNL     1      14.023   4.148  -1.446  0.00  0.00    -0.243 NA
ATOM     23  C   UNL     1      11.874   3.967  -0.378  0.00  0.00    +0.073 A 
ATOM     25  C   UNL     1      11.353   3.607  -1.604  0.00  0.00    +0.127 A 
ATOM     26  C   UNL     1      13.229   4.230  -0.359  0.00  0.00    +0.127 A 
ATOM     32  C   UNL     1      13.397   3.786  -2.582  0.00  0.00    +0.221 A 
ENDBRANCH  21  23
ENDBRANCH  15   4
ENDBRANCH   9  15
BRANCH  11  16
ATOM     16  C   UNL     1      13.607   7.467   5.882  0.00  0.00    +0.103 C 
BRANCH  16  20
ATOM      1  O   UNL     1      14.136   9.643   6.799  0.00  0.00    -0.276 OA
ATOM      5  N   UNL     1      15.832   8.343   5.886  0.00  0.00    -0.311 N 
ATOM     20  C   UNL     1      14.521   8.614   6.251  0.00  0.00    +0.214 C 
ATOM     35  H   UNL     1      16.055   7.459   5.438  0.00  0.00    +0.149 HD
BRANCH   5  22
ATOM     22  C   UNL     1      16.921   9.264   6.116  0.00  0.00    +0.139 C 
BRANCH  22  24
ATOM     24  C   UNL     1      18.252   8.658   5.776  0.00  0.00    -0.030 A 
ATOM     27  C   UNL     1      18.484   8.155   4.496  0.00  0.00    +0.009 A 
ATOM     28  C   UNL     1      19.258   8.600   6.740  0.00  0.00    +0.009 A 
ATOM     29  C   UNL     1      19.720   7.593   4.180  0.00  0.00    +0.046 A 
ATOM     30  C   UNL     1      20.495   8.038   6.424  0.00  0.00    +0.046 A 
ATOM     31  C   UNL     1      20.726   7.535   5.144  0.00  0.00    +0.120 A 
BRANCH  31   3
ATOM      3  O   UNL     1      21.934   6.988   4.837  0.00  0.00    -0.495 OA
ATOM     33  C   UNL     1      22.044   6.320   3.582  0.00  0.00    +0.277 C 
ENDBRANCH  31   3
ENDBRANCH  22  24
ENDBRANCH   5  22
ENDBRANCH  16  20
ENDBRANCH  11  16
TORSDOF 9
ENDMDL
MODEL 9
REMARK VINA RESULT:      -5.8     22.438     27.025
REMARK  Name = 38027816
REMARK  13 active torsions:
REMARK  status: ('A' for Active; 'I' for Inactive)
REMARK    1  A    between atoms: O_3  and  C_31
REMARK    2  A    between atoms: O_3  and  C_33
REMARK    3  A    between atoms: N_4  and  C_15
REMARK    4  A    between atoms: N_5  and  C_22
REMARK    5  A    between atoms: C_8  and  C_12
REMARK    6  A    between atoms: C_9  and  C_15
REMARK    7  A    between atoms: C_11  and  C_16
REMARK    8  A    between atoms: C_12  and  C_17
REMARK    9  A    between atoms: C_12  and  C_18
REMARK   10  A    between atoms: C_13  and  C_19
REMARK   11  A    between atoms: C_16  and  C_20
REMARK   12  A    between atoms: C_21  and  C_23
REMARK   13  A    between atoms: C_22  and  C_24
REMARK                            x       y       z     vdW  Elec       q    Type
REMARK                         _______ _______ _______ _____ _____    ______ ____
ROOT
ATOM      8  C   UNL     1     -12.320   9.408  32.013  0.00  0.00    +0.000 C 
ATOM      9  C   UNL     1     -11.470   9.885  33.218  0.00  0.00    +0.032 C 
ATOM     10  C   UNL     1     -13.731   9.017  32.475  0.00  0.00    +0.012 C 
ATOM     11  C   UNL     1     -13.710   7.896  33.531  0.00  0.00    +0.023 C 
ATOM     13  C   UNL     1     -12.693   8.168  34.621  0.00  0.00    -0.073 C 
ATOM     14  C   UNL     1     -11.707   9.070  34.467  0.00  0.00    -0.022 C 
ATOM     19  C   UNL     1     -12.862   7.413  35.909  0.00  0.00    +0.039 C 
ENDROOT
BRANCH   8  12
ATOM     12  C   UNL     1     -12.409  10.478  30.922  0.00  0.00    -0.013 C 
ATOM     17  C   UNL     1     -13.866  10.797  30.607  0.00  0.00    +0.007 C 
ATOM     18  C   UNL     1     -11.672  10.021  29.667  0.00  0.00    +0.007 C 
ENDBRANCH   8  12
BRANCH   9  15
ATOM     15  C   UNL     1      -9.975   9.875  32.878  0.00  0.00    +0.112 C 
BRANCH  15   4
ATOM      2  O   UNL     1      -8.002  11.846  33.558  0.00  0.00    -0.270 OA
ATOM      4  N   UNL     1      -9.184   9.915  34.067  0.00  0.00    -0.311 N 
ATOM     21  C   UNL     1      -8.243  10.914  34.319  0.00  0.00    +0.247 C 
ATOM     34  H   UNL     1      -9.329   9.177  34.749  0.00  0.00    +0.149 HD
BRANCH  21  23
ATOM      6  N   UNL     1      -6.440  11.835  37.496  0.00  0.00    -0.243 NA
ATOM      7  N   UNL     1      -6.389   9.439  37.248  0.00  0.00    -0.243 NA
ATOM     23  C   UNL     1      -7.482  10.798  35.589  0.00  0.00    +0.073 A 
ATOM     25  C   UNL     1      -7.131  11.902  36.338  0.00  0.00    +0.127 A 
ATOM     26  C   UNL     1      -7.081   9.580  36.099  0.00  0.00    +0.127 A 
ATOM     32  C   UNL     1      -6.107  10.590  37.887  0.00  0.00    +0.221 A 
ENDBRANCH  21  23
ENDBRANCH  15   4
ENDBRANCH   9  15
BRANCH  11  16
ATOM     16  C   UNL     1     -13.465   6.530  32.882  0.00  0.00    +0.103 C 
BRANCH  16  20
ATOM      1  O   UNL     1     -15.082   5.254  34.151  0.00  0.00    -0.276 OA
ATOM      5  N   UNL     1     -15.143   5.191  31.829  0.00  0.00    -0.311 N 
ATOM     20  C   UNL     1     -14.642   5.597  33.057  0.00  0.00    +0.214 C 
ATOM     35  H   UNL     1     -14.712   5.533  30.974  0.00  0.00    +0.149 HD
BRANCH   5  22
ATOM     22  C   UNL     1     -16.269   4.296  31.693  0.00  0.00    +0.139 C 
BRANCH  22  24
ATOM     24  C   UNL     1     -15.871   2.978  31.094  0.00  0.00    -0.030 A 
ATOM     27  C   UNL     1     -16.400   2.580  29.867  0.00  0.00    +0.009 A 
ATOM     28  C   UNL     1     -14.970   2.152  31.766  0.00  0.00    +0.009 A 
ATOM     29  C   UNL     1     -16.030   1.356  29.311  0.00  0.00    +0.046 A 
ATOM     30  C   UNL     1     -14.599   0.927  31.210  0.00  0.00    +0.046 A 
ATOM     31  C   UNL     1     -15.129   0.529  29.982  0.00  0.00    +0.120 A 
BRANCH  31   3
ATOM      3  O   UNL     1     -14.766  -0.665  29.440  0.00  0.00    -0.495 OA
ATOM     33  C   UNL     1     -13.377  -0.986  29.449  0.00  0.00    +0.277 C 
ENDBRANCH  31   3
ENDBRANCH  22  24
ENDBRANCH   5  22
ENDBRANCH  16  20
ENDBRANCH  11  16
TORSDOF 9
ENDMDL
MODEL 10
REMARK VINA RESULT:      -5.7     20.358     24.137
REMARK  Name = 38027816
REMARK  13 active torsions:
REMARK  status: ('A' for Active; 'I' for Inactive)
REMARK    1  A    between atoms: O_3  and  C_31
REMARK    2  A    between atoms: O_3  and  C_33
REMARK    3  A    between atoms: N_4  and  C_15
REMARK    4  A    between atoms: N_5  and  C_22
REMARK    5  A    between atoms: C_8  and  C_12
REMARK    6  A    between atoms: C_9  and  C_15
REMARK    7  A    between atoms: C_11  and  C_16
REMARK    8  A    between atoms: C_12  and  C_17
REMARK    9  A    between atoms: C_12  and  C_18
REMARK   10  A    between atoms: C_13  and  C_19
REMARK   11  A    between atoms: C_16  and  C_20
REMARK   12  A    between atoms: C_21  and  C_23
REMARK   13  A    between atoms: C_22  and  C_24
REMARK                            x       y       z     vdW  Elec       q    Type
REMARK                         _______ _______ _______ _____ _____    ______ ____
ROOT
ATOM      8  C   UNL     1     -16.217   4.592  32.591  0.00  0.00    +0.000 C 
ATOM      9  C   UNL     1     -15.062   3.821  33.277  0.00  0.00    +0.032 C 
ATOM     10  C   UNL     1     -16.943   3.685  31.586  0.00  0.00    +0.012 C 
ATOM     11  C   UNL     1     -15.998   3.150  30.494  0.00  0.00    +0.023 C 
ATOM     13  C   UNL     1     -14.707   2.613  31.080  0.00  0.00    -0.073 C 
ATOM     14  C   UNL     1     -14.312   2.914  32.331  0.00  0.00    -0.022 C 
ATOM     19  C   UNL     1     -13.903   1.686  30.212  0.00  0.00    +0.039 C 
ENDROOT
BRANCH   8  12
ATOM     12  C   UNL     1     -17.218   5.141  33.610  0.00  0.00    -0.013 C 
ATOM     17  C   UNL     1     -18.596   4.527  33.388  0.00  0.00    +0.007 C 
ATOM     18  C   UNL     1     -17.285   6.663  33.524  0.00  0.00    +0.007 C 
ENDBRANCH   8  12
BRANCH   9  15
ATOM     15  C   UNL     1     -14.076   4.786  33.947  0.00  0.00    +0.112 C 
BRANCH  15   4
ATOM      2  O   UNL     1     -13.563   7.519  34.660  0.00  0.00    -0.270 OA
ATOM      4  N   UNL     1     -13.720   5.847  33.059  0.00  0.00    -0.311 N 
ATOM     21  C   UNL     1     -13.488   7.153  33.491  0.00  0.00    +0.247 C 
ATOM     34  H   UNL     1     -13.634   5.620  32.073  0.00  0.00    +0.149 HD
BRANCH  21  23
ATOM      6  N   UNL     1     -13.858   9.729  30.768  0.00  0.00    -0.243 NA
ATOM      7  N   UNL     1     -11.510   9.353  31.158  0.00  0.00    -0.243 NA
ATOM     23  C   UNL     1     -13.153   8.146  32.438  0.00  0.00    +0.073 A 
ATOM     25  C   UNL     1     -14.125   8.821  31.729  0.00  0.00    +0.127 A 
ATOM     26  C   UNL     1     -11.849   8.457  32.108  0.00  0.00    +0.127 A 
ATOM     32  C   UNL     1     -12.549   9.944  30.537  0.00  0.00    +0.221 A 
ENDBRANCH  21  23
ENDBRANCH  15   4
ENDBRANCH   9  15
BRANCH  11  16
ATOM     16  C   UNL     1     -15.715   4.220  29.435  0.00  0.00    +0.103 C 
BRANCH  16  20
ATOM      1  O   UNL     1     -17.733   4.294  28.102  0.00  0.00    -0.276 OA
ATOM      5  N   UNL     1     -15.771   3.473  27.164  0.00  0.00    -0.311 N 
ATOM     20  C   UNL     1     -16.540   4.015  28.184  0.00  0.00    +0.214 C 
ATOM     35  H   UNL     1     -14.787   3.278  27.327  0.00  0.00    +0.149 HD
BRANCH   5  22
ATOM     22  C   UNL     1     -16.299   3.169  25.854  0.00  0.00    +0.139 C 
BRANCH  22  24
ATOM     24  C   UNL     1     -16.071   4.289  24.881  0.00  0.00    -0.030 A 
ATOM     27  C   UNL     1     -14.928   4.298  24.082  0.00  0.00    +0.009 A 
ATOM     28  C   UNL     1     -17.004   5.321  24.775  0.00  0.00    +0.009 A 
ATOM     29  C   UNL     1     -14.717   5.337  23.177  0.00  0.00    +0.046 A 
ATOM     30  C   UNL     1     -16.792   6.361  23.869  0.00  0.00    +0.046 A 
ATOM     31  C   UNL     1     -15.649   6.370  23.071  0.00  0.00    +0.120 A 
BRANCH  31   3
ATOM      3  O   UNL     1     -15.444   7.385  22.188  0.00  0.00    -0.495 OA
ATOM     33  C   UNL     1     -14.097   7.802  21.978  0.00  0.00    +0.277 C 
ENDBRANCH  31   3
ENDBRANCH  22  24
ENDBRANCH   5  22
ENDBRANCH  16  20
ENDBRANCH  11  16
TORSDOF 9
ENDMDL
