MODEL 1
REMARK VINA RESULT:      -7.9      0.000      0.000
REMARK  Name = 38344145
REMARK  8 active torsions:
REMARK  status: ('A' for Active; 'I' for Inactive)
REMARK    1  A    between atoms: N_5  and  C_12
REMARK    2  A    between atoms: N_6  and  C_20
REMARK    3  A    between atoms: N_8  and  C_27
REMARK    4  A    between atoms: C_10  and  C_13
REMARK    5  A    between atoms: C_16  and  C_18
REMARK    6  A    between atoms: C_17  and  C_19
REMARK    7  A    between atoms: C_26  and  C_28
REMARK    8  A    between atoms: C_31  and  C_34
REMARK                            x       y       z     vdW  Elec       q    Type
REMARK                         _______ _______ _______ _____ _____    ______ ____
ROOT
ATOM     10  C   UNL     1     -15.563   4.147  23.536  0.00  0.00    +0.047 C 
ATOM     11  C   UNL     1     -16.095   4.688  24.879  0.00  0.00    +0.039 C 
ATOM     12  C   UNL     1     -17.069   3.625  25.403  0.00  0.00    +0.098 C 
ATOM     14  C   UNL     1     -16.623   3.158  23.145  0.00  0.00    -0.021 C 
ATOM     15  C   UNL     1     -17.438   2.875  24.165  0.00  0.00    -0.009 C 
ENDROOT
BRANCH  10  13
ATOM      6  N   UNL     1     -14.374   6.614  21.103  0.00  0.00    -0.236 N 
ATOM      7  N   UNL     1     -15.676   6.943  21.050  0.00  0.00    -0.171 NA
ATOM     13  C   UNL     1     -15.303   5.232  22.516  0.00  0.00    +0.003 A 
ATOM     16  C   UNL     1     -14.097   5.595  21.966  0.00  0.00    +0.046 A 
ATOM     17  C   UNL     1     -16.238   6.095  21.916  0.00  0.00    +0.064 A 
ATOM     18  C   UNL     1     -12.737   5.065  22.186  0.00  0.00    +0.066 C 
ATOM     19  C   UNL     1     -17.694   6.147  22.139  0.00  0.00    +0.068 C 
BRANCH   6  20
ATOM     20  C   UNL     1     -13.453   7.304  20.313  0.00  0.00    +0.066 A 
ATOM     22  C   UNL     1     -12.174   7.568  20.802  0.00  0.00    +0.028 A 
ATOM     23  C   UNL     1     -13.814   7.732  19.035  0.00  0.00    +0.028 A 
ATOM     24  C   UNL     1     -11.255   8.260  20.013  0.00  0.00    +0.014 A 
ATOM     25  C   UNL     1     -12.895   8.424  18.247  0.00  0.00    +0.014 A 
ATOM     26  C   UNL     1     -11.616   8.689  18.735  0.00  0.00    +0.055 A 
BRANCH  26  28
ATOM      1  F   UNL     1      -9.790   8.616  17.193  0.00  0.00    -0.166 F 
ATOM      2  F   UNL     1      -9.825  10.249  18.628  0.00  0.00    -0.166 F 
ATOM      3  F   UNL     1     -11.215  10.234  16.955  0.00  0.00    -0.166 F 
ATOM     28  C   UNL     1     -10.634   9.430  17.894  0.00  0.00    +0.417 C 
ENDBRANCH  26  28
ENDBRANCH   6  20
ENDBRANCH  10  13
BRANCH  12   5
ATOM      4  O   UNL     1     -16.609   4.095  28.192  0.00  0.00    -0.252 OA
ATOM      5  N   UNL     1     -16.454   2.720  26.338  0.00  0.00    -0.293 N 
ATOM      8  N   UNL     1     -15.645   1.961  28.354  0.00  0.00    -0.269 N 
ATOM     21  C   UNL     1     -16.264   3.026  27.694  0.00  0.00    +0.304 C 
ATOM     35  H   UNL     1     -16.095   1.834  25.996  0.00  0.00    +0.151 HD
ATOM     36  H   UNL     1     -15.423   1.143  27.792  0.00  0.00    +0.156 HD
BRANCH   8  27
ATOM     27  C   UNL     1     -15.284   1.877  29.719  0.00  0.00    +0.036 A 
ATOM     29  C   UNL     1     -14.923   3.028  30.418  0.00  0.00    +0.042 A 
ATOM     30  C   UNL     1     -15.292   0.641  30.367  0.00  0.00    +0.023 A 
ATOM     31  C   UNL     1     -14.567   2.945  31.764  0.00  0.00    +0.054 A 
ATOM     32  C   UNL     1     -14.936   0.558  31.713  0.00  0.00    +0.003 A 
ATOM     33  C   UNL     1     -14.573   1.709  32.412  0.00  0.00    +0.019 A 
BRANCH  31  34
ATOM      9  N   UNL     1     -13.894   5.082  33.062  0.00  0.00    -0.191 NA
ATOM     34  C   UNL     1     -14.196   4.124  32.480  0.00  0.00    +0.099 C 
ENDBRANCH  31  34
ENDBRANCH   8  27
ENDBRANCH  12   5
TORSDOF 6
ENDMDL
MODEL 2
REMARK VINA RESULT:      -7.8     20.574     22.118
REMARK  Name = 38344145
REMARK  8 active torsions:
REMARK  status: ('A' for Active; 'I' for Inactive)
REMARK    1  A    between atoms: N_5  and  C_12
REMARK    2  A    between atoms: N_6  and  C_20
REMARK    3  A    between atoms: N_8  and  C_27
REMARK    4  A    between atoms: C_10  and  C_13
REMARK    5  A    between atoms: C_16  and  C_18
REMARK    6  A    between atoms: C_17  and  C_19
REMARK    7  A    between atoms: C_26  and  C_28
REMARK    8  A    between atoms: C_31  and  C_34
REMARK                            x       y       z     vdW  Elec       q    Type
REMARK                         _______ _______ _______ _____ _____    ______ ____
ROOT
ATOM     10  C   UNL     1      -5.897  -8.888   9.549  0.00  0.00    +0.047 C 
ATOM     11  C   UNL     1      -6.212 -10.120  10.423  0.00  0.00    +0.039 C 
ATOM     12  C   UNL     1      -5.003 -10.298  11.349  0.00  0.00    +0.098 C 
ATOM     14  C   UNL     1      -4.400  -8.805   9.638  0.00  0.00    -0.021 C 
ATOM     15  C   UNL     1      -3.919  -9.572  10.622  0.00  0.00    -0.009 C 
ENDROOT
BRANCH  10  13
ATOM      6  N   UNL     1      -7.475  -8.642   6.252  0.00  0.00    -0.236 N 
ATOM      7  N   UNL     1      -6.853  -9.817   6.052  0.00  0.00    -0.171 NA
ATOM     13  C   UNL     1      -6.441  -8.997   8.144  0.00  0.00    +0.003 A 
ATOM     16  C   UNL     1      -7.260  -8.109   7.490  0.00  0.00    +0.046 A 
ATOM     17  C   UNL     1      -6.223 -10.028   7.211  0.00  0.00    +0.064 A 
ATOM     18  C   UNL     1      -7.841  -6.825   7.931  0.00  0.00    +0.066 C 
ATOM     19  C   UNL     1      -5.412 -11.246   7.383  0.00  0.00    +0.068 C 
BRANCH   6  20
ATOM     20  C   UNL     1      -8.251  -8.086   5.234  0.00  0.00    +0.066 A 
ATOM     22  C   UNL     1      -7.724  -7.952   3.950  0.00  0.00    +0.028 A 
ATOM     23  C   UNL     1      -9.553  -7.663   5.503  0.00  0.00    +0.028 A 
ATOM     24  C   UNL     1      -8.499  -7.394   2.934  0.00  0.00    +0.014 A 
ATOM     25  C   UNL     1     -10.327  -7.105   4.486  0.00  0.00    +0.014 A 
ATOM     26  C   UNL     1      -9.801  -6.969   3.202  0.00  0.00    +0.055 A 
BRANCH  26  28
ATOM      1  F   UNL     1     -11.933  -6.171   2.468  0.00  0.00    -0.166 F 
ATOM      2  F   UNL     1     -10.668  -7.151   0.995  0.00  0.00    -0.166 F 
ATOM      3  F   UNL     1     -10.182  -5.151   1.696  0.00  0.00    -0.166 F 
ATOM     28  C   UNL     1     -10.628  -6.371   2.116  0.00  0.00    +0.417 C 
ENDBRANCH  26  28
ENDBRANCH   6  20
ENDBRANCH  10  13
BRANCH  12   5
ATOM      4  O   UNL     1      -5.522 -11.652  13.820  0.00  0.00    -0.252 OA
ATOM      5  N   UNL     1      -5.195  -9.690  12.639  0.00  0.00    -0.293 N 
ATOM      8  N   UNL     1      -5.590  -9.571  14.903  0.00  0.00    -0.269 N 
ATOM     21  C   UNL     1      -5.447 -10.426  13.807  0.00  0.00    +0.304 C 
ATOM     35  H   UNL     1      -5.197  -8.677  12.706  0.00  0.00    +0.151 HD
ATOM     36  H   UNL     1      -5.498  -8.574  14.719  0.00  0.00    +0.156 HD
BRANCH   8  27
ATOM     27  C   UNL     1      -5.850  -9.920  16.249  0.00  0.00    +0.036 A 
ATOM     29  C   UNL     1      -4.880 -10.587  16.996  0.00  0.00    +0.042 A 
ATOM     30  C   UNL     1      -7.077  -9.595  16.829  0.00  0.00    +0.023 A 
ATOM     31  C   UNL     1      -5.137 -10.932  18.324  0.00  0.00    +0.054 A 
ATOM     32  C   UNL     1      -7.333  -9.939  18.155  0.00  0.00    +0.003 A 
ATOM     33  C   UNL     1      -6.364 -10.607  18.903  0.00  0.00    +0.019 A 
BRANCH  31  34
ATOM      9  N   UNL     1      -3.338 -12.171  19.713  0.00  0.00    -0.191 NA
ATOM     34  C   UNL     1      -4.144 -11.615  19.090  0.00  0.00    +0.099 C 
ENDBRANCH  31  34
ENDBRANCH   8  27
ENDBRANCH  12   5
TORSDOF 6
ENDMDL
MODEL 3
REMARK VINA RESULT:      -7.8     20.946     22.425
REMARK  Name = 38344145
REMARK  8 active torsions:
REMARK  status: ('A' for Active; 'I' for Inactive)
REMARK    1  A    between atoms: N_5  and  C_12
REMARK    2  A    between atoms: N_6  and  C_20
REMARK    3  A    between atoms: N_8  and  C_27
REMARK    4  A    between atoms: C_10  and  C_13
REMARK    5  A    between atoms: C_16  and  C_18
REMARK    6  A    between atoms: C_17  and  C_19
REMARK    7  A    between atoms: C_26  and  C_28
REMARK    8  A    between atoms: C_31  and  C_34
REMARK                            x       y       z     vdW  Elec       q    Type
REMARK                         _______ _______ _______ _____ _____    ______ ____
ROOT
ATOM     10  C   UNL     1      -4.856  -9.603  10.322  0.00  0.00    +0.047 C 
ATOM     11  C   UNL     1      -4.859 -10.898  11.159  0.00  0.00    +0.039 C 
ATOM     12  C   UNL     1      -3.570 -10.865  11.989  0.00  0.00    +0.098 C 
ATOM     14  C   UNL     1      -3.400  -9.232  10.308  0.00  0.00    -0.021 C 
ATOM     15  C   UNL     1      -2.706  -9.920  11.220  0.00  0.00    -0.009 C 
ENDROOT
BRANCH  10  13
ATOM      6  N   UNL     1      -6.662  -9.534   7.135  0.00  0.00    -0.236 N 
ATOM      7  N   UNL     1      -5.938 -10.641   6.892  0.00  0.00    -0.171 NA
ATOM     13  C   UNL     1      -5.477  -9.773   8.954  0.00  0.00    +0.003 A 
ATOM     16  C   UNL     1      -6.423  -8.976   8.357  0.00  0.00    +0.046 A 
ATOM     17  C   UNL     1      -5.216 -10.781   8.007  0.00  0.00    +0.064 A 
ATOM     18  C   UNL     1      -7.102  -7.756   8.838  0.00  0.00    +0.066 C 
ATOM     19  C   UNL     1      -4.276 -11.910   8.124  0.00  0.00    +0.068 C 
BRANCH   6  20
ATOM     20  C   UNL     1      -7.556  -9.066   6.171  0.00  0.00    +0.066 A 
ATOM     22  C   UNL     1      -7.077  -8.422   5.030  0.00  0.00    +0.028 A 
ATOM     23  C   UNL     1      -8.928  -9.239   6.351  0.00  0.00    +0.028 A 
ATOM     24  C   UNL     1      -7.971  -7.951   4.069  0.00  0.00    +0.014 A 
ATOM     25  C   UNL     1      -9.821  -8.767   5.389  0.00  0.00    +0.014 A 
ATOM     26  C   UNL     1      -9.344  -8.123   4.249  0.00  0.00    +0.055 A 
BRANCH  26  28
ATOM      1  F   UNL     1     -11.148  -8.576   2.745  0.00  0.00    -0.166 F 
ATOM      2  F   UNL     1      -9.667  -7.110   2.121  0.00  0.00    -0.166 F 
ATOM      3  F   UNL     1     -11.108  -6.616   3.673  0.00  0.00    -0.166 F 
ATOM     28  C   UNL     1     -10.298  -7.618   3.221  0.00  0.00    +0.417 C 
ENDBRANCH  26  28
ENDBRANCH   6  20
ENDBRANCH  10  13
BRANCH  12   5
ATOM      4  O   UNL     1      -4.179 -12.376  14.345  0.00  0.00    -0.252 OA
ATOM      5  N   UNL     1      -3.774 -10.345  13.315  0.00  0.00    -0.293 N 
ATOM      8  N   UNL     1      -4.216 -10.376  15.573  0.00  0.00    -0.269 N 
ATOM     21  C   UNL     1      -4.071 -11.155  14.422  0.00  0.00    +0.304 C 
ATOM     35  H   UNL     1      -3.751  -9.340  13.455  0.00  0.00    +0.151 HD
ATOM     36  H   UNL     1      -4.093  -9.372  15.464  0.00  0.00    +0.156 HD
BRANCH   8  27
ATOM     27  C   UNL     1      -4.514 -10.813  16.885  0.00  0.00    +0.036 A 
ATOM     29  C   UNL     1      -5.800 -10.652  17.399  0.00  0.00    +0.042 A 
ATOM     30  C   UNL     1      -3.520 -11.407  17.664  0.00  0.00    +0.023 A 
ATOM     31  C   UNL     1      -6.093 -11.083  18.693  0.00  0.00    +0.054 A 
ATOM     32  C   UNL     1      -3.813 -11.838  18.958  0.00  0.00    +0.003 A 
ATOM     33  C   UNL     1      -5.100 -11.676  19.473  0.00  0.00    +0.019 A 
BRANCH  31  34
ATOM      9  N   UNL     1      -8.481 -10.784  19.649  0.00  0.00    -0.191 NA
ATOM     34  C   UNL     1      -7.410 -10.918  19.220  0.00  0.00    +0.099 C 
ENDBRANCH  31  34
ENDBRANCH   8  27
ENDBRANCH  12   5
TORSDOF 6
ENDMDL
MODEL 4
REMARK VINA RESULT:      -7.7     23.271     26.454
REMARK  Name = 38344145
REMARK  8 active torsions:
REMARK  status: ('A' for Active; 'I' for Inactive)
REMARK    1  A    between atoms: N_5  and  C_12
REMARK    2  A    between atoms: N_6  and  C_20
REMARK    3  A    between atoms: N_8  and  C_27
REMARK    4  A    between atoms: C_10  and  C_13
REMARK    5  A    between atoms: C_16  and  C_18
REMARK    6  A    between atoms: C_17  and  C_19
REMARK    7  A    between atoms: C_26  and  C_28
REMARK    8  A    between atoms: C_31  and  C_34
REMARK                            x       y       z     vdW  Elec       q    Type
REMARK                         _______ _______ _______ _____ _____    ______ ____
ROOT
ATOM     10  C   UNL     1      -4.115 -10.166  10.353  0.00  0.00    +0.047 C 
ATOM     11  C   UNL     1      -4.499 -11.499   9.680  0.00  0.00    +0.039 C 
ATOM     12  C   UNL     1      -5.585 -11.153   8.654  0.00  0.00    +0.098 C 
ATOM     14  C   UNL     1      -5.322  -9.312  10.088  0.00  0.00    -0.021 C 
ATOM     15  C   UNL     1      -6.117  -9.852   9.160  0.00  0.00    -0.009 C 
ENDROOT
BRANCH  10  13
ATOM      6  N   UNL     1      -3.811 -10.628  13.974  0.00  0.00    -0.236 N 
ATOM      7  N   UNL     1      -2.510 -10.397  13.727  0.00  0.00    -0.171 NA
ATOM     13  C   UNL     1      -3.755 -10.316  11.813  0.00  0.00    +0.003 A 
ATOM     16  C   UNL     1      -4.599 -10.590  12.862  0.00  0.00    +0.046 A 
ATOM     17  C   UNL     1      -2.483 -10.207  12.405  0.00  0.00    +0.064 A 
ATOM     18  C   UNL     1      -6.058 -10.816  12.894  0.00  0.00    +0.066 C 
ATOM     19  C   UNL     1      -1.198  -9.922  11.741  0.00  0.00    +0.068 C 
BRANCH   6  20
ATOM     20  C   UNL     1      -4.234 -10.875  15.282  0.00  0.00    +0.066 A 
ATOM     22  C   UNL     1      -4.062 -12.140  15.843  0.00  0.00    +0.028 A 
ATOM     23  C   UNL     1      -4.831  -9.856  16.025  0.00  0.00    +0.028 A 
ATOM     24  C   UNL     1      -4.488 -12.387  17.147  0.00  0.00    +0.014 A 
ATOM     25  C   UNL     1      -5.257 -10.104  17.329  0.00  0.00    +0.014 A 
ATOM     26  C   UNL     1      -5.086 -11.369  17.891  0.00  0.00    +0.055 A 
BRANCH  26  28
ATOM      1  F   UNL     1      -6.590 -12.508  19.361  0.00  0.00    -0.166 F 
ATOM      2  F   UNL     1      -5.963 -10.504  19.925  0.00  0.00    -0.166 F 
ATOM      3  F   UNL     1      -4.574 -12.170  20.085  0.00  0.00    -0.166 F 
ATOM     28  C   UNL     1      -5.543 -11.635  19.285  0.00  0.00    +0.417 C 
ENDBRANCH  26  28
ENDBRANCH   6  20
ENDBRANCH  10  13
BRANCH  12   5
ATOM      4  O   UNL     1      -5.436 -13.119   6.575  0.00  0.00    -0.252 OA
ATOM      5  N   UNL     1      -5.059 -10.965   7.328  0.00  0.00    -0.293 N 
ATOM      8  N   UNL     1      -4.458 -11.509   5.174  0.00  0.00    -0.269 N 
ATOM     21  C   UNL     1      -5.021 -11.982   6.363  0.00  0.00    +0.304 C 
ATOM     35  H   UNL     1      -4.651 -10.066   7.088  0.00  0.00    +0.151 HD
ATOM     36  H   UNL     1      -4.163 -10.535   5.165  0.00  0.00    +0.156 HD
BRANCH   8  27
ATOM     27  C   UNL     1      -4.244 -12.220   3.971  0.00  0.00    +0.036 A 
ATOM     29  C   UNL     1      -2.953 -12.590   3.598  0.00  0.00    +0.042 A 
ATOM     30  C   UNL     1      -5.328 -12.554   3.157  0.00  0.00    +0.023 A 
ATOM     31  C   UNL     1      -2.742 -13.292   2.411  0.00  0.00    +0.054 A 
ATOM     32  C   UNL     1      -5.118 -13.255   1.970  0.00  0.00    +0.003 A 
ATOM     33  C   UNL     1      -3.825 -13.624   1.596  0.00  0.00    +0.019 A 
BRANCH  31  34
ATOM      9  N   UNL     1      -0.344 -13.979   1.718  0.00  0.00    -0.191 NA
ATOM     34  C   UNL     1      -1.420 -13.671   2.029  0.00  0.00    +0.099 C 
ENDBRANCH  31  34
ENDBRANCH   8  27
ENDBRANCH  12   5
TORSDOF 6
ENDMDL
MODEL 5
REMARK VINA RESULT:      -7.5     21.739     25.199
REMARK  Name = 38344145
REMARK  8 active torsions:
REMARK  status: ('A' for Active; 'I' for Inactive)
REMARK    1  A    between atoms: N_5  and  C_12
REMARK    2  A    between atoms: N_6  and  C_20
REMARK    3  A    between atoms: N_8  and  C_27
REMARK    4  A    between atoms: C_10  and  C_13
REMARK    5  A    between atoms: C_16  and  C_18
REMARK    6  A    between atoms: C_17  and  C_19
REMARK    7  A    between atoms: C_26  and  C_28
REMARK    8  A    between atoms: C_31  and  C_34
REMARK                            x       y       z     vdW  Elec       q    Type
REMARK                         _______ _______ _______ _____ _____    ______ ____
ROOT
ATOM     10  C   UNL     1      -4.418 -10.971  10.253  0.00  0.00    +0.047 C 
ATOM     11  C   UNL     1      -5.793 -10.378   9.882  0.00  0.00    +0.039 C 
ATOM     12  C   UNL     1      -5.498  -9.145   9.020  0.00  0.00    +0.098 C 
ATOM     14  C   UNL     1      -3.500  -9.797  10.068  0.00  0.00    -0.021 C 
ATOM     15  C   UNL     1      -4.092  -8.807   9.393  0.00  0.00    -0.009 C 
ENDROOT
BRANCH  10  13
ATOM      6  N   UNL     1      -4.569 -11.961  13.777  0.00  0.00    -0.236 N 
ATOM      7  N   UNL     1      -4.042 -13.104  13.306  0.00  0.00    -0.171 NA
ATOM     13  C   UNL     1      -4.385 -11.588  11.632  0.00  0.00    +0.003 A 
ATOM     16  C   UNL     1      -4.794 -11.020  12.815  0.00  0.00    +0.046 A 
ATOM     17  C   UNL     1      -3.932 -12.869  11.995  0.00  0.00    +0.064 A 
ATOM     18  C   UNL     1      -5.370  -9.691  13.100  0.00  0.00    +0.066 C 
ATOM     19  C   UNL     1      -3.381 -13.916  11.116  0.00  0.00    +0.068 C 
BRANCH   6  20
ATOM     20  C   UNL     1      -4.833 -11.831  15.141  0.00  0.00    +0.066 A 
ATOM     22  C   UNL     1      -6.081 -12.191  15.648  0.00  0.00    +0.028 A 
ATOM     23  C   UNL     1      -3.847 -11.337  15.997  0.00  0.00    +0.028 A 
ATOM     24  C   UNL     1      -6.344 -12.056  17.011  0.00  0.00    +0.014 A 
ATOM     25  C   UNL     1      -4.112 -11.203  17.359  0.00  0.00    +0.014 A 
ATOM     26  C   UNL     1      -5.360 -11.562  17.867  0.00  0.00    +0.055 A 
BRANCH  26  28
ATOM      1  F   UNL     1      -5.978 -10.146  19.693  0.00  0.00    -0.166 F 
ATOM      2  F   UNL     1      -4.573 -11.753  20.103  0.00  0.00    -0.166 F 
ATOM      3  F   UNL     1      -6.674 -12.199  19.760  0.00  0.00    -0.166 F 
ATOM     28  C   UNL     1      -5.643 -11.418  19.323  0.00  0.00    +0.417 C 
ENDBRANCH  26  28
ENDBRANCH   6  20
ENDBRANCH  10  13
BRANCH  12   5
ATOM      4  O   UNL     1      -7.743  -8.734   7.287  0.00  0.00    -0.252 OA
ATOM      5  N   UNL     1      -5.559  -9.424   7.609  0.00  0.00    -0.293 N 
ATOM      8  N   UNL     1      -6.465  -9.560   5.499  0.00  0.00    -0.269 N 
ATOM     21  C   UNL     1      -6.700  -9.195   6.827  0.00  0.00    +0.304 C 
ATOM     35  H   UNL     1      -4.754  -9.853   7.162  0.00  0.00    +0.151 HD
ATOM     36  H   UNL     1      -5.541  -9.927   5.283  0.00  0.00    +0.156 HD
BRANCH   8  27
ATOM     27  C   UNL     1      -7.359  -9.482   4.406  0.00  0.00    +0.036 A 
ATOM     29  C   UNL     1      -7.865  -8.247   4.004  0.00  0.00    +0.042 A 
ATOM     30  C   UNL     1      -7.733 -10.643   3.728  0.00  0.00    +0.023 A 
ATOM     31  C   UNL     1      -8.747  -8.171   2.926  0.00  0.00    +0.054 A 
ATOM     32  C   UNL     1      -8.615 -10.568   2.650  0.00  0.00    +0.003 A 
ATOM     33  C   UNL     1      -9.122  -9.332   2.249  0.00  0.00    +0.019 A 
BRANCH  31  34
ATOM      9  N   UNL     1      -9.689  -5.877   2.180  0.00  0.00    -0.191 NA
ATOM     34  C   UNL     1      -9.267  -6.906   2.514  0.00  0.00    +0.099 C 
ENDBRANCH  31  34
ENDBRANCH   8  27
ENDBRANCH  12   5
TORSDOF 6
ENDMDL
MODEL 6
REMARK VINA RESULT:      -7.4     21.430     25.030
REMARK  Name = 38344145
REMARK  8 active torsions:
REMARK  status: ('A' for Active; 'I' for Inactive)
REMARK    1  A    between atoms: N_5  and  C_12
REMARK    2  A    between atoms: N_6  and  C_20
REMARK    3  A    between atoms: N_8  and  C_27
REMARK    4  A    between atoms: C_10  and  C_13
REMARK    5  A    between atoms: C_16  and  C_18
REMARK    6  A    between atoms: C_17  and  C_19
REMARK    7  A    between atoms: C_26  and  C_28
REMARK    8  A    between atoms: C_31  and  C_34
REMARK                            x       y       z     vdW  Elec       q    Type
REMARK                         _______ _______ _______ _____ _____    ______ ____
ROOT
ATOM     10  C   UNL     1      -5.705  -9.639  10.290  0.00  0.00    +0.047 C 
ATOM     11  C   UNL     1      -4.688  -9.443   9.147  0.00  0.00    +0.039 C 
ATOM     12  C   UNL     1      -5.370  -9.978   7.882  0.00  0.00    +0.098 C 
ATOM     14  C   UNL     1      -6.601 -10.713   9.743  0.00  0.00    -0.021 C 
ATOM     15  C   UNL     1      -6.417 -10.892   8.431  0.00  0.00    -0.009 C 
ENDROOT
BRANCH  10  13
ATOM      6  N   UNL     1      -4.681 -10.450  13.713  0.00  0.00    -0.236 N 
ATOM      7  N   UNL     1      -3.450 -10.418  13.174  0.00  0.00    -0.171 NA
ATOM     13  C   UNL     1      -5.058  -9.970  11.616  0.00  0.00    +0.003 A 
ATOM     16  C   UNL     1      -5.680 -10.188  12.821  0.00  0.00    +0.046 A 
ATOM     17  C   UNL     1      -3.688 -10.125  11.893  0.00  0.00    +0.064 A 
ATOM     18  C   UNL     1      -7.110 -10.170  13.188  0.00  0.00    +0.066 C 
ATOM     19  C   UNL     1      -2.556 -10.001  10.957  0.00  0.00    +0.068 C 
BRANCH   6  20
ATOM     20  C   UNL     1      -4.836 -10.733  15.071  0.00  0.00    +0.066 A 
ATOM     22  C   UNL     1      -4.423 -11.965  15.578  0.00  0.00    +0.028 A 
ATOM     23  C   UNL     1      -5.407  -9.785  15.919  0.00  0.00    +0.028 A 
ATOM     24  C   UNL     1      -4.581 -12.249  16.934  0.00  0.00    +0.014 A 
ATOM     25  C   UNL     1      -5.566 -10.070  17.275  0.00  0.00    +0.014 A 
ATOM     26  C   UNL     1      -5.154 -11.301  17.783  0.00  0.00    +0.055 A 
BRANCH  26  28
ATOM      1  F   UNL     1      -6.238 -12.590  19.482  0.00  0.00    -0.166 F 
ATOM      2  F   UNL     1      -5.746 -10.524  19.951  0.00  0.00    -0.166 F 
ATOM      3  F   UNL     1      -4.175 -12.024  19.842  0.00  0.00    -0.166 F 
ATOM     28  C   UNL     1      -5.323 -11.606  19.233  0.00  0.00    +0.417 C 
ENDBRANCH  26  28
ENDBRANCH   6  20
ENDBRANCH  10  13
BRANCH  12   5
ATOM      4  O   UNL     1      -7.152 -10.339   5.668  0.00  0.00    -0.252 OA
ATOM      5  N   UNL     1      -6.004  -8.942   7.111  0.00  0.00    -0.293 N 
ATOM      8  N   UNL     1      -7.330  -8.006   5.480  0.00  0.00    -0.269 N 
ATOM     21  C   UNL     1      -6.867  -9.202   6.036  0.00  0.00    +0.304 C 
ATOM     35  H   UNL     1      -5.783  -7.973   7.319  0.00  0.00    +0.151 HD
ATOM     36  H   UNL     1      -6.995  -7.145   5.906  0.00  0.00    +0.156 HD
BRANCH   8  27
ATOM     27  C   UNL     1      -8.213  -7.841   4.388  0.00  0.00    +0.036 A 
ATOM     29  C   UNL     1      -7.840  -8.276   3.116  0.00  0.00    +0.042 A 
ATOM     30  C   UNL     1      -9.459  -7.243   4.583  0.00  0.00    +0.023 A 
ATOM     31  C   UNL     1      -8.712  -8.113   2.039  0.00  0.00    +0.054 A 
ATOM     32  C   UNL     1     -10.330  -7.080   3.507  0.00  0.00    +0.003 A 
ATOM     33  C   UNL     1      -9.957  -7.514   2.234  0.00  0.00    +0.019 A 
BRANCH  31  34
ATOM      9  N   UNL     1      -8.020  -8.919  -0.322  0.00  0.00    -0.191 NA
ATOM     34  C   UNL     1      -8.330  -8.557   0.737  0.00  0.00    +0.099 C 
ENDBRANCH  31  34
ENDBRANCH   8  27
ENDBRANCH  12   5
TORSDOF 6
ENDMDL
MODEL 7
REMARK VINA RESULT:      -7.4     32.421     36.090
REMARK  Name = 38344145
REMARK  8 active torsions:
REMARK  status: ('A' for Active; 'I' for Inactive)
REMARK    1  A    between atoms: N_5  and  C_12
REMARK    2  A    between atoms: N_6  and  C_20
REMARK    3  A    between atoms: N_8  and  C_27
REMARK    4  A    between atoms: C_10  and  C_13
REMARK    5  A    between atoms: C_16  and  C_18
REMARK    6  A    between atoms: C_17  and  C_19
REMARK    7  A    between atoms: C_26  and  C_28
REMARK    8  A    between atoms: C_31  and  C_34
REMARK                            x       y       z     vdW  Elec       q    Type
REMARK                         _______ _______ _______ _____ _____    ______ ____
ROOT
ATOM     10  C   UNL     1      20.872   6.788  20.821  0.00  0.00    +0.047 C 
ATOM     11  C   UNL     1      19.652   5.887  20.540  0.00  0.00    +0.039 C 
ATOM     12  C   UNL     1      18.486   6.505  21.320  0.00  0.00    +0.098 C 
ATOM     14  C   UNL     1      20.480   7.472  22.099  0.00  0.00    -0.021 C 
ATOM     15  C   UNL     1      19.179   7.318  22.365  0.00  0.00    -0.009 C 
ENDROOT
BRANCH  10  13
ATOM      6  N   UNL     1      23.711   4.504  21.194  0.00  0.00    -0.236 N 
ATOM      7  N   UNL     1      24.400   5.543  20.692  0.00  0.00    -0.171 NA
ATOM     13  C   UNL     1      22.176   6.026  20.886  0.00  0.00    +0.003 A 
ATOM     16  C   UNL     1      22.375   4.741  21.330  0.00  0.00    +0.046 A 
ATOM     17  C   UNL     1      23.456   6.470  20.506  0.00  0.00    +0.064 A 
ATOM     18  C   UNL     1      21.424   3.743  21.858  0.00  0.00    +0.066 C 
ATOM     19  C   UNL     1      23.830   7.784  19.954  0.00  0.00    +0.068 C 
BRANCH   6  20
ATOM     20  C   UNL     1      24.381   3.323  21.520  0.00  0.00    +0.066 A 
ATOM     22  C   UNL     1      24.061   2.135  20.862  0.00  0.00    +0.028 A 
ATOM     23  C   UNL     1      25.367   3.331  22.506  0.00  0.00    +0.028 A 
ATOM     24  C   UNL     1      24.727   0.955  21.192  0.00  0.00    +0.014 A 
ATOM     25  C   UNL     1      26.033   2.151  22.835  0.00  0.00    +0.014 A 
ATOM     26  C   UNL     1      25.714   0.963  22.178  0.00  0.00    +0.055 A 
BRANCH  26  28
ATOM      1  F   UNL     1      27.780  -0.225  22.378  0.00  0.00    -0.166 F 
ATOM      2  F   UNL     1      26.030  -1.357  21.762  0.00  0.00    -0.166 F 
ATOM      3  F   UNL     1      26.233  -0.693  23.823  0.00  0.00    -0.166 F 
ATOM     28  C   UNL     1      26.425  -0.299  22.530  0.00  0.00    +0.417 C 
ENDBRANCH  26  28
ENDBRANCH   6  20
ENDBRANCH  10  13
BRANCH  12   5
ATOM      4  O   UNL     1      15.682   6.227  20.799  0.00  0.00    -0.252 OA
ATOM      5  N   UNL     1      17.671   7.372  20.511  0.00  0.00    -0.293 N 
ATOM      8  N   UNL     1      15.775   8.164  19.476  0.00  0.00    -0.269 N 
ATOM     21  C   UNL     1      16.299   7.167  20.303  0.00  0.00    +0.304 C 
ATOM     35  H   UNL     1      18.115   8.145  20.024  0.00  0.00    +0.151 HD
ATOM     36  H   UNL     1      16.426   8.874  19.148  0.00  0.00    +0.156 HD
BRANCH   8  27
ATOM     27  C   UNL     1      14.440   8.312  19.033  0.00  0.00    +0.036 A 
ATOM     29  C   UNL     1      14.178   8.811  17.758  0.00  0.00    +0.042 A 
ATOM     30  C   UNL     1      13.384   7.956  19.873  0.00  0.00    +0.023 A 
ATOM     31  C   UNL     1      12.861   8.957  17.322  0.00  0.00    +0.054 A 
ATOM     32  C   UNL     1      12.067   8.102  19.438  0.00  0.00    +0.003 A 
ATOM     33  C   UNL     1      11.805   8.602  18.162  0.00  0.00    +0.019 A 
BRANCH  31  34
ATOM      9  N   UNL     1      12.374   9.885  14.954  0.00  0.00    -0.191 NA
ATOM     34  C   UNL     1      12.593   9.469  16.016  0.00  0.00    +0.099 C 
ENDBRANCH  31  34
ENDBRANCH   8  27
ENDBRANCH  12   5
TORSDOF 6
ENDMDL
MODEL 8
REMARK VINA RESULT:      -7.3     32.099     35.533
REMARK  Name = 38344145
REMARK  8 active torsions:
REMARK  status: ('A' for Active; 'I' for Inactive)
REMARK    1  A    between atoms: N_5  and  C_12
REMARK    2  A    between atoms: N_6  and  C_20
REMARK    3  A    between atoms: N_8  and  C_27
REMARK    4  A    between atoms: C_10  and  C_13
REMARK    5  A    between atoms: C_16  and  C_18
REMARK    6  A    between atoms: C_17  and  C_19
REMARK    7  A    between atoms: C_26  and  C_28
REMARK    8  A    between atoms: C_31  and  C_34
REMARK                            x       y       z     vdW  Elec       q    Type
REMARK                         _______ _______ _______ _____ _____    ______ ____
ROOT
ATOM     10  C   UNL     1      20.495   6.221  21.414  0.00  0.00    +0.047 C 
ATOM     11  C   UNL     1      19.204   6.494  22.213  0.00  0.00    +0.039 C 
ATOM     12  C   UNL     1      18.691   7.856  21.728  0.00  0.00    +0.098 C 
ATOM     14  C   UNL     1      20.903   7.600  20.981  0.00  0.00    -0.021 C 
ATOM     15  C   UNL     1      19.917   8.485  21.151  0.00  0.00    -0.009 C 
ENDROOT
BRANCH  10  13
ATOM      6  N   UNL     1      22.944   3.974  22.956  0.00  0.00    -0.236 N 
ATOM      7  N   UNL     1      23.108   5.005  23.802  0.00  0.00    -0.171 NA
ATOM     13  C   UNL     1      21.542   5.472  22.207  0.00  0.00    +0.003 A 
ATOM     16  C   UNL     1      22.016   4.203  21.981  0.00  0.00    +0.046 A 
ATOM     17  C   UNL     1      22.249   5.917  23.339  0.00  0.00    +0.064 A 
ATOM     18  C   UNL     1      21.672   3.214  20.941  0.00  0.00    +0.066 C 
ATOM     19  C   UNL     1      22.138   7.218  24.022  0.00  0.00    +0.068 C 
BRANCH   6  20
ATOM     20  C   UNL     1      23.694   2.809  23.128  0.00  0.00    +0.066 A 
ATOM     22  C   UNL     1      23.240   1.808  23.987  0.00  0.00    +0.028 A 
ATOM     23  C   UNL     1      24.898   2.649  22.443  0.00  0.00    +0.028 A 
ATOM     24  C   UNL     1      23.992   0.647  24.161  0.00  0.00    +0.014 A 
ATOM     25  C   UNL     1      25.650   1.488  22.619  0.00  0.00    +0.014 A 
ATOM     26  C   UNL     1      25.198   0.486  23.477  0.00  0.00    +0.055 A 
BRANCH  26  28
ATOM      1  F   UNL     1      27.274  -0.522  24.105  0.00  0.00    -0.166 F 
ATOM      2  F   UNL     1      26.139  -1.472  22.511  0.00  0.00    -0.166 F 
ATOM      3  F   UNL     1      25.464  -1.622  24.573  0.00  0.00    -0.166 F 
ATOM     28  C   UNL     1      26.001  -0.755  23.666  0.00  0.00    +0.417 C 
ENDBRANCH  26  28
ENDBRANCH   6  20
ENDBRANCH  10  13
BRANCH  12   5
ATOM      4  O   UNL     1      15.923   8.560  21.946  0.00  0.00    -0.252 OA
ATOM      5  N   UNL     1      17.691   7.740  20.701  0.00  0.00    -0.293 N 
ATOM      8  N   UNL     1      15.614   7.884  19.720  0.00  0.00    -0.269 N 
ATOM     21  C   UNL     1      16.350   8.108  20.887  0.00  0.00    +0.304 C 
ATOM     35  H   UNL     1      17.951   7.328  19.809  0.00  0.00    +0.151 HD
ATOM     36  H   UNL     1      16.123   7.502  18.926  0.00  0.00    +0.156 HD
BRANCH   8  27
ATOM     27  C   UNL     1      14.238   8.125  19.501  0.00  0.00    +0.036 A 
ATOM     29  C   UNL     1      13.300   7.729  20.453  0.00  0.00    +0.042 A 
ATOM     30  C   UNL     1      13.819   8.762  18.332  0.00  0.00    +0.023 A 
ATOM     31  C   UNL     1      11.942   7.967  20.237  0.00  0.00    +0.054 A 
ATOM     32  C   UNL     1      12.462   8.999  18.116  0.00  0.00    +0.003 A 
ATOM     33  C   UNL     1      11.523   8.602  19.068  0.00  0.00    +0.019 A 
BRANCH  31  34
ATOM      9  N   UNL     1      10.200   7.230  22.005  0.00  0.00    -0.191 NA
ATOM     34  C   UNL     1      10.981   7.560  21.212  0.00  0.00    +0.099 C 
ENDBRANCH  31  34
ENDBRANCH   8  27
ENDBRANCH  12   5
TORSDOF 6
ENDMDL
MODEL 9
REMARK VINA RESULT:      -7.3      1.795      2.639
REMARK  Name = 38344145
REMARK  8 active torsions:
REMARK  status: ('A' for Active; 'I' for Inactive)
REMARK    1  A    between atoms: N_5  and  C_12
REMARK    2  A    between atoms: N_6  and  C_20
REMARK    3  A    between atoms: N_8  and  C_27
REMARK    4  A    between atoms: C_10  and  C_13
REMARK    5  A    between atoms: C_16  and  C_18
REMARK    6  A    between atoms: C_17  and  C_19
REMARK    7  A    between atoms: C_26  and  C_28
REMARK    8  A    between atoms: C_31  and  C_34
REMARK                            x       y       z     vdW  Elec       q    Type
REMARK                         _______ _______ _______ _____ _____    ______ ____
ROOT
ATOM     10  C   UNL     1     -14.974   5.552  22.457  0.00  0.00    +0.047 C 
ATOM     11  C   UNL     1     -15.630   6.090  23.745  0.00  0.00    +0.039 C 
ATOM     12  C   UNL     1     -16.445   4.925  24.319  0.00  0.00    +0.098 C 
ATOM     14  C   UNL     1     -15.853   4.385  22.111  0.00  0.00    -0.021 C 
ATOM     15  C   UNL     1     -16.650   4.046  23.129  0.00  0.00    -0.009 C 
ENDROOT
BRANCH  10  13
ATOM      6  N   UNL     1     -14.098   7.970  19.849  0.00  0.00    -0.236 N 
ATOM      7  N   UNL     1     -15.427   8.173  19.823  0.00  0.00    -0.171 NA
ATOM     13  C   UNL     1     -14.848   6.594  21.369  0.00  0.00    +0.003 A 
ATOM     16  C   UNL     1     -13.700   7.034  20.758  0.00  0.00    +0.046 A 
ATOM     17  C   UNL     1     -15.879   7.328  20.755  0.00  0.00    +0.064 A 
ATOM     18  C   UNL     1     -12.289   6.648  20.958  0.00  0.00    +0.066 C 
ATOM     19  C   UNL     1     -17.326   7.257  21.025  0.00  0.00    +0.068 C 
BRANCH   6  20
ATOM     20  C   UNL     1     -13.270   8.695  18.989  0.00  0.00    +0.066 A 
ATOM     22  C   UNL     1     -12.908   8.159  17.754  0.00  0.00    +0.028 A 
ATOM     23  C   UNL     1     -12.804   9.954  19.368  0.00  0.00    +0.028 A 
ATOM     24  C   UNL     1     -12.078   8.882  16.897  0.00  0.00    +0.014 A 
ATOM     25  C   UNL     1     -11.975  10.676  18.511  0.00  0.00    +0.014 A 
ATOM     26  C   UNL     1     -11.611  10.141  17.276  0.00  0.00    +0.055 A 
BRANCH  26  28
ATOM      1  F   UNL     1     -11.011  12.247  16.314  0.00  0.00    -0.166 F 
ATOM      2  F   UNL     1     -10.798  10.479  15.067  0.00  0.00    -0.166 F 
ATOM      3  F   UNL     1      -9.401  10.844  16.693  0.00  0.00    -0.166 F 
ATOM     28  C   UNL     1     -10.723  10.912  16.360  0.00  0.00    +0.417 C 
ENDBRANCH  26  28
ENDBRANCH   6  20
ENDBRANCH  10  13
BRANCH  12   5
ATOM      4  O   UNL     1     -17.285   4.476  27.021  0.00  0.00    -0.252 OA
ATOM      5  N   UNL     1     -15.732   4.192  25.331  0.00  0.00    -0.293 N 
ATOM      8  N   UNL     1     -15.309   3.265  27.394  0.00  0.00    -0.269 N 
ATOM     21  C   UNL     1     -16.212   4.016  26.637  0.00  0.00    +0.304 C 
ATOM     35  H   UNL     1     -14.813   3.822  25.109  0.00  0.00    +0.151 HD
ATOM     36  H   UNL     1     -14.461   2.959  26.922  0.00  0.00    +0.156 HD
BRANCH   8  27
ATOM     27  C   UNL     1     -15.426   2.873  28.748  0.00  0.00    +0.036 A 
ATOM     29  C   UNL     1     -15.479   1.520  29.081  0.00  0.00    +0.042 A 
ATOM     30  C   UNL     1     -15.488   3.841  29.751  0.00  0.00    +0.023 A 
ATOM     31  C   UNL     1     -15.595   1.134  30.417  0.00  0.00    +0.054 A 
ATOM     32  C   UNL     1     -15.603   3.455  31.086  0.00  0.00    +0.003 A 
ATOM     33  C   UNL     1     -15.657   2.102  31.419  0.00  0.00    +0.019 A 
BRANCH  31  34
ATOM      9  N   UNL     1     -15.694  -1.378  31.035  0.00  0.00    -0.191 NA
ATOM     34  C   UNL     1     -15.650  -0.252  30.758  0.00  0.00    +0.099 C 
ENDBRANCH  31  34
ENDBRANCH   8  27
ENDBRANCH  12   5
TORSDOF 6
ENDMDL
MODEL 10
REMARK VINA RESULT:      -7.3     20.948     22.455
REMARK  Name = 38344145
REMARK  8 active torsions:
REMARK  status: ('A' for Active; 'I' for Inactive)
REMARK    1  A    between atoms: N_5  and  C_12
REMARK    2  A    between atoms: N_6  and  C_20
REMARK    3  A    between atoms: N_8  and  C_27
REMARK    4  A    between atoms: C_10  and  C_13
REMARK    5  A    between atoms: C_16  and  C_18
REMARK    6  A    between atoms: C_17  and  C_19
REMARK    7  A    between atoms: C_26  and  C_28
REMARK    8  A    between atoms: C_31  and  C_34
REMARK                            x       y       z     vdW  Elec       q    Type
REMARK                         _______ _______ _______ _____ _____    ______ ____
ROOT
ATOM     10  C   UNL     1      -7.075  -8.022   9.359  0.00  0.00    +0.047 C 
ATOM     11  C   UNL     1      -7.562  -9.295  10.080  0.00  0.00    +0.039 C 
ATOM     12  C   UNL     1      -6.352  -9.827  10.858  0.00  0.00    +0.098 C 
ATOM     14  C   UNL     1      -5.587  -8.223   9.321  0.00  0.00    -0.021 C 
ATOM     15  C   UNL     1      -5.198  -9.204  10.141  0.00  0.00    -0.009 C 
ENDROOT
BRANCH  10  13
ATOM      6  N   UNL     1      -8.321  -7.983   5.914  0.00  0.00    -0.236 N 
ATOM      7  N   UNL     1      -9.030  -6.931   6.359  0.00  0.00    -0.171 NA
ATOM     13  C   UNL     1      -7.719  -7.816   8.007  0.00  0.00    +0.003 A 
ATOM     16  C   UNL     1      -7.520  -8.549   6.862  0.00  0.00    +0.046 A 
ATOM     17  C   UNL     1      -8.658  -6.835   7.639  0.00  0.00    +0.064 A 
ATOM     18  C   UNL     1      -6.654  -9.715   6.600  0.00  0.00    +0.066 C 
ATOM     19  C   UNL     1      -9.236  -5.774   8.483  0.00  0.00    +0.068 C 
BRANCH   6  20
ATOM     20  C   UNL     1      -8.451  -8.393   4.586  0.00  0.00    +0.066 A 
ATOM     22  C   UNL     1      -7.777  -7.708   3.575  0.00  0.00    +0.028 A 
ATOM     23  C   UNL     1      -9.257  -9.487   4.272  0.00  0.00    +0.028 A 
ATOM     24  C   UNL     1      -7.910  -8.117   2.249  0.00  0.00    +0.014 A 
ATOM     25  C   UNL     1      -9.390  -9.895   2.945  0.00  0.00    +0.014 A 
ATOM     26  C   UNL     1      -8.717  -9.211   1.933  0.00  0.00    +0.055 A 
BRANCH  26  28
ATOM      1  F   UNL     1      -8.549 -10.961   0.311  0.00  0.00    -0.166 F 
ATOM      2  F   UNL     1      -8.052  -8.945  -0.335  0.00  0.00    -0.166 F 
ATOM      3  F   UNL     1     -10.125  -9.500   0.021  0.00  0.00    -0.166 F 
ATOM     28  C   UNL     1      -8.860  -9.646   0.514  0.00  0.00    +0.417 C 
ENDBRANCH  26  28
ENDBRANCH   6  20
ENDBRANCH  10  13
BRANCH  12   5
ATOM      4  O   UNL     1      -5.634 -11.405  13.138  0.00  0.00    -0.252 OA
ATOM      5  N   UNL     1      -6.341  -9.398  12.231  0.00  0.00    -0.293 N 
ATOM      8  N   UNL     1      -6.061  -9.548  14.510  0.00  0.00    -0.269 N 
ATOM     21  C   UNL     1      -5.976 -10.235  13.296  0.00  0.00    +0.304 C 
ATOM     35  H   UNL     1      -6.658  -8.459  12.452  0.00  0.00    +0.151 HD
ATOM     36  H   UNL     1      -6.363  -8.578  14.465  0.00  0.00    +0.156 HD
BRANCH   8  27
ATOM     27  C   UNL     1      -5.778 -10.038  15.806  0.00  0.00    +0.036 A 
ATOM     29  C   UNL     1      -6.806 -10.190  16.736  0.00  0.00    +0.042 A 
ATOM     30  C   UNL     1      -4.468 -10.370  16.155  0.00  0.00    +0.023 A 
ATOM     31  C   UNL     1      -6.526 -10.673  18.014  0.00  0.00    +0.054 A 
ATOM     32  C   UNL     1      -4.188 -10.852  17.433  0.00  0.00    +0.003 A 
ATOM     33  C   UNL     1      -5.216 -11.004  18.363  0.00  0.00    +0.019 A 
BRANCH  31  34
ATOM      9  N   UNL     1      -8.434 -10.954  19.741  0.00  0.00    -0.191 NA
ATOM     34  C   UNL     1      -7.579 -10.828  18.966  0.00  0.00    +0.099 C 
ENDBRANCH  31  34
ENDBRANCH   8  27
ENDBRANCH  12   5
TORSDOF 6
ENDMDL
