REMARK  Name = 51137060
REMARK  3 active torsions:
REMARK  status: ('A' for Active; 'I' for Inactive)
REMARK    1  A    between atoms: N_4  and  C_10
REMARK    2  A    between atoms: C_6  and  C_11
REMARK    3  A    between atoms: C_10  and  C_12
REMARK                            x       y       z     vdW  Elec       q    Type
REMARK                         _______ _______ _______ _____ _____    ______ ____
ROOT
ATOM      4  N   UNL     1      -1.028  -0.382  -0.171  0.00  0.00    -0.297 NA
ATOM      6  C   UNL     1       1.181  -0.748   0.527  0.00  0.00    +0.090 C 
ATOM      7  C   UNL     1       0.433   0.072   1.593  0.00  0.00    +0.029 C 
ATOM      8  C   UNL     1       0.300  -0.651  -0.726  0.00  0.00    +0.097 C 
ATOM      9  C   UNL     1      -0.804   0.608   0.882  0.00  0.00    +0.085 C 
ENDROOT
BRANCH   6  11
ATOM      3  O   UNL     1       3.563  -1.261   0.507  0.00  0.00    -0.439 OA
ATOM      5  N   UNL     1       3.048   0.853  -0.128  0.00  0.00    -0.213 NA
ATOM     11  C   UNL     1       2.608  -0.317   0.279  0.00  0.00    +0.201 A 
ATOM     13  C   UNL     1       4.729  -0.614   0.211  0.00  0.00    +0.155 A 
ATOM     14  C   UNL     1       4.410   0.679  -0.177  0.00  0.00    +0.110 A 
ATOM     17  C   UNL     1       6.019  -1.126   0.275  0.00  0.00    +0.048 A 
ATOM     18  C   UNL     1       5.445   1.554  -0.536  0.00  0.00    +0.031 A 
ATOM     21  C   UNL     1       7.041  -0.240  -0.087  0.00  0.00    +0.004 A 
ATOM     22  C   UNL     1       6.762   1.073  -0.484  0.00  0.00    +0.002 A 
ENDBRANCH   6  11
BRANCH   4  10
ATOM     10  C   UNL     1      -1.967   0.085  -1.180  0.00  0.00    +0.119 C 
BRANCH  10  12
ATOM      1  F   UNL     1      -6.115   2.008   0.529  0.00  0.00    -0.202 F 
ATOM      2  F   UNL     1      -7.313  -0.450   0.520  0.00  0.00    -0.202 F 
ATOM     12  C   UNL     1      -3.396  -0.058  -0.726  0.00  0.00    -0.030 A 
ATOM     15  C   UNL     1      -4.108   1.063  -0.300  0.00  0.00    +0.046 A 
ATOM     16  C   UNL     1      -4.007  -1.312  -0.731  0.00  0.00    +0.008 A 
ATOM     19  C   UNL     1      -5.431   0.931   0.120  0.00  0.00    +0.159 A 
ATOM     20  C   UNL     1      -5.330  -1.444  -0.310  0.00  0.00    +0.041 A 
ATOM     23  C   UNL     1      -6.042  -0.323   0.115  0.00  0.00    +0.158 A 
ENDBRANCH  10  12
ENDBRANCH   4  10
TORSDOF 3
