MODEL 1
REMARK VINA RESULT:      -7.0      0.000      0.000
REMARK  Name = 28959825
REMARK  9 active torsions:
REMARK  status: ('A' for Active; 'I' for Inactive)
REMARK    1  A    between atoms: O_3  and  C_29
REMARK    2  A    between atoms: O_5  and  C_30
REMARK    3  A    between atoms: O_5  and  C_31
REMARK    4  A    between atoms: N_6  and  C_16
REMARK    5  A    between atoms: C_14  and  C_18
REMARK    6  A    between atoms: C_16  and  C_18
REMARK    7  A    between atoms: C_17  and  C_23
REMARK    8  A    between atoms: C_23  and  C_29
REMARK    9  A    between atoms: C_26  and  C_30
REMARK                            x       y       z     vdW  Elec       q    Type
REMARK                         _______ _______ _______ _____ _____    ______ ____
ROOT
ATOM      2  O   UNL     1       8.980  10.536   5.954  0.00  0.00    -0.272 OA
ATOM      8  N   UNL     1      10.185   8.709   6.734  0.00  0.00    -0.298 N 
ATOM     14  C   UNL     1      10.589   6.262   6.885  0.00  0.00    +0.011 C 
ATOM     17  C   UNL     1       9.975   6.287   8.308  0.00  0.00    +0.006 C 
ATOM     20  C   UNL     1      11.178   7.643   6.546  0.00  0.00    +0.111 C 
ATOM     21  C   UNL     1       8.980   7.447   8.476  0.00  0.00    +0.023 C 
ATOM     22  C   UNL     1       9.610   8.780   8.077  0.00  0.00    +0.108 C 
ATOM     26  C   UNL     1       9.798   9.633   5.763  0.00  0.00    +0.253 C 
ENDROOT
BRANCH  14  18
ATOM     18  C   UNL     1       9.609   5.819   5.791  0.00  0.00    +0.020 C 
BRANCH  18  16
ATOM     16  C   UNL     1      10.098   4.556   5.087  0.00  0.00    +0.085 C 
BRANCH  16   6
ATOM      1  O   UNL     1      14.711   7.126   1.924  0.00  0.00    -0.268 OA
ATOM      6  N   UNL     1      10.611   4.884   3.758  0.00  0.00    -0.301 NA
ATOM      7  N   UNL     1      12.887   5.679   1.669  0.00  0.00    -0.312 N 
ATOM      9  C   UNL     1      10.448   6.451   1.807  0.00  0.00    +0.024 C 
ATOM     10  C   UNL     1      10.954   4.086   1.415  0.00  0.00    +0.050 C 
ATOM     11  C   UNL     1      10.181   5.283   0.866  0.00  0.00    +0.017 C 
ATOM     12  C   UNL     1       9.976   6.099   3.233  0.00  0.00    +0.089 C 
ATOM     13  C   UNL     1      10.445   3.750   2.835  0.00  0.00    +0.094 C 
ATOM     15  C   UNL     1      11.942   6.800   1.751  0.00  0.00    +0.130 C 
ATOM     19  C   UNL     1      12.444   4.372   1.437  0.00  0.00    +0.026 A 
ATOM     24  C   UNL     1      13.332   3.380   1.257  0.00  0.00    +0.022 A 
ATOM     25  C   UNL     1      14.257   5.996   1.738  0.00  0.00    +0.251 A 
ATOM     27  C   UNL     1      14.743   3.636   1.319  0.00  0.00    +0.007 A 
ATOM     28  C   UNL     1      15.209   4.866   1.556  0.00  0.00    +0.070 A 
ENDBRANCH  16   6
ENDBRANCH  18  16
ENDBRANCH  14  18
BRANCH  17  23
ATOM     23  C   UNL     1       9.328   4.960   8.706  0.00  0.00    +0.124 C 
BRANCH  23  29
ATOM      4  O   UNL     1      10.419   4.547  10.845  0.00  0.00    -0.251 OA
ATOM     29  C   UNL     1       9.406   4.728  10.190  0.00  0.00    +0.305 C 
BRANCH  29   3
ATOM      3  O   UNL     1       8.156   4.747  10.721  0.00  0.00    -0.481 OA
ATOM     37  H   UNL     1       8.130   4.331  11.610  0.00  0.00    +0.295 HD
ENDBRANCH  29   3
ENDBRANCH  23  29
ENDBRANCH  17  23
BRANCH  26  30
ATOM     30  C   UNL     1      10.434   9.491   4.404  0.00  0.00    +0.324 C 
BRANCH  30   5
ATOM      5  O   UNL     1       9.848  10.470   3.581  0.00  0.00    -0.483 OA
BRANCH   5  31
ATOM     31  C   UNL     1       9.319  10.052   2.379  0.00  0.00    +0.121 A 
ATOM     32  C   UNL     1       7.995   9.619   2.313  0.00  0.00    +0.045 A 
ATOM     33  C   UNL     1      10.109  10.058   1.230  0.00  0.00    +0.045 A 
ATOM     34  C   UNL     1       7.461   9.195   1.097  0.00  0.00    +0.004 A 
ATOM     35  C   UNL     1       9.574   9.633   0.014  0.00  0.00    +0.004 A 
ATOM     36  C   UNL     1       8.250   9.201  -0.053  0.00  0.00    +0.000 A 
ENDBRANCH   5  31
ENDBRANCH  30   5
ENDBRANCH  26  30
TORSDOF 9
ENDMDL
MODEL 2
REMARK VINA RESULT:      -6.8     23.120     26.349
REMARK  Name = 28959825
REMARK  9 active torsions:
REMARK  status: ('A' for Active; 'I' for Inactive)
REMARK    1  A    between atoms: O_3  and  C_29
REMARK    2  A    between atoms: O_5  and  C_30
REMARK    3  A    between atoms: O_5  and  C_31
REMARK    4  A    between atoms: N_6  and  C_16
REMARK    5  A    between atoms: C_14  and  C_18
REMARK    6  A    between atoms: C_16  and  C_18
REMARK    7  A    between atoms: C_17  and  C_23
REMARK    8  A    between atoms: C_23  and  C_29
REMARK    9  A    between atoms: C_26  and  C_30
REMARK                            x       y       z     vdW  Elec       q    Type
REMARK                         _______ _______ _______ _____ _____    ______ ____
ROOT
ATOM      2  O   UNL     1      -7.772 -11.571  19.292  0.00  0.00    -0.272 OA
ATOM      8  N   UNL     1      -6.395 -10.459  17.788  0.00  0.00    -0.298 N 
ATOM     14  C   UNL     1      -5.122 -10.355  15.655  0.00  0.00    +0.011 C 
ATOM     17  C   UNL     1      -3.820 -10.581  16.465  0.00  0.00    +0.006 C 
ATOM     20  C   UNL     1      -6.186  -9.695  16.550  0.00  0.00    +0.111 C 
ATOM     21  C   UNL     1      -4.091 -11.340  17.775  0.00  0.00    +0.023 C 
ATOM     22  C   UNL     1      -5.189 -10.661  18.592  0.00  0.00    +0.108 C 
ATOM     26  C   UNL     1      -7.619 -10.954  18.235  0.00  0.00    +0.253 C 
ENDROOT
BRANCH  14  18
ATOM     18  C   UNL     1      -5.685 -11.630  15.012  0.00  0.00    +0.020 C 
BRANCH  18  16
ATOM     16  C   UNL     1      -6.281 -11.341  13.637  0.00  0.00    +0.085 C 
BRANCH  16   6
ATOM      1  O   UNL     1      -5.069 -13.190   7.893  0.00  0.00    -0.268 OA
ATOM      6  N   UNL     1      -5.254 -11.468  12.604  0.00  0.00    -0.301 NA
ATOM      7  N   UNL     1      -4.217 -11.846   9.611  0.00  0.00    -0.312 N 
ATOM      9  C   UNL     1      -3.279 -12.787  11.801  0.00  0.00    +0.024 C 
ATOM     10  C   UNL     1      -3.335 -10.364  11.446  0.00  0.00    +0.050 C 
ATOM     11  C   UNL     1      -2.417 -11.532  11.798  0.00  0.00    +0.017 C 
ATOM     12  C   UNL     1      -4.413 -12.647  12.839  0.00  0.00    +0.089 C 
ATOM     13  C   UNL     1      -4.447 -10.242  12.512  0.00  0.00    +0.094 C 
ATOM     15  C   UNL     1      -3.809 -13.028  10.381  0.00  0.00    +0.130 C 
ATOM     19  C   UNL     1      -3.939 -10.552  10.067  0.00  0.00    +0.026 A 
ATOM     24  C   UNL     1      -4.224  -9.489   9.296  0.00  0.00    +0.022 A 
ATOM     25  C   UNL     1      -4.812 -12.078   8.357  0.00  0.00    +0.251 A 
ATOM     27  C   UNL     1      -4.835  -9.658   8.008  0.00  0.00    +0.007 A 
ATOM     28  C   UNL     1      -5.134 -10.874   7.543  0.00  0.00    +0.070 A 
ENDBRANCH  16   6
ENDBRANCH  18  16
ENDBRANCH  14  18
BRANCH  17  23
ATOM     23  C   UNL     1      -2.723 -11.275  15.658  0.00  0.00    +0.124 C 
BRANCH  23  29
ATOM      4  O   UNL     1      -1.358  -9.651  14.460  0.00  0.00    -0.251 OA
ATOM     29  C   UNL     1      -1.545 -10.369  15.429  0.00  0.00    +0.305 C 
BRANCH  29   3
ATOM      3  O   UNL     1      -0.688 -10.460  16.478  0.00  0.00    -0.481 OA
ATOM     37  H   UNL     1       0.123  -9.926  16.336  0.00  0.00    +0.295 HD
ENDBRANCH  29   3
ENDBRANCH  23  29
ENDBRANCH  17  23
BRANCH  26  30
ATOM     30  C   UNL     1      -8.813 -10.707  17.347  0.00  0.00    +0.324 C 
BRANCH  30   5
ATOM      5  O   UNL     1      -9.702  -9.903  18.084  0.00  0.00    -0.483 OA
BRANCH   5  31
ATOM     31  C   UNL     1     -10.406  -8.941  17.394  0.00  0.00    +0.121 A 
ATOM     32  C   UNL     1     -11.791  -9.042  17.274  0.00  0.00    +0.045 A 
ATOM     33  C   UNL     1      -9.732  -7.868  16.811  0.00  0.00    +0.045 A 
ATOM     34  C   UNL     1     -12.504  -8.069  16.573  0.00  0.00    +0.004 A 
ATOM     35  C   UNL     1     -10.444  -6.895  16.110  0.00  0.00    +0.004 A 
ATOM     36  C   UNL     1     -11.831  -6.995  15.991  0.00  0.00    +0.000 A 
ENDBRANCH   5  31
ENDBRANCH  30   5
ENDBRANCH  26  30
TORSDOF 9
ENDMDL
MODEL 3
REMARK VINA RESULT:      -6.6      2.072      3.475
REMARK  Name = 28959825
REMARK  9 active torsions:
REMARK  status: ('A' for Active; 'I' for Inactive)
REMARK    1  A    between atoms: O_3  and  C_29
REMARK    2  A    between atoms: O_5  and  C_30
REMARK    3  A    between atoms: O_5  and  C_31
REMARK    4  A    between atoms: N_6  and  C_16
REMARK    5  A    between atoms: C_14  and  C_18
REMARK    6  A    between atoms: C_16  and  C_18
REMARK    7  A    between atoms: C_17  and  C_23
REMARK    8  A    between atoms: C_23  and  C_29
REMARK    9  A    between atoms: C_26  and  C_30
REMARK                            x       y       z     vdW  Elec       q    Type
REMARK                         _______ _______ _______ _____ _____    ______ ____
ROOT
ATOM      2  O   UNL     1      10.501  11.236   5.569  0.00  0.00    -0.272 OA
ATOM      8  N   UNL     1      11.145   9.258   6.604  0.00  0.00    -0.298 N 
ATOM     14  C   UNL     1      11.038   6.788   6.856  0.00  0.00    +0.011 C 
ATOM     17  C   UNL     1      10.151   6.993   8.111  0.00  0.00    +0.006 C 
ATOM     20  C   UNL     1      11.935   8.021   6.644  0.00  0.00    +0.111 C 
ATOM     21  C   UNL     1       9.381   8.322   8.050  0.00  0.00    +0.023 C 
ATOM     22  C   UNL     1      10.322   9.496   7.790  0.00  0.00    +0.108 C 
ATOM     26  C   UNL     1      11.155  10.190   5.567  0.00  0.00    +0.253 C 
ENDROOT
BRANCH  14  18
ATOM     18  C   UNL     1      10.246   6.481   5.578  0.00  0.00    +0.020 C 
BRANCH  18  16
ATOM     16  C   UNL     1      10.574   5.088   5.045  0.00  0.00    +0.085 C 
BRANCH  16   6
ATOM      1  O   UNL     1      14.485   7.320   0.850  0.00  0.00    -0.268 OA
ATOM      6  N   UNL     1      10.905   5.155   3.623  0.00  0.00    -0.301 NA
ATOM      7  N   UNL     1      12.841   5.678   1.143  0.00  0.00    -0.312 N 
ATOM      9  C   UNL     1      10.351   6.213   1.418  0.00  0.00    +0.024 C 
ATOM     10  C   UNL     1      11.108   3.884   1.481  0.00  0.00    +0.050 C 
ATOM     11  C   UNL     1      10.140   4.841   0.790  0.00  0.00    +0.017 C 
ATOM     12  C   UNL     1      10.072   6.149   2.934  0.00  0.00    +0.089 C 
ATOM     13  C   UNL     1      10.791   3.831   2.993  0.00  0.00    +0.094 C 
ATOM     15  C   UNL     1      11.776   6.689   1.101  0.00  0.00    +0.130 C 
ATOM     19  C   UNL     1      12.545   4.316   1.254  0.00  0.00    +0.026 A 
ATOM     24  C   UNL     1      13.528   3.402   1.180  0.00  0.00    +0.022 A 
ATOM     25  C   UNL     1      14.160   6.139   0.969  0.00  0.00    +0.251 A 
ATOM     27  C   UNL     1      14.895   3.806   1.008  0.00  0.00    +0.007 A 
ATOM     28  C   UNL     1      15.224   5.098   0.915  0.00  0.00    +0.070 A 
ENDBRANCH  16   6
ENDBRANCH  18  16
ENDBRANCH  14  18
BRANCH  17  23
ATOM     23  C   UNL     1       9.196   5.827   8.367  0.00  0.00    +0.124 C 
BRANCH  23  29
ATOM      4  O   UNL     1      10.042   4.722  10.367  0.00  0.00    -0.251 OA
ATOM     29  C   UNL     1       9.855   4.733   9.161  0.00  0.00    +0.305 C 
BRANCH  29   3
ATOM      3  O   UNL     1      10.228   3.726   8.330  0.00  0.00    -0.481 OA
ATOM     37  H   UNL     1       9.533   3.520   7.669  0.00  0.00    +0.295 HD
ENDBRANCH  29   3
ENDBRANCH  23  29
ENDBRANCH  17  23
BRANCH  26  30
ATOM     30  C   UNL     1      12.027   9.869   4.379  0.00  0.00    +0.324 C 
BRANCH  30   5
ATOM      5  O   UNL     1      13.210  10.615   4.536  0.00  0.00    -0.483 OA
BRANCH   5  31
ATOM     31  C   UNL     1      14.383   9.912   4.703  0.00  0.00    +0.121 A 
ATOM     32  C   UNL     1      14.928   9.202   3.633  0.00  0.00    +0.045 A 
ATOM     33  C   UNL     1      15.023   9.907   5.941  0.00  0.00    +0.045 A 
ATOM     34  C   UNL     1      16.114   8.489   3.803  0.00  0.00    +0.004 A 
ATOM     35  C   UNL     1      16.209   9.193   6.111  0.00  0.00    +0.004 A 
ATOM     36  C   UNL     1      16.755   8.484   5.041  0.00  0.00    +0.000 A 
ENDBRANCH   5  31
ENDBRANCH  30   5
ENDBRANCH  26  30
TORSDOF 9
ENDMDL
MODEL 4
REMARK VINA RESULT:      -6.6     23.231     27.012
REMARK  Name = 28959825
REMARK  9 active torsions:
REMARK  status: ('A' for Active; 'I' for Inactive)
REMARK    1  A    between atoms: O_3  and  C_29
REMARK    2  A    between atoms: O_5  and  C_30
REMARK    3  A    between atoms: O_5  and  C_31
REMARK    4  A    between atoms: N_6  and  C_16
REMARK    5  A    between atoms: C_14  and  C_18
REMARK    6  A    between atoms: C_16  and  C_18
REMARK    7  A    between atoms: C_17  and  C_23
REMARK    8  A    between atoms: C_23  and  C_29
REMARK    9  A    between atoms: C_26  and  C_30
REMARK                            x       y       z     vdW  Elec       q    Type
REMARK                         _______ _______ _______ _____ _____    ______ ____
ROOT
ATOM      2  O   UNL     1     -10.591 -12.211  18.104  0.00  0.00    -0.272 OA
ATOM      8  N   UNL     1      -8.690 -10.881  18.228  0.00  0.00    -0.298 N 
ATOM     14  C   UNL     1      -6.490 -10.128  17.350  0.00  0.00    +0.011 C 
ATOM     17  C   UNL     1      -5.804 -10.968  18.457  0.00  0.00    +0.006 C 
ATOM     20  C   UNL     1      -7.901  -9.716  17.807  0.00  0.00    +0.111 C 
ATOM     21  C   UNL     1      -6.684 -12.148  18.901  0.00  0.00    +0.023 C 
ATOM     22  C   UNL     1      -8.083 -11.677  19.294  0.00  0.00    +0.108 C 
ATOM     26  C   UNL     1      -9.936 -11.241  17.716  0.00  0.00    +0.253 C 
ENDROOT
BRANCH  14  18
ATOM     18  C   UNL     1      -6.556 -10.828  15.986  0.00  0.00    +0.020 C 
BRANCH  18  16
ATOM     16  C   UNL     1      -6.382  -9.832  14.843  0.00  0.00    +0.085 C 
BRANCH  16   6
ATOM      1  O   UNL     1      -3.882  -8.959   9.287  0.00  0.00    -0.268 OA
ATOM      6  N   UNL     1      -5.672 -10.460  13.729  0.00  0.00    -0.301 NA
ATOM      7  N   UNL     1      -3.878 -10.451  11.092  0.00  0.00    -0.312 N 
ATOM      9  C   UNL     1      -5.882 -11.924  11.705  0.00  0.00    +0.024 C 
ATOM     10  C   UNL     1      -3.843 -12.023  13.058  0.00  0.00    +0.050 C 
ATOM     11  C   UNL     1      -4.827 -12.873  12.257  0.00  0.00    +0.017 C 
ATOM     12  C   UNL     1      -6.599 -11.198  12.864  0.00  0.00    +0.089 C 
ATOM     13  C   UNL     1      -4.588 -11.326  14.218  0.00  0.00    +0.094 C 
ATOM     15  C   UNL     1      -5.211 -10.950  10.727  0.00  0.00    +0.130 C 
ATOM     19  C   UNL     1      -3.168 -10.998  12.166  0.00  0.00    +0.026 A 
ATOM     24  C   UNL     1      -1.908 -10.601  12.414  0.00  0.00    +0.022 A 
ATOM     25  C   UNL     1      -3.317  -9.469  10.255  0.00  0.00    +0.251 A 
ATOM     27  C   UNL     1      -1.278  -9.601  11.600  0.00  0.00    +0.007 A 
ATOM     28  C   UNL     1      -1.928  -9.039  10.576  0.00  0.00    +0.070 A 
ENDBRANCH  16   6
ENDBRANCH  18  16
ENDBRANCH  14  18
BRANCH  17  23
ATOM     23  C   UNL     1      -4.409 -11.455  18.062  0.00  0.00    +0.124 C 
BRANCH  23  29
ATOM      4  O   UNL     1      -3.387 -12.230  20.134  0.00  0.00    -0.251 OA
ATOM     29  C   UNL     1      -3.877 -12.465  19.041  0.00  0.00    +0.305 C 
BRANCH  29   3
ATOM      3  O   UNL     1      -4.018 -13.716  18.531  0.00  0.00    -0.481 OA
ATOM     37  H   UNL     1      -4.297 -14.361  19.214  0.00  0.00    +0.295 HD
ENDBRANCH  29   3
ENDBRANCH  23  29
ENDBRANCH  17  23
BRANCH  26  30
ATOM     30  C   UNL     1     -10.491 -10.371  16.616  0.00  0.00    +0.324 C 
BRANCH  30   5
ATOM      5  O   UNL     1     -11.359  -9.449  17.231  0.00  0.00    -0.483 OA
BRANCH   5  31
ATOM     31  C   UNL     1     -11.549  -8.240  16.599  0.00  0.00    +0.121 A 
ATOM     32  C   UNL     1     -10.456  -7.420  16.322  0.00  0.00    +0.045 A 
ATOM     33  C   UNL     1     -12.834  -7.836  16.240  0.00  0.00    +0.045 A 
ATOM     34  C   UNL     1     -10.649  -6.195  15.683  0.00  0.00    +0.004 A 
ATOM     35  C   UNL     1     -13.026  -6.610  15.602  0.00  0.00    +0.004 A 
ATOM     36  C   UNL     1     -11.934  -5.789  15.323  0.00  0.00    +0.000 A 
ENDBRANCH   5  31
ENDBRANCH  30   5
ENDBRANCH  26  30
TORSDOF 9
ENDMDL
MODEL 5
REMARK VINA RESULT:      -6.3      3.436      5.615
REMARK  Name = 28959825
REMARK  9 active torsions:
REMARK  status: ('A' for Active; 'I' for Inactive)
REMARK    1  A    between atoms: O_3  and  C_29
REMARK    2  A    between atoms: O_5  and  C_30
REMARK    3  A    between atoms: O_5  and  C_31
REMARK    4  A    between atoms: N_6  and  C_16
REMARK    5  A    between atoms: C_14  and  C_18
REMARK    6  A    between atoms: C_16  and  C_18
REMARK    7  A    between atoms: C_17  and  C_23
REMARK    8  A    between atoms: C_23  and  C_29
REMARK    9  A    between atoms: C_26  and  C_30
REMARK                            x       y       z     vdW  Elec       q    Type
REMARK                         _______ _______ _______ _____ _____    ______ ____
ROOT
ATOM      2  O   UNL     1      15.270  10.651   5.656  0.00  0.00    -0.272 OA
ATOM      8  N   UNL     1      13.626   9.371   6.684  0.00  0.00    -0.298 N 
ATOM     14  C   UNL     1      11.661   7.853   6.588  0.00  0.00    +0.011 C 
ATOM     17  C   UNL     1      10.760   9.058   6.961  0.00  0.00    +0.006 C 
ATOM     20  C   UNL     1      13.085   8.080   7.127  0.00  0.00    +0.111 C 
ATOM     21  C   UNL     1      11.387  10.392   6.524  0.00  0.00    +0.023 C 
ATOM     22  C   UNL     1      12.814  10.532   7.049  0.00  0.00    +0.108 C 
ATOM     26  C   UNL     1      14.824   9.551   5.995  0.00  0.00    +0.253 C 
ENDROOT
BRANCH  14  18
ATOM     18  C   UNL     1      11.703   7.549   5.085  0.00  0.00    +0.020 C 
BRANCH  18  16
ATOM     16  C   UNL     1      10.884   6.305   4.748  0.00  0.00    +0.085 C 
BRANCH  16   6
ATOM      1  O   UNL     1      14.620   6.891  -0.107  0.00  0.00    -0.268 OA
ATOM      6  N   UNL     1      11.149   5.881   3.375  0.00  0.00    -0.301 NA
ATOM      7  N   UNL     1      12.974   5.487   0.789  0.00  0.00    -0.312 N 
ATOM      9  C   UNL     1      10.505   6.148   0.967  0.00  0.00    +0.024 C 
ATOM     10  C   UNL     1      11.238   3.958   1.782  0.00  0.00    +0.050 C 
ATOM     11  C   UNL     1      10.250   4.651   0.848  0.00  0.00    +0.017 C 
ATOM     12  C   UNL     1      10.296   6.606   2.426  0.00  0.00    +0.089 C 
ATOM     13  C   UNL     1      10.991   4.425   3.235  0.00  0.00    +0.094 C 
ATOM     15  C   UNL     1      11.919   6.452   0.451  0.00  0.00    +0.130 C 
ATOM     19  C   UNL     1      12.668   4.250   1.365  0.00  0.00    +0.026 A 
ATOM     24  C   UNL     1      13.636   3.339   1.565  0.00  0.00    +0.022 A 
ATOM     25  C   UNL     1      14.288   5.827   0.417  0.00  0.00    +0.251 A 
ATOM     27  C   UNL     1      14.998   3.626   1.212  0.00  0.00    +0.007 A 
ATOM     28  C   UNL     1      15.336   4.802   0.675  0.00  0.00    +0.070 A 
ENDBRANCH  16   6
ENDBRANCH  18  16
ENDBRANCH  14  18
BRANCH  17  23
ATOM     23  C   UNL     1       9.334   8.931   6.423  0.00  0.00    +0.124 C 
BRANCH  23  29
ATOM      4  O   UNL     1       8.729   7.607   8.378  0.00  0.00    -0.251 OA
ATOM     29  C   UNL     1       8.525   7.947   7.223  0.00  0.00    +0.305 C 
BRANCH  29   3
ATOM      3  O   UNL     1       7.504   7.472   6.465  0.00  0.00    -0.481 OA
ATOM     37  H   UNL     1       7.109   6.660   6.850  0.00  0.00    +0.295 HD
ENDBRANCH  29   3
ENDBRANCH  23  29
ENDBRANCH  17  23
BRANCH  26  30
ATOM     30  C   UNL     1      15.601   8.305   5.652  0.00  0.00    +0.324 C 
BRANCH  30   5
ATOM      5  O   UNL     1      16.613   8.695   4.756  0.00  0.00    -0.483 OA
BRANCH   5  31
ATOM     31  C   UNL     1      17.916   8.442   5.125  0.00  0.00    +0.121 A 
ATOM     32  C   UNL     1      18.789   7.832   4.225  0.00  0.00    +0.045 A 
ATOM     33  C   UNL     1      18.361   8.794   6.398  0.00  0.00    +0.045 A 
ATOM     34  C   UNL     1      20.108   7.574   4.598  0.00  0.00    +0.004 A 
ATOM     35  C   UNL     1      19.680   8.536   6.772  0.00  0.00    +0.004 A 
ATOM     36  C   UNL     1      20.554   7.926   5.872  0.00  0.00    +0.000 A 
ENDBRANCH   5  31
ENDBRANCH  30   5
ENDBRANCH  26  30
TORSDOF 9
ENDMDL
MODEL 6
REMARK VINA RESULT:      -6.2     23.903     26.730
REMARK  Name = 28959825
REMARK  9 active torsions:
REMARK  status: ('A' for Active; 'I' for Inactive)
REMARK    1  A    between atoms: O_3  and  C_29
REMARK    2  A    between atoms: O_5  and  C_30
REMARK    3  A    between atoms: O_5  and  C_31
REMARK    4  A    between atoms: N_6  and  C_16
REMARK    5  A    between atoms: C_14  and  C_18
REMARK    6  A    between atoms: C_16  and  C_18
REMARK    7  A    between atoms: C_17  and  C_23
REMARK    8  A    between atoms: C_23  and  C_29
REMARK    9  A    between atoms: C_26  and  C_30
REMARK                            x       y       z     vdW  Elec       q    Type
REMARK                         _______ _______ _______ _____ _____    ______ ____
ROOT
ATOM      2  O   UNL     1     -10.206 -11.138  17.397  0.00  0.00    -0.272 OA
ATOM      8  N   UNL     1      -8.089 -10.183  17.464  0.00  0.00    -0.298 N 
ATOM     14  C   UNL     1      -5.740 -10.020  16.671  0.00  0.00    +0.011 C 
ATOM     17  C   UNL     1      -5.294 -10.758  17.959  0.00  0.00    +0.006 C 
ATOM     20  C   UNL     1      -7.064  -9.279  16.925  0.00  0.00    +0.111 C 
ATOM     21  C   UNL     1      -6.413 -11.654  18.516  0.00  0.00    +0.023 C 
ATOM     22  C   UNL     1      -7.711 -10.870  18.699  0.00  0.00    +0.108 C 
ATOM     26  C   UNL     1      -9.352 -10.393  16.911  0.00  0.00    +0.253 C 
ENDROOT
BRANCH  14  18
ATOM     18  C   UNL     1      -5.868 -10.933  15.444  0.00  0.00    +0.020 C 
BRANCH  18  16
ATOM     16  C   UNL     1      -5.676 -10.149  14.148  0.00  0.00    +0.085 C 
BRANCH  16   6
ATOM      1  O   UNL     1      -2.811 -15.271  12.297  0.00  0.00    -0.268 OA
ATOM      6  N   UNL     1      -4.551 -10.692  13.389  0.00  0.00    -0.301 NA
ATOM      7  N   UNL     1      -2.975 -12.983  11.827  0.00  0.00    -0.312 N 
ATOM      9  C   UNL     1      -2.088 -11.158  13.392  0.00  0.00    +0.024 C 
ATOM     10  C   UNL     1      -3.194 -10.531  11.298  0.00  0.00    +0.050 C 
ATOM     11  C   UNL     1      -1.914 -10.353  12.111  0.00  0.00    +0.017 C 
ATOM     12  C   UNL     1      -3.314 -10.645  14.177  0.00  0.00    +0.089 C 
ATOM     13  C   UNL     1      -4.397  -9.992  12.104  0.00  0.00    +0.094 C 
ATOM     15  C   UNL     1      -2.202 -12.645  13.030  0.00  0.00    +0.130 C 
ATOM     19  C   UNL     1      -3.404 -11.990  10.939  0.00  0.00    +0.026 A 
ATOM     24  C   UNL     1      -4.014 -12.330   9.791  0.00  0.00    +0.022 A 
ATOM     25  C   UNL     1      -3.177 -14.351  11.565  0.00  0.00    +0.251 A 
ATOM     27  C   UNL     1      -4.254 -13.707   9.465  0.00  0.00    +0.007 A 
ATOM     28  C   UNL     1      -3.877 -14.685  10.294  0.00  0.00    +0.070 A 
ENDBRANCH  16   6
ENDBRANCH  18  16
ENDBRANCH  14  18
BRANCH  17  23
ATOM     23  C   UNL     1      -4.004 -11.558  17.778  0.00  0.00    +0.124 C 
BRANCH  23  29
ATOM      4  O   UNL     1      -3.360 -12.207  20.036  0.00  0.00    -0.251 OA
ATOM     29  C   UNL     1      -3.770 -12.502  18.925  0.00  0.00    +0.305 C 
BRANCH  29   3
ATOM      3  O   UNL     1      -4.085 -13.767  18.548  0.00  0.00    -0.481 OA
ATOM     37  H   UNL     1      -3.309 -14.365  18.586  0.00  0.00    +0.295 HD
ENDBRANCH  29   3
ENDBRANCH  23  29
ENDBRANCH  17  23
BRANCH  26  30
ATOM     30  C   UNL     1      -9.664  -9.649  15.636  0.00  0.00    +0.324 C 
BRANCH  30   5
ATOM      5  O   UNL     1     -10.032  -8.344  16.011  0.00  0.00    -0.483 OA
BRANCH   5  31
ATOM     31  C   UNL     1     -10.893  -7.666  15.177  0.00  0.00    +0.121 A 
ATOM     32  C   UNL     1     -11.104  -6.299  15.356  0.00  0.00    +0.045 A 
ATOM     33  C   UNL     1     -11.557  -8.347  14.157  0.00  0.00    +0.045 A 
ATOM     34  C   UNL     1     -11.977  -5.613  14.512  0.00  0.00    +0.004 A 
ATOM     35  C   UNL     1     -12.430  -7.660  13.313  0.00  0.00    +0.004 A 
ATOM     36  C   UNL     1     -12.641  -6.292  13.491  0.00  0.00    +0.000 A 
ENDBRANCH   5  31
ENDBRANCH  30   5
ENDBRANCH  26  30
TORSDOF 9
ENDMDL
MODEL 7
REMARK VINA RESULT:      -6.1     15.210     19.104
REMARK  Name = 28959825
REMARK  9 active torsions:
REMARK  status: ('A' for Active; 'I' for Inactive)
REMARK    1  A    between atoms: O_3  and  C_29
REMARK    2  A    between atoms: O_5  and  C_30
REMARK    3  A    between atoms: O_5  and  C_31
REMARK    4  A    between atoms: N_6  and  C_16
REMARK    5  A    between atoms: C_14  and  C_18
REMARK    6  A    between atoms: C_16  and  C_18
REMARK    7  A    between atoms: C_17  and  C_23
REMARK    8  A    between atoms: C_23  and  C_29
REMARK    9  A    between atoms: C_26  and  C_30
REMARK                            x       y       z     vdW  Elec       q    Type
REMARK                         _______ _______ _______ _____ _____    ______ ____
ROOT
ATOM      2  O   UNL     1      19.935  -5.168   1.473  0.00  0.00    -0.272 OA
ATOM      8  N   UNL     1      21.212  -7.108   1.534  0.00  0.00    -0.298 N 
ATOM     14  C   UNL     1      21.441  -9.564   1.831  0.00  0.00    +0.011 C 
ATOM     17  C   UNL     1      22.028  -9.301   3.241  0.00  0.00    +0.006 C 
ATOM     20  C   UNL     1      21.701  -8.350   0.922  0.00  0.00    +0.111 C 
ATOM     21  C   UNL     1      21.529  -7.967   3.823  0.00  0.00    +0.023 C 
ATOM     22  C   UNL     1      21.773  -6.814   2.852  0.00  0.00    +0.108 C 
ATOM     26  C   UNL     1      20.310  -6.219   0.949  0.00  0.00    +0.253 C 
ENDROOT
BRANCH  14  18
ATOM     18  C   UNL     1      19.947  -9.916   1.835  0.00  0.00    +0.020 C 
BRANCH  18  16
ATOM     16  C   UNL     1      19.704 -11.310   1.263  0.00  0.00    +0.085 C 
BRANCH  16   6
ATOM      1  O   UNL     1      16.299 -15.844   3.656  0.00  0.00    -0.268 OA
ATOM      6  N   UNL     1      18.351 -11.760   1.581  0.00  0.00    -0.301 NA
ATOM      7  N   UNL     1      16.203 -13.574   3.088  0.00  0.00    -0.312 N 
ATOM      9  C   UNL     1      16.224 -12.726   0.671  0.00  0.00    +0.024 C 
ATOM     10  C   UNL     1      16.124 -11.123   2.520  0.00  0.00    +0.050 C 
ATOM     11  C   UNL     1      15.428 -11.555   1.232  0.00  0.00    +0.017 C 
ATOM     12  C   UNL     1      17.678 -12.291   0.390  0.00  0.00    +0.089 C 
ATOM     13  C   UNL     1      17.570 -10.678   2.202  0.00  0.00    +0.094 C 
ATOM     15  C   UNL     1      16.141 -13.899   1.657  0.00  0.00    +0.130 C 
ATOM     19  C   UNL     1      16.126 -12.251   3.535  0.00  0.00    +0.026 A 
ATOM     24  C   UNL     1      16.075 -11.985   4.852  0.00  0.00    +0.022 A 
ATOM     25  C   UNL     1      16.246 -14.659   3.984  0.00  0.00    +0.251 A 
ATOM     27  C   UNL     1      16.119 -13.045   5.818  0.00  0.00    +0.007 A 
ATOM     28  C   UNL     1      16.211 -14.322   5.434  0.00  0.00    +0.070 A 
ENDBRANCH  16   6
ENDBRANCH  18  16
ENDBRANCH  14  18
BRANCH  17  23
ATOM     23  C   UNL     1      21.773 -10.445   4.222  0.00  0.00    +0.124 C 
BRANCH  23  29
ATOM      4  O   UNL     1      23.807  -9.908   5.450  0.00  0.00    -0.251 OA
ATOM     29  C   UNL     1      22.673 -10.358   5.423  0.00  0.00    +0.305 C 
BRANCH  29   3
ATOM      3  O   UNL     1      22.036 -10.864   6.510  0.00  0.00    -0.481 OA
ATOM     37  H   UNL     1      21.387 -10.230   6.883  0.00  0.00    +0.295 HD
ENDBRANCH  29   3
ENDBRANCH  23  29
ENDBRANCH  17  23
BRANCH  26  30
ATOM     30  C   UNL     1      19.775  -6.596  -0.410  0.00  0.00    +0.324 C 
BRANCH  30   5
ATOM      5  O   UNL     1      20.082  -5.528  -1.273  0.00  0.00    -0.483 OA
BRANCH   5  31
ATOM     31  C   UNL     1      19.027  -4.794  -1.770  0.00  0.00    +0.121 A 
ATOM     32  C   UNL     1      19.062  -3.401  -1.720  0.00  0.00    +0.045 A 
ATOM     33  C   UNL     1      17.924  -5.445  -2.321  0.00  0.00    +0.045 A 
ATOM     34  C   UNL     1      17.994  -2.658  -2.222  0.00  0.00    +0.004 A 
ATOM     35  C   UNL     1      16.855  -4.702  -2.823  0.00  0.00    +0.004 A 
ATOM     36  C   UNL     1      16.890  -3.308  -2.773  0.00  0.00    +0.000 A 
ENDBRANCH   5  31
ENDBRANCH  30   5
ENDBRANCH  26  30
TORSDOF 9
ENDMDL
MODEL 8
REMARK VINA RESULT:      -6.1     22.029     26.013
REMARK  Name = 28959825
REMARK  9 active torsions:
REMARK  status: ('A' for Active; 'I' for Inactive)
REMARK    1  A    between atoms: O_3  and  C_29
REMARK    2  A    between atoms: O_5  and  C_30
REMARK    3  A    between atoms: O_5  and  C_31
REMARK    4  A    between atoms: N_6  and  C_16
REMARK    5  A    between atoms: C_14  and  C_18
REMARK    6  A    between atoms: C_16  and  C_18
REMARK    7  A    between atoms: C_17  and  C_23
REMARK    8  A    between atoms: C_23  and  C_29
REMARK    9  A    between atoms: C_26  and  C_30
REMARK                            x       y       z     vdW  Elec       q    Type
REMARK                         _______ _______ _______ _____ _____    ______ ____
ROOT
ATOM      2  O   UNL     1     -14.780   9.915  18.360  0.00  0.00    -0.272 OA
ATOM      8  N   UNL     1     -12.935   8.840  17.445  0.00  0.00    -0.298 N 
ATOM     14  C   UNL     1     -10.839   8.853  16.110  0.00  0.00    +0.011 C 
ATOM     17  C   UNL     1     -11.623   8.199  14.943  0.00  0.00    +0.006 C 
ATOM     20  C   UNL     1     -11.506   8.499  17.451  0.00  0.00    +0.111 C 
ATOM     21  C   UNL     1     -13.121   8.541  15.004  0.00  0.00    +0.023 C 
ATOM     22  C   UNL     1     -13.709   8.212  16.375  0.00  0.00    +0.108 C 
ATOM     26  C   UNL     1     -13.572   9.664  18.372  0.00  0.00    +0.253 C 
ENDROOT
BRANCH  14  18
ATOM     18  C   UNL     1     -10.682  10.374  15.979  0.00  0.00    +0.020 C 
BRANCH  18  16
ATOM     16  C   UNL     1      -9.888  10.952  17.147  0.00  0.00    +0.085 C 
BRANCH  16   6
ATOM      1  O   UNL     1      -5.367  15.085  17.743  0.00  0.00    -0.268 OA
ATOM      6  N   UNL     1      -9.452  12.312  16.839  0.00  0.00    -0.301 NA
ATOM      7  N   UNL     1      -7.287  14.627  16.483  0.00  0.00    -0.312 N 
ATOM      9  C   UNL     1      -9.660  14.737  17.443  0.00  0.00    +0.024 C 
ATOM     10  C   UNL     1      -9.325  14.103  15.100  0.00  0.00    +0.050 C 
ATOM     11  C   UNL     1     -10.062  15.079  16.014  0.00  0.00    +0.017 C 
ATOM     12  C   UNL     1     -10.050  13.279  17.768  0.00  0.00    +0.089 C 
ATOM     13  C   UNL     1      -9.750  12.656  15.440  0.00  0.00    +0.094 C 
ATOM     15  C   UNL     1      -8.156  14.995  17.609  0.00  0.00    +0.130 C 
ATOM     19  C   UNL     1      -7.823  14.263  15.243  0.00  0.00    +0.026 A 
ATOM     24  C   UNL     1      -7.010  14.037  14.196  0.00  0.00    +0.022 A 
ATOM     25  C   UNL     1      -5.900  14.754  16.683  0.00  0.00    +0.251 A 
ATOM     27  C   UNL     1      -5.586  14.145  14.335  0.00  0.00    +0.007 A 
ATOM     28  C   UNL     1      -5.032  14.473  15.506  0.00  0.00    +0.070 A 
ENDBRANCH  16   6
ENDBRANCH  18  16
ENDBRANCH  14  18
BRANCH  17  23
ATOM     23  C   UNL     1     -11.048   8.539  13.568  0.00  0.00    +0.124 C 
BRANCH  23  29
ATOM      4  O   UNL     1     -10.779   6.193  12.963  0.00  0.00    -0.251 OA
ATOM     29  C   UNL     1     -10.383   7.348  12.935  0.00  0.00    +0.305 C 
BRANCH  29   3
ATOM      3  O   UNL     1      -9.244   7.740  12.308  0.00  0.00    -0.481 OA
ATOM     37  H   UNL     1      -8.538   7.978  12.945  0.00  0.00    +0.295 HD
ENDBRANCH  29   3
ENDBRANCH  23  29
ENDBRANCH  17  23
BRANCH  26  30
ATOM     30  C   UNL     1     -12.704  10.276  19.442  0.00  0.00    +0.324 C 
BRANCH  30   5
ATOM      5  O   UNL     1     -13.251   9.884  20.677  0.00  0.00    -0.483 OA
BRANCH   5  31
ATOM     31  C   UNL     1     -13.222   8.542  20.984  0.00  0.00    +0.121 A 
ATOM     32  C   UNL     1     -14.375   7.908  21.448  0.00  0.00    +0.045 A 
ATOM     33  C   UNL     1     -12.041   7.818  20.836  0.00  0.00    +0.045 A 
ATOM     34  C   UNL     1     -14.346   6.549  21.761  0.00  0.00    +0.004 A 
ATOM     35  C   UNL     1     -12.011   6.459  21.148  0.00  0.00    +0.004 A 
ATOM     36  C   UNL     1     -13.164   5.824  21.611  0.00  0.00    +0.000 A 
ENDBRANCH   5  31
ENDBRANCH  30   5
ENDBRANCH  26  30
TORSDOF 9
ENDMDL
MODEL 9
REMARK VINA RESULT:      -6.1     23.480     27.245
REMARK  Name = 28959825
REMARK  9 active torsions:
REMARK  status: ('A' for Active; 'I' for Inactive)
REMARK    1  A    between atoms: O_3  and  C_29
REMARK    2  A    between atoms: O_5  and  C_30
REMARK    3  A    between atoms: O_5  and  C_31
REMARK    4  A    between atoms: N_6  and  C_16
REMARK    5  A    between atoms: C_14  and  C_18
REMARK    6  A    between atoms: C_16  and  C_18
REMARK    7  A    between atoms: C_17  and  C_23
REMARK    8  A    between atoms: C_23  and  C_29
REMARK    9  A    between atoms: C_26  and  C_30
REMARK                            x       y       z     vdW  Elec       q    Type
REMARK                         _______ _______ _______ _____ _____    ______ ____
ROOT
ATOM      2  O   UNL     1      -1.896 -10.271  13.308  0.00  0.00    -0.272 OA
ATOM      8  N   UNL     1      -3.462 -11.342  14.648  0.00  0.00    -0.298 N 
ATOM     14  C   UNL     1      -5.584 -11.358  15.943  0.00  0.00    +0.011 C 
ATOM     17  C   UNL     1      -4.746 -11.257  17.244  0.00  0.00    +0.006 C 
ATOM     20  C   UNL     1      -4.749 -12.025  14.835  0.00  0.00    +0.111 C 
ATOM     21  C   UNL     1      -3.388 -10.581  16.993  0.00  0.00    +0.023 C 
ATOM     22  C   UNL     1      -2.634 -11.259  15.851  0.00  0.00    +0.108 C 
ATOM     26  C   UNL     1      -2.993 -10.818  13.444  0.00  0.00    +0.253 C 
ENDROOT
BRANCH  14  18
ATOM     18  C   UNL     1      -6.139 -10.014  15.454  0.00  0.00    +0.020 C 
BRANCH  18  16
ATOM     16  C   UNL     1      -7.385 -10.208  14.594  0.00  0.00    +0.085 C 
BRANCH  16   6
ATOM      1  O   UNL     1     -11.504  -5.639  14.769  0.00  0.00    -0.268 OA
ATOM      6  N   UNL     1      -8.560  -9.673  15.277  0.00  0.00    -0.301 NA
ATOM      7  N   UNL     1     -11.150  -7.826  15.525  0.00  0.00    -0.312 N 
ATOM      9  C   UNL     1      -9.398  -8.438  17.292  0.00  0.00    +0.024 C 
ATOM     10  C   UNL     1     -10.782 -10.196  16.294  0.00  0.00    +0.050 C 
ATOM     11  C   UNL     1     -10.348  -9.582  17.623  0.00  0.00    +0.017 C 
ATOM     12  C   UNL     1      -8.180  -8.972  16.509  0.00  0.00    +0.089 C 
ATOM     13  C   UNL     1      -9.543 -10.735  15.544  0.00  0.00    +0.094 C 
ATOM     15  C   UNL     1     -10.170  -7.362  16.517  0.00  0.00    +0.130 C 
ATOM     19  C   UNL     1     -11.515  -9.174  15.444  0.00  0.00    +0.026 A 
ATOM     24  C   UNL     1     -12.492  -9.560  14.605  0.00  0.00    +0.022 A 
ATOM     25  C   UNL     1     -11.768  -6.841  14.734  0.00  0.00    +0.251 A 
ATOM     27  C   UNL     1     -13.160  -8.605  13.767  0.00  0.00    +0.007 A 
ATOM     28  C   UNL     1     -12.830  -7.310  13.800  0.00  0.00    +0.070 A 
ENDBRANCH  16   6
ENDBRANCH  18  16
ENDBRANCH  14  18
BRANCH  17  23
ATOM     23  C   UNL     1      -5.491 -10.564  18.385  0.00  0.00    +0.124 C 
BRANCH  23  29
ATOM      4  O   UNL     1      -6.177 -11.285  20.609  0.00  0.00    -0.251 OA
ATOM     29  C   UNL     1      -5.917 -11.543  19.444  0.00  0.00    +0.305 C 
BRANCH  29   3
ATOM      3  O   UNL     1      -5.976 -12.792  18.916  0.00  0.00    -0.481 OA
ATOM     37  H   UNL     1      -5.835 -13.484  19.596  0.00  0.00    +0.295 HD
ENDBRANCH  29   3
ENDBRANCH  23  29
ENDBRANCH  17  23
BRANCH  26  30
ATOM     30  C   UNL     1      -3.908 -10.941  12.252  0.00  0.00    +0.324 C 
BRANCH  30   5
ATOM      5  O   UNL     1      -4.657  -9.751  12.195  0.00  0.00    -0.483 OA
BRANCH   5  31
ATOM     31  C   UNL     1      -5.283  -9.453  11.005  0.00  0.00    +0.121 A 
ATOM     32  C   UNL     1      -6.622  -9.063  11.001  0.00  0.00    +0.045 A 
ATOM     33  C   UNL     1      -4.580  -9.546   9.805  0.00  0.00    +0.045 A 
ATOM     34  C   UNL     1      -7.257  -8.764   9.796  0.00  0.00    +0.004 A 
ATOM     35  C   UNL     1      -5.215  -9.247   8.600  0.00  0.00    +0.004 A 
ATOM     36  C   UNL     1      -6.555  -8.856   8.595  0.00  0.00    +0.000 A 
ENDBRANCH   5  31
ENDBRANCH  30   5
ENDBRANCH  26  30
TORSDOF 9
ENDMDL
MODEL 10
REMARK VINA RESULT:      -6.1     23.183     26.854
REMARK  Name = 28959825
REMARK  9 active torsions:
REMARK  status: ('A' for Active; 'I' for Inactive)
REMARK    1  A    between atoms: O_3  and  C_29
REMARK    2  A    between atoms: O_5  and  C_30
REMARK    3  A    between atoms: O_5  and  C_31
REMARK    4  A    between atoms: N_6  and  C_16
REMARK    5  A    between atoms: C_14  and  C_18
REMARK    6  A    between atoms: C_16  and  C_18
REMARK    7  A    between atoms: C_17  and  C_23
REMARK    8  A    between atoms: C_23  and  C_29
REMARK    9  A    between atoms: C_26  and  C_30
REMARK                            x       y       z     vdW  Elec       q    Type
REMARK                         _______ _______ _______ _____ _____    ______ ____
ROOT
ATOM      2  O   UNL     1      -7.085 -11.246   7.936  0.00  0.00    -0.272 OA
ATOM      8  N   UNL     1      -7.557  -9.866   9.745  0.00  0.00    -0.298 N 
ATOM     14  C   UNL     1      -7.342  -9.261  12.146  0.00  0.00    +0.011 C 
ATOM     17  C   UNL     1      -8.773  -9.814  12.374  0.00  0.00    +0.006 C 
ATOM     20  C   UNL     1      -7.187  -8.800  10.685  0.00  0.00    +0.111 C 
ATOM     21  C   UNL     1      -9.136 -10.891  11.338  0.00  0.00    +0.023 C 
ATOM     22  C   UNL     1      -8.914 -10.387   9.913  0.00  0.00    +0.108 C 
ATOM     26  C   UNL     1      -6.742 -10.367   8.731  0.00  0.00    +0.253 C 
ENDROOT
BRANCH  14  18
ATOM     18  C   UNL     1      -6.227 -10.249  12.513  0.00  0.00    +0.020 C 
BRANCH  18  16
ATOM     16  C   UNL     1      -5.301  -9.668  13.579  0.00  0.00    +0.085 C 
BRANCH  16   6
ATOM      1  O   UNL     1      -6.362  -9.923  19.636  0.00  0.00    -0.268 OA
ATOM      6  N   UNL     1      -5.300 -10.520  14.767  0.00  0.00    -0.301 NA
ATOM      7  N   UNL     1      -6.116 -11.292  17.752  0.00  0.00    -0.312 N 
ATOM      9  C   UNL     1      -3.889 -11.613  16.527  0.00  0.00    +0.024 C 
ATOM     10  C   UNL     1      -5.898 -12.754  15.714  0.00  0.00    +0.050 C 
ATOM     11  C   UNL     1      -4.456 -12.979  16.163  0.00  0.00    +0.017 C 
ATOM     12  C   UNL     1      -3.943 -10.674  15.303  0.00  0.00    +0.089 C 
ATOM     13  C   UNL     1      -5.915 -11.825  14.478  0.00  0.00    +0.094 C 
ATOM     15  C   UNL     1      -4.666 -11.058  17.729  0.00  0.00    +0.130 C 
ATOM     19  C   UNL     1      -6.725 -12.159  16.839  0.00  0.00    +0.026 A 
ATOM     24  C   UNL     1      -8.035 -12.443  16.947  0.00  0.00    +0.022 A 
ATOM     25  C   UNL     1      -6.841 -10.681  18.792  0.00  0.00    +0.251 A 
ATOM     27  C   UNL     1      -8.832 -11.850  17.983  0.00  0.00    +0.007 A 
ATOM     28  C   UNL     1      -8.293 -11.003  18.865  0.00  0.00    +0.070 A 
ENDBRANCH  16   6
ENDBRANCH  18  16
ENDBRANCH  14  18
BRANCH  17  23
ATOM     23  C   UNL     1      -8.996 -10.335  13.793  0.00  0.00    +0.124 C 
BRANCH  23  29
ATOM      4  O   UNL     1     -10.087  -8.433  14.855  0.00  0.00    -0.251 OA
ATOM     29  C   UNL     1      -9.149  -9.210  14.780  0.00  0.00    +0.305 C 
BRANCH  29   3
ATOM      3  O   UNL     1      -8.069  -9.172  15.602  0.00  0.00    -0.481 OA
ATOM     37  H   UNL     1      -8.198  -8.547  16.347  0.00  0.00    +0.295 HD
ENDBRANCH  29   3
ENDBRANCH  23  29
ENDBRANCH  17  23
BRANCH  26  30
ATOM     30  C   UNL     1      -5.356  -9.780   8.626  0.00  0.00    +0.324 C 
BRANCH  30   5
ATOM      5  O   UNL     1      -4.455 -10.855   8.739  0.00  0.00    -0.483 OA
BRANCH   5  31
ATOM     31  C   UNL     1      -3.713 -10.938   9.897  0.00  0.00    +0.121 A 
ATOM     32  C   UNL     1      -3.693 -12.125  10.627  0.00  0.00    +0.045 A 
ATOM     33  C   UNL     1      -2.985  -9.834  10.339  0.00  0.00    +0.045 A 
ATOM     34  C   UNL     1      -2.943 -12.209  11.800  0.00  0.00    +0.004 A 
ATOM     35  C   UNL     1      -2.235  -9.918  11.512  0.00  0.00    +0.004 A 
ATOM     36  C   UNL     1      -2.214 -11.106  12.244  0.00  0.00    +0.000 A 
ENDBRANCH   5  31
ENDBRANCH  30   5
ENDBRANCH  26  30
TORSDOF 9
ENDMDL
