REMARK  Name = 11880092
REMARK  12 active torsions:
REMARK  status: ('A' for Active; 'I' for Inactive)
REMARK    1  A    between atoms: O_1  and  C_12
REMARK    2  A    between atoms: O_2  and  C_15
REMARK    3  A    between atoms: O_3  and  C_17
REMARK    4  A    between atoms: N_8  and  C_13
REMARK    5  A    between atoms: N_9  and  C_19
REMARK    6  A    between atoms: N_10  and  C_24
REMARK    7  A    between atoms: C_12  and  C_18
REMARK    8  A    between atoms: C_19  and  C_21
REMARK    9  A    between atoms: C_19  and  C_22
REMARK   10  A    between atoms: C_21  and  C_23
REMARK   11  A    between atoms: C_34  and  C_35
REMARK   12  A    between atoms: C_35  and  C_36
REMARK                            x       y       z     vdW  Elec       q    Type
REMARK                         _______ _______ _______ _____ _____    ______ ____
ROOT
ATOM     12  C   UNL     1      -2.991   1.577  -0.235  0.00  0.00    +0.146 C 
ATOM     13  C   UNL     1      -0.623   2.454   0.057  0.00  0.00    +0.109 C 
ATOM     14  C   UNL     1      -1.576   1.271   0.262  0.00  0.00    +0.069 C 
ATOM     15  C   UNL     1      -1.177   3.746   0.671  0.00  0.00    +0.163 C 
ATOM     16  C   UNL     1      -3.537   2.854   0.399  0.00  0.00    +0.078 C 
ATOM     17  C   UNL     1      -2.600   4.045   0.194  0.00  0.00    +0.148 C 
ENDROOT
BRANCH  13   8
ATOM      5  O   UNL     1       1.540   1.133  -1.276  0.00  0.00    -0.252 OA
ATOM      8  N   UNL     1       0.673   2.139   0.616  0.00  0.00    -0.294 N 
ATOM     10  N   UNL     1       2.813   1.321   0.687  0.00  0.00    -0.269 N 
ATOM     20  C   UNL     1       1.677   1.489  -0.108  0.00  0.00    +0.304 C 
ATOM     37  H   UNL     1       0.835   2.332   1.599  0.00  0.00    +0.151 HD
ATOM     42  H   UNL     1       2.761   1.677   1.638  0.00  0.00    +0.156 HD
BRANCH  10  24
ATOM     24  C   UNL     1       4.040   0.712   0.330  0.00  0.00    +0.035 A 
ATOM     27  C   UNL     1       4.198   0.202  -0.948  0.00  0.00    +0.024 A 
ATOM     28  C   UNL     1       5.058   0.641   1.266  0.00  0.00    +0.024 A 
ATOM     32  C   UNL     1       5.408  -0.396  -1.300  0.00  0.00    +0.013 A 
ATOM     33  C   UNL     1       6.268   0.043   0.915  0.00  0.00    +0.013 A 
ATOM     34  C   UNL     1       6.443  -0.476  -0.368  0.00  0.00    +0.017 A 
BRANCH  34  35
ATOM      7  O   UNL     1       8.648  -1.186   0.076  0.00  0.00    -0.292 OA
ATOM     35  C   UNL     1       7.704  -1.101  -0.735  0.00  0.00    +0.160 C 
ATOM     36  C   UNL     1       7.901  -1.671  -2.135  0.00  0.00    +0.091 C 
ENDBRANCH  34  35
ENDBRANCH  10  24
ENDBRANCH  13   8
BRANCH  12  18
ATOM      4  O   UNL     1      -4.897   0.545   0.769  0.00  0.00    -0.273 OA
ATOM      9  N   UNL     1      -3.495  -0.741  -0.574  0.00  0.00    -0.301 N 
ATOM     18  C   UNL     1      -3.910   0.425   0.047  0.00  0.00    +0.246 C 
ATOM     41  H   UNL     1      -2.742  -0.692  -1.253  0.00  0.00    +0.150 HD
BRANCH   9  19
ATOM     19  C   UNL     1      -4.196  -1.998  -0.443  0.00  0.00    +0.163 C 
BRANCH  19  22
ATOM      6  O   UNL     1      -5.149  -1.520  -2.626  0.00  0.00    -0.274 OA
ATOM     11  N   UNL     1      -6.407  -2.707  -1.115  0.00  0.00    -0.328 N 
ATOM     22  C   UNL     1      -5.279  -2.020  -1.512  0.00  0.00    +0.231 C 
ATOM     43  H   UNL     1      -6.491  -3.135  -0.198  0.00  0.00    +0.145 HD
ATOM     44  H   UNL     1      -7.200  -2.809  -1.738  0.00  0.00    +0.145 HD
ENDBRANCH  19  22
BRANCH  19  21
ATOM     21  C   UNL     1      -3.262  -3.204  -0.603  0.00  0.00    +0.067 C 
BRANCH  21  23
ATOM     23  C   UNL     1      -2.151  -3.211   0.420  0.00  0.00    -0.045 A 
ATOM     25  C   UNL     1      -0.956  -2.574   0.128  0.00  0.00    +0.004 A 
ATOM     26  C   UNL     1      -2.349  -3.853   1.632  0.00  0.00    +0.004 A 
ATOM     29  C   UNL     1       0.070  -2.580   1.074  0.00  0.00    +0.000 A 
ATOM     30  C   UNL     1      -1.323  -3.859   2.577  0.00  0.00    +0.000 A 
ATOM     31  C   UNL     1      -0.113  -3.222   2.298  0.00  0.00    +0.000 A 
ENDBRANCH  21  23
ENDBRANCH  19  21
ENDBRANCH   9  19
ENDBRANCH  12  18
BRANCH  12   1
ATOM      1  O   UNL     1      -3.001   1.719  -1.651  0.00  0.00    -0.379 OA
ATOM     38  H   UNL     1      -3.889   2.006  -1.924  0.00  0.00    +0.211 HD
ENDBRANCH  12   1
BRANCH  15   2
ATOM      2  O   UNL     1      -0.348   4.843   0.276  0.00  0.00    -0.387 OA
ATOM     39  H   UNL     1      -0.608   5.615   0.806  0.00  0.00    +0.210 HD
ENDBRANCH  15   2
BRANCH  17   3
ATOM      3  O   UNL     1      -3.101   5.159   0.934  0.00  0.00    -0.389 OA
ATOM     40  H   UNL     1      -2.595   5.944   0.665  0.00  0.00    +0.210 HD
ENDBRANCH  17   3
TORSDOF 11
