REMARK  Name = 75536834
REMARK  8 active torsions:
REMARK  status: ('A' for Active; 'I' for Inactive)
REMARK    1  A    between atoms: O_3  and  C_9
REMARK    2  A    between atoms: N_5  and  C_8
REMARK    3  A    between atoms: N_5  and  C_11
REMARK    4  A    between atoms: N_6  and  C_15
REMARK    5  A    between atoms: N_7  and  C_17
REMARK    6  A    between atoms: C_10  and  C_15
REMARK    7  A    between atoms: C_17  and  C_18
REMARK    8  A    between atoms: C_17  and  C_19
REMARK                            x       y       z     vdW  Elec       q    Type
REMARK                         _______ _______ _______ _____ _____    ______ ____
ROOT
ATOM      1  O   UNL     1      -0.242   1.241  -0.641  0.00  0.00    -0.371 OA
ATOM      8  C   UNL     1      -2.307   0.213  -0.074  0.00  0.00    +0.111 C 
ATOM      9  C   UNL     1      -1.339  -0.853  -0.555  0.00  0.00    +0.164 C 
ATOM     10  C   UNL     1      -0.004  -0.147  -0.356  0.00  0.00    +0.165 C 
ATOM     12  C   UNL     1      -1.662   1.475  -0.622  0.00  0.00    +0.181 C 
ENDROOT
BRANCH   9   3
ATOM      3  O   UNL     1      -1.422  -2.046   0.199  0.00  0.00    -0.388 OA
ATOM     21  H   UNL     1      -1.277  -1.828   1.135  0.00  0.00    +0.210 HD
ENDBRANCH   9   3
BRANCH   8   5
ATOM      5  N   UNL     1      -3.668   0.021  -0.548  0.00  0.00    -0.302 NA
ATOM     20  H   UNL     1      -3.726   0.244  -1.541  0.00  0.00    +0.123 HD
BRANCH   5  11
ATOM      2  O   UNL     1      -6.239  -0.452   0.863  0.00  0.00    -0.377 OA
ATOM     11  C   UNL     1      -4.595   0.785   0.296  0.00  0.00    +0.106 C 
ATOM     13  C   UNL     1      -6.025   0.533  -0.181  0.00  0.00    +0.180 C 
ATOM     14  C   UNL     1      -4.995  -0.066   1.501  0.00  0.00    +0.180 C 
ENDBRANCH   5  11
ENDBRANCH   8   5
BRANCH  10  15
ATOM     15  C   UNL     1       1.095  -0.676  -1.261  0.00  0.00    +0.140 C 
BRANCH  15   6
ATOM      4  O   UNL     1       3.175  -1.376   0.612  0.00  0.00    -0.253 OA
ATOM      6  N   UNL     1       2.330   0.019  -1.042  0.00  0.00    -0.297 N 
ATOM      7  N   UNL     1       4.391   0.466  -0.103  0.00  0.00    -0.297 N 
ATOM     16  C   UNL     1       3.290  -0.387  -0.111  0.00  0.00    +0.300 C 
ATOM     22  H   UNL     1       2.510   0.860  -1.583  0.00  0.00    +0.150 HD
ATOM     23  H   UNL     1       4.427   1.213  -0.791  0.00  0.00    +0.150 HD
BRANCH   7  17
ATOM     17  C   UNL     1       5.526   0.272   0.768  0.00  0.00    +0.068 C 
ATOM     18  C   UNL     1       6.555  -0.638   0.110  0.00  0.00    +0.027 C 
ATOM     19  C   UNL     1       6.138   1.614   1.147  0.00  0.00    +0.027 C 
ENDBRANCH   7  17
ENDBRANCH  15   6
ENDBRANCH  10  15
TORSDOF 6
