MODEL 1
REMARK VINA RESULT:      -6.9      0.000      0.000
REMARK  Name = 71693882
REMARK  11 active torsions:
REMARK  status: ('A' for Active; 'I' for Inactive)
REMARK    1  A    between atoms: O_1  and  C_10
REMARK    2  A    between atoms: O_2  and  C_12
REMARK    3  A    between atoms: O_4  and  C_20
REMARK    4  A    between atoms: O_4  and  C_26
REMARK    5  A    between atoms: O_5  and  C_23
REMARK    6  A    between atoms: O_5  and  C_27
REMARK    7  A    between atoms: O_6  and  C_25
REMARK    8  A    between atoms: O_6  and  C_28
REMARK    9  A    between atoms: N_7  and  C_9
REMARK   10  A    between atoms: C_8  and  C_13
REMARK   11  A    between atoms: C_16  and  C_19
REMARK                            x       y       z     vdW  Elec       q    Type
REMARK                         _______ _______ _______ _____ _____    ______ ____
ROOT
ATOM      8  C   UNL     1      14.083   9.033  18.995  0.00  0.00    +0.044 C 
ATOM      9  C   UNL     1      12.843   8.812  19.892  0.00  0.00    +0.112 C 
ATOM     10  C   UNL     1      11.671   8.998  18.929  0.00  0.00    +0.164 C 
ATOM     11  C   UNL     1      13.614   8.741  17.546  0.00  0.00    +0.044 C 
ATOM     12  C   UNL     1      12.154   8.309  17.659  0.00  0.00    +0.145 C 
ENDROOT
BRANCH   8  13
ATOM     13  C   UNL     1      15.284   8.224  19.437  0.00  0.00    -0.042 A 
ATOM     14  C   UNL     1      15.485   6.941  18.928  0.00  0.00    +0.007 A 
ATOM     15  C   UNL     1      16.188   8.760  20.352  0.00  0.00    +0.007 A 
ATOM     17  C   UNL     1      16.592   6.195  19.335  0.00  0.00    +0.046 A 
ATOM     18  C   UNL     1      17.294   8.015  20.760  0.00  0.00    +0.046 A 
ATOM     20  C   UNL     1      17.496   6.732  20.251  0.00  0.00    +0.120 A 
BRANCH  20   4
ATOM      4  O   UNL     1      18.576   6.004  20.649  0.00  0.00    -0.495 OA
ATOM     26  C   UNL     1      19.409   6.576  21.655  0.00  0.00    +0.277 C 
ENDBRANCH  20   4
ENDBRANCH   8  13
BRANCH   9   7
ATOM      3  O   UNL     1      11.421   8.486  22.365  0.00  0.00    -0.270 OA
ATOM      7  N   UNL     1      12.794   9.748  20.986  0.00  0.00    -0.305 N 
ATOM     16  C   UNL     1      12.075   9.502  22.148  0.00  0.00    +0.245 C 
ATOM     29  H   UNL     1      13.284  10.627  20.858  0.00  0.00    +0.149 HD
BRANCH  16  19
ATOM     19  C   UNL     1      12.104  10.578  23.171  0.00  0.00    +0.040 A 
ATOM     21  C   UNL     1      13.249  11.359  23.332  0.00  0.00    +0.062 A 
ATOM     22  C   UNL     1      10.985  10.808  23.973  0.00  0.00    +0.017 A 
ATOM     23  C   UNL     1      13.275  12.370  24.293  0.00  0.00    +0.162 A 
ATOM     24  C   UNL     1      11.012  11.819  24.934  0.00  0.00    +0.050 A 
ATOM     25  C   UNL     1      12.157  12.600  25.094  0.00  0.00    +0.162 A 
BRANCH  23   5
ATOM      5  O   UNL     1      14.399  13.125  24.439  0.00  0.00    -0.491 OA
ATOM     27  C   UNL     1      15.496  12.529  25.129  0.00  0.00    +0.277 C 
ENDBRANCH  23   5
BRANCH  25   6
ATOM      6  O   UNL     1      12.170  13.584  26.036  0.00  0.00    -0.491 OA
ATOM     28  C   UNL     1      11.477  14.791  25.723  0.00  0.00    +0.277 C 
ENDBRANCH  25   6
ENDBRANCH  16  19
ENDBRANCH   9   7
BRANCH  10   1
ATOM      1  O   UNL     1      10.481   8.405  19.412  0.00  0.00    -0.387 OA
ATOM     30  H   UNL     1      10.050   7.962  18.661  0.00  0.00    +0.210 HD
ENDBRANCH  10   1
BRANCH  12   2
ATOM      2  O   UNL     1      12.106   6.892  17.798  0.00  0.00    -0.389 OA
ATOM     31  H   UNL     1      11.379   6.567  17.240  0.00  0.00    +0.210 HD
ENDBRANCH  12   2
TORSDOF 8
ENDMDL
MODEL 2
REMARK VINA RESULT:      -6.2     15.059     19.205
REMARK  Name = 71693882
REMARK  11 active torsions:
REMARK  status: ('A' for Active; 'I' for Inactive)
REMARK    1  A    between atoms: O_1  and  C_10
REMARK    2  A    between atoms: O_2  and  C_12
REMARK    3  A    between atoms: O_4  and  C_20
REMARK    4  A    between atoms: O_4  and  C_26
REMARK    5  A    between atoms: O_5  and  C_23
REMARK    6  A    between atoms: O_5  and  C_27
REMARK    7  A    between atoms: O_6  and  C_25
REMARK    8  A    between atoms: O_6  and  C_28
REMARK    9  A    between atoms: N_7  and  C_9
REMARK   10  A    between atoms: C_8  and  C_13
REMARK   11  A    between atoms: C_16  and  C_19
REMARK                            x       y       z     vdW  Elec       q    Type
REMARK                         _______ _______ _______ _____ _____    ______ ____
ROOT
ATOM      8  C   UNL     1      11.200   6.449   6.746  0.00  0.00    +0.044 C 
ATOM      9  C   UNL     1      10.183   6.527   5.584  0.00  0.00    +0.112 C 
ATOM     10  C   UNL     1       8.928   5.878   6.166  0.00  0.00    +0.164 C 
ATOM     11  C   UNL     1      10.355   6.332   8.041  0.00  0.00    +0.044 C 
ATOM     12  C   UNL     1       8.896   6.407   7.595  0.00  0.00    +0.145 C 
ENDROOT
BRANCH   8  13
ATOM     13  C   UNL     1      12.187   7.597   6.747  0.00  0.00    -0.042 A 
ATOM     14  C   UNL     1      13.538   7.355   6.500  0.00  0.00    +0.007 A 
ATOM     15  C   UNL     1      11.745   8.896   6.994  0.00  0.00    +0.007 A 
ATOM     17  C   UNL     1      14.448   8.413   6.502  0.00  0.00    +0.046 A 
ATOM     18  C   UNL     1      12.654   9.954   6.997  0.00  0.00    +0.046 A 
ATOM     20  C   UNL     1      14.006   9.712   6.750  0.00  0.00    +0.120 A 
BRANCH  20   4
ATOM      4  O   UNL     1      14.893  10.745   6.752  0.00  0.00    -0.495 OA
ATOM     26  C   UNL     1      16.192  10.486   6.221  0.00  0.00    +0.277 C 
ENDBRANCH  20   4
ENDBRANCH   8  13
BRANCH   9   7
ATOM      3  O   UNL     1       9.339   6.983   2.878  0.00  0.00    -0.270 OA
ATOM      7  N   UNL     1      10.650   5.836   4.410  0.00  0.00    -0.305 N 
ATOM     16  C   UNL     1      10.181   6.127   3.135  0.00  0.00    +0.245 C 
ATOM     29  H   UNL     1      11.321   5.090   4.555  0.00  0.00    +0.149 HD
BRANCH  16  19
ATOM     19  C   UNL     1      10.743   5.307   2.032  0.00  0.00    +0.040 A 
ATOM     21  C   UNL     1      11.848   4.487   2.264  0.00  0.00    +0.062 A 
ATOM     22  C   UNL     1      10.167   5.358   0.762  0.00  0.00    +0.017 A 
ATOM     23  C   UNL     1      12.375   3.718   1.227  0.00  0.00    +0.162 A 
ATOM     24  C   UNL     1      10.695   4.588  -0.275  0.00  0.00    +0.050 A 
ATOM     25  C   UNL     1      11.799   3.768  -0.041  0.00  0.00    +0.162 A 
BRANCH  23   5
ATOM      5  O   UNL     1      13.453   2.921   1.467  0.00  0.00    -0.491 OA
ATOM     27  C   UNL     1      14.702   3.571   1.695  0.00  0.00    +0.277 C 
ENDBRANCH  23   5
BRANCH  25   6
ATOM      6  O   UNL     1      12.305   3.021  -1.063  0.00  0.00    -0.491 OA
ATOM     28  C   UNL     1      13.128   3.695  -2.014  0.00  0.00    +0.277 C 
ENDBRANCH  25   6
ENDBRANCH  16  19
ENDBRANCH   9   7
BRANCH  10   1
ATOM      1  O   UNL     1       7.758   6.243   5.459  0.00  0.00    -0.387 OA
ATOM     30  H   UNL     1       6.995   5.975   6.000  0.00  0.00    +0.210 HD
ENDBRANCH  10   1
BRANCH  12   2
ATOM      2  O   UNL     1       8.478   7.768   7.626  0.00  0.00    -0.389 OA
ATOM     31  H   UNL     1       7.872   7.872   8.379  0.00  0.00    +0.210 HD
ENDBRANCH  12   2
TORSDOF 8
ENDMDL
MODEL 3
REMARK VINA RESULT:      -6.1     15.420     20.393
REMARK  Name = 71693882
REMARK  11 active torsions:
REMARK  status: ('A' for Active; 'I' for Inactive)
REMARK    1  A    between atoms: O_1  and  C_10
REMARK    2  A    between atoms: O_2  and  C_12
REMARK    3  A    between atoms: O_4  and  C_20
REMARK    4  A    between atoms: O_4  and  C_26
REMARK    5  A    between atoms: O_5  and  C_23
REMARK    6  A    between atoms: O_5  and  C_27
REMARK    7  A    between atoms: O_6  and  C_25
REMARK    8  A    between atoms: O_6  and  C_28
REMARK    9  A    between atoms: N_7  and  C_9
REMARK   10  A    between atoms: C_8  and  C_13
REMARK   11  A    between atoms: C_16  and  C_19
REMARK                            x       y       z     vdW  Elec       q    Type
REMARK                         _______ _______ _______ _____ _____    ______ ____
ROOT
ATOM      8  C   UNL     1       8.465   7.417   4.483  0.00  0.00    +0.044 C 
ATOM      9  C   UNL     1       9.668   7.915   3.650  0.00  0.00    +0.112 C 
ATOM     10  C   UNL     1       9.160   9.219   3.037  0.00  0.00    +0.164 C 
ATOM     11  C   UNL     1       7.610   8.674   4.785  0.00  0.00    +0.044 C 
ATOM     12  C   UNL     1       8.369   9.851   4.176  0.00  0.00    +0.145 C 
ENDROOT
BRANCH   8  13
ATOM     13  C   UNL     1       8.880   6.635   5.712  0.00  0.00    -0.042 A 
ATOM     14  C   UNL     1       9.333   5.322   5.582  0.00  0.00    +0.007 A 
ATOM     15  C   UNL     1       8.809   7.226   6.972  0.00  0.00    +0.007 A 
ATOM     17  C   UNL     1       9.713   4.601   6.715  0.00  0.00    +0.046 A 
ATOM     18  C   UNL     1       9.189   6.506   8.104  0.00  0.00    +0.046 A 
ATOM     20  C   UNL     1       9.642   5.193   7.975  0.00  0.00    +0.120 A 
BRANCH  20   4
ATOM      4  O   UNL     1      10.014   4.490   9.080  0.00  0.00    -0.495 OA
ATOM     26  C   UNL     1       9.156   4.566  10.217  0.00  0.00    +0.277 C 
ENDBRANCH  20   4
ENDBRANCH   8  13
BRANCH   9   7
ATOM      3  O   UNL     1      12.122   6.428   3.555  0.00  0.00    -0.270 OA
ATOM      7  N   UNL     1      10.058   6.963   2.642  0.00  0.00    -0.305 N 
ATOM     16  C   UNL     1      11.272   6.289   2.680  0.00  0.00    +0.245 C 
ATOM     29  H   UNL     1       9.417   6.828   1.868  0.00  0.00    +0.149 HD
BRANCH  16  19
ATOM     19  C   UNL     1      11.537   5.361   1.551  0.00  0.00    +0.040 A 
ATOM     21  C   UNL     1      10.625   5.263   0.499  0.00  0.00    +0.062 A 
ATOM     22  C   UNL     1      12.696   4.585   1.544  0.00  0.00    +0.017 A 
ATOM     23  C   UNL     1      10.874   4.390  -0.560  0.00  0.00    +0.162 A 
ATOM     24  C   UNL     1      12.945   3.712   0.484  0.00  0.00    +0.050 A 
ATOM     25  C   UNL     1      12.033   3.615  -0.568  0.00  0.00    +0.162 A 
BRANCH  23   5
ATOM      5  O   UNL     1       9.977   4.304  -1.581  0.00  0.00    -0.491 OA
ATOM     27  C   UNL     1       9.196   5.465  -1.858  0.00  0.00    +0.277 C 
ENDBRANCH  23   5
BRANCH  25   6
ATOM      6  O   UNL     1      12.288   2.759  -1.597  0.00  0.00    -0.491 OA
ATOM     28  C   UNL     1      12.967   3.294  -2.732  0.00  0.00    +0.277 C 
ENDBRANCH  25   6
ENDBRANCH  16  19
ENDBRANCH   9   7
BRANCH  10   1
ATOM      1  O   UNL     1      10.216  10.063   2.619  0.00  0.00    -0.387 OA
ATOM     30  H   UNL     1      10.069  10.270   1.680  0.00  0.00    +0.210 HD
ENDBRANCH  10   1
BRANCH  12   2
ATOM      2  O   UNL     1       9.240  10.393   5.164  0.00  0.00    -0.389 OA
ATOM     31  H   UNL     1       8.747  11.079   5.645  0.00  0.00    +0.210 HD
ENDBRANCH  12   2
TORSDOF 8
ENDMDL
MODEL 4
REMARK VINA RESULT:      -6.0     15.051     19.975
REMARK  Name = 71693882
REMARK  11 active torsions:
REMARK  status: ('A' for Active; 'I' for Inactive)
REMARK    1  A    between atoms: O_1  and  C_10
REMARK    2  A    between atoms: O_2  and  C_12
REMARK    3  A    between atoms: O_4  and  C_20
REMARK    4  A    between atoms: O_4  and  C_26
REMARK    5  A    between atoms: O_5  and  C_23
REMARK    6  A    between atoms: O_5  and  C_27
REMARK    7  A    between atoms: O_6  and  C_25
REMARK    8  A    between atoms: O_6  and  C_28
REMARK    9  A    between atoms: N_7  and  C_9
REMARK   10  A    between atoms: C_8  and  C_13
REMARK   11  A    between atoms: C_16  and  C_19
REMARK                            x       y       z     vdW  Elec       q    Type
REMARK                         _______ _______ _______ _____ _____    ______ ____
ROOT
ATOM      8  C   UNL     1       8.427   7.525   4.638  0.00  0.00    +0.044 C 
ATOM      9  C   UNL     1       9.631   8.032   3.810  0.00  0.00    +0.112 C 
ATOM     10  C   UNL     1       9.113   9.328   3.187  0.00  0.00    +0.164 C 
ATOM     11  C   UNL     1       7.557   8.776   4.927  0.00  0.00    +0.044 C 
ATOM     12  C   UNL     1       8.308   9.957   4.318  0.00  0.00    +0.145 C 
ENDROOT
BRANCH   8  13
ATOM     13  C   UNL     1       8.842   6.754   5.873  0.00  0.00    -0.042 A 
ATOM     14  C   UNL     1       9.347   5.460   5.749  0.00  0.00    +0.007 A 
ATOM     15  C   UNL     1       8.718   7.336   7.134  0.00  0.00    +0.007 A 
ATOM     17  C   UNL     1       9.727   4.748   6.888  0.00  0.00    +0.046 A 
ATOM     18  C   UNL     1       9.098   6.625   8.272  0.00  0.00    +0.046 A 
ATOM     20  C   UNL     1       9.604   5.331   8.148  0.00  0.00    +0.120 A 
BRANCH  20   4
ATOM      4  O   UNL     1       9.975   4.637   9.259  0.00  0.00    -0.495 OA
ATOM     26  C   UNL     1       9.041   4.586  10.336  0.00  0.00    +0.277 C 
ENDBRANCH  20   4
ENDBRANCH   8  13
BRANCH   9   7
ATOM      3  O   UNL     1      12.065   6.509   3.782  0.00  0.00    -0.270 OA
ATOM      7  N   UNL     1      10.037   7.079   2.809  0.00  0.00    -0.305 N 
ATOM     16  C   UNL     1      11.239   6.388   2.881  0.00  0.00    +0.245 C 
ATOM     29  H   UNL     1       9.418   6.957   2.016  0.00  0.00    +0.149 HD
BRANCH  16  19
ATOM     19  C   UNL     1      11.525   5.460   1.756  0.00  0.00    +0.040 A 
ATOM     21  C   UNL     1      12.798   4.907   1.613  0.00  0.00    +0.062 A 
ATOM     22  C   UNL     1      10.520   5.144   0.841  0.00  0.00    +0.017 A 
ATOM     23  C   UNL     1      13.065   4.037   0.556  0.00  0.00    +0.162 A 
ATOM     24  C   UNL     1      10.788   4.273  -0.216  0.00  0.00    +0.050 A 
ATOM     25  C   UNL     1      12.061   3.720  -0.358  0.00  0.00    +0.162 A 
BRANCH  23   5
ATOM      5  O   UNL     1      14.311   3.502   0.428  0.00  0.00    -0.491 OA
ATOM     27  C   UNL     1      15.133   3.487   1.594  0.00  0.00    +0.277 C 
ENDBRANCH  23   5
BRANCH  25   6
ATOM      6  O   UNL     1      12.309   2.871  -1.394  0.00  0.00    -0.491 OA
ATOM     28  C   UNL     1      12.514   3.458  -2.678  0.00  0.00    +0.277 C 
ENDBRANCH  25   6
ENDBRANCH  16  19
ENDBRANCH   9   7
BRANCH  10   1
ATOM      1  O   UNL     1      10.163  10.180   2.772  0.00  0.00    -0.387 OA
ATOM     30  H   UNL     1      10.934   9.620   2.577  0.00  0.00    +0.210 HD
ENDBRANCH  10   1
BRANCH  12   2
ATOM      2  O   UNL     1       9.167  10.513   5.309  0.00  0.00    -0.389 OA
ATOM     31  H   UNL     1       9.821   9.833   5.545  0.00  0.00    +0.210 HD
ENDBRANCH  12   2
TORSDOF 8
ENDMDL
MODEL 5
REMARK VINA RESULT:      -6.0     15.102     17.552
REMARK  Name = 71693882
REMARK  11 active torsions:
REMARK  status: ('A' for Active; 'I' for Inactive)
REMARK    1  A    between atoms: O_1  and  C_10
REMARK    2  A    between atoms: O_2  and  C_12
REMARK    3  A    between atoms: O_4  and  C_20
REMARK    4  A    between atoms: O_4  and  C_26
REMARK    5  A    between atoms: O_5  and  C_23
REMARK    6  A    between atoms: O_5  and  C_27
REMARK    7  A    between atoms: O_6  and  C_25
REMARK    8  A    between atoms: O_6  and  C_28
REMARK    9  A    between atoms: N_7  and  C_9
REMARK   10  A    between atoms: C_8  and  C_13
REMARK   11  A    between atoms: C_16  and  C_19
REMARK                            x       y       z     vdW  Elec       q    Type
REMARK                         _______ _______ _______ _____ _____    ______ ____
ROOT
ATOM      8  C   UNL     1      10.156   6.486   5.183  0.00  0.00    +0.044 C 
ATOM      9  C   UNL     1      11.402   6.236   6.063  0.00  0.00    +0.112 C 
ATOM     10  C   UNL     1      10.827   6.152   7.477  0.00  0.00    +0.164 C 
ATOM     11  C   UNL     1       8.948   5.954   5.998  0.00  0.00    +0.044 C 
ATOM     12  C   UNL     1       9.536   5.367   7.279  0.00  0.00    +0.145 C 
ENDROOT
BRANCH   8  13
ATOM     13  C   UNL     1      10.282   5.892   3.796  0.00  0.00    -0.042 A 
ATOM     14  C   UNL     1       9.903   6.638   2.681  0.00  0.00    +0.007 A 
ATOM     15  C   UNL     1      10.777   4.598   3.633  0.00  0.00    +0.007 A 
ATOM     17  C   UNL     1      10.018   6.090   1.403  0.00  0.00    +0.046 A 
ATOM     18  C   UNL     1      10.892   4.050   2.356  0.00  0.00    +0.046 A 
ATOM     20  C   UNL     1      10.513   4.797   1.240  0.00  0.00    +0.120 A 
BRANCH  20   4
ATOM      4  O   UNL     1      10.626   4.262  -0.007  0.00  0.00    -0.495 OA
ATOM     26  C   UNL     1      10.220   5.080  -1.103  0.00  0.00    +0.277 C 
ENDBRANCH  20   4
ENDBRANCH   8  13
BRANCH   9   7
ATOM      3  O   UNL     1      14.023   6.302   7.233  0.00  0.00    -0.270 OA
ATOM      7  N   UNL     1      12.372   7.293   5.938  0.00  0.00    -0.305 N 
ATOM     16  C   UNL     1      13.621   7.236   6.544  0.00  0.00    +0.245 C 
ATOM     29  H   UNL     1      12.090   8.112   5.412  0.00  0.00    +0.149 HD
BRANCH  16  19
ATOM     19  C   UNL     1      14.496   8.418   6.342  0.00  0.00    +0.040 A 
ATOM     21  C   UNL     1      15.826   8.245   5.955  0.00  0.00    +0.062 A 
ATOM     22  C   UNL     1      13.989   9.703   6.540  0.00  0.00    +0.017 A 
ATOM     23  C   UNL     1      16.647   9.356   5.766  0.00  0.00    +0.162 A 
ATOM     24  C   UNL     1      14.812  10.814   6.351  0.00  0.00    +0.050 A 
ATOM     25  C   UNL     1      16.142  10.640   5.963  0.00  0.00    +0.162 A 
BRANCH  23   5
ATOM      5  O   UNL     1      17.943   9.173   5.387  0.00  0.00    -0.491 OA
ATOM     27  C   UNL     1      18.857   8.736   6.392  0.00  0.00    +0.277 C 
ENDBRANCH  23   5
BRANCH  25   6
ATOM      6  O   UNL     1      16.934  11.733   5.782  0.00  0.00    -0.491 OA
ATOM     28  C   UNL     1      17.417  12.387   6.955  0.00  0.00    +0.277 C 
ENDBRANCH  25   6
ENDBRANCH  16  19
ENDBRANCH   9   7
BRANCH  10   1
ATOM      1  O   UNL     1      11.698   5.487   8.371  0.00  0.00    -0.387 OA
ATOM     30  H   UNL     1      11.179   4.805   8.831  0.00  0.00    +0.210 HD
ENDBRANCH  10   1
BRANCH  12   2
ATOM      2  O   UNL     1       9.807   3.985   7.066  0.00  0.00    -0.389 OA
ATOM     31  H   UNL     1      10.354   3.676   7.808  0.00  0.00    +0.210 HD
ENDBRANCH  12   2
TORSDOF 8
ENDMDL
MODEL 6
REMARK VINA RESULT:      -5.9     27.358     30.422
REMARK  Name = 71693882
REMARK  11 active torsions:
REMARK  status: ('A' for Active; 'I' for Inactive)
REMARK    1  A    between atoms: O_1  and  C_10
REMARK    2  A    between atoms: O_2  and  C_12
REMARK    3  A    between atoms: O_4  and  C_20
REMARK    4  A    between atoms: O_4  and  C_26
REMARK    5  A    between atoms: O_5  and  C_23
REMARK    6  A    between atoms: O_5  and  C_27
REMARK    7  A    between atoms: O_6  and  C_25
REMARK    8  A    between atoms: O_6  and  C_28
REMARK    9  A    between atoms: N_7  and  C_9
REMARK   10  A    between atoms: C_8  and  C_13
REMARK   11  A    between atoms: C_16  and  C_19
REMARK                            x       y       z     vdW  Elec       q    Type
REMARK                         _______ _______ _______ _____ _____    ______ ____
ROOT
ATOM      8  C   UNL     1      -8.853  -8.469   8.167  0.00  0.00    +0.044 C 
ATOM      9  C   UNL     1      -7.333  -8.509   8.445  0.00  0.00    +0.112 C 
ATOM     10  C   UNL     1      -6.795  -9.423   7.345  0.00  0.00    +0.164 C 
ATOM     11  C   UNL     1      -9.019  -8.830   6.668  0.00  0.00    +0.044 C 
ATOM     12  C   UNL     1      -7.604  -9.005   6.122  0.00  0.00    +0.145 C 
ENDROOT
BRANCH   8  13
ATOM     13  C   UNL     1      -9.494  -7.156   8.567  0.00  0.00    -0.042 A 
ATOM     14  C   UNL     1      -8.857  -5.952   8.269  0.00  0.00    +0.007 A 
ATOM     15  C   UNL     1     -10.719  -7.151   9.232  0.00  0.00    +0.007 A 
ATOM     17  C   UNL     1      -9.446  -4.742   8.638  0.00  0.00    +0.046 A 
ATOM     18  C   UNL     1     -11.308  -5.942   9.602  0.00  0.00    +0.046 A 
ATOM     20  C   UNL     1     -10.671  -4.737   9.304  0.00  0.00    +0.120 A 
BRANCH  20   4
ATOM      4  O   UNL     1     -11.247  -3.557   9.664  0.00  0.00    -0.495 OA
ATOM     26  C   UNL     1     -12.104  -3.573  10.804  0.00  0.00    +0.277 C 
ENDBRANCH  20   4
ENDBRANCH   8  13
BRANCH   9   7
ATOM      3  O   UNL     1      -4.921  -8.089   9.945  0.00  0.00    -0.270 OA
ATOM      7  N   UNL     1      -7.038  -9.019   9.760  0.00  0.00    -0.305 N 
ATOM     16  C   UNL     1      -5.837  -8.762  10.409  0.00  0.00    +0.245 C 
ATOM     29  H   UNL     1      -7.738  -9.615  10.187  0.00  0.00    +0.149 HD
BRANCH  16  19
ATOM     19  C   UNL     1      -5.676  -9.382  11.748  0.00  0.00    +0.040 A 
ATOM     21  C   UNL     1      -4.475 -10.008  12.089  0.00  0.00    +0.062 A 
ATOM     22  C   UNL     1      -6.725  -9.341  12.667  0.00  0.00    +0.017 A 
ATOM     23  C   UNL     1      -4.325 -10.590  13.347  0.00  0.00    +0.162 A 
ATOM     24  C   UNL     1      -6.573  -9.924  13.926  0.00  0.00    +0.050 A 
ATOM     25  C   UNL     1      -5.373 -10.549  14.265  0.00  0.00    +0.162 A 
BRANCH  23   5
ATOM      5  O   UNL     1      -3.147 -11.197  13.666  0.00  0.00    -0.491 OA
ATOM     27  C   UNL     1      -1.977 -10.382  13.666  0.00  0.00    +0.277 C 
ENDBRANCH  23   5
BRANCH  25   6
ATOM      6  O   UNL     1      -5.237 -11.114  15.497  0.00  0.00    -0.491 OA
ATOM     28  C   UNL     1      -4.879 -10.247  16.573  0.00  0.00    +0.277 C 
ENDBRANCH  25   6
ENDBRANCH  16  19
ENDBRANCH   9   7
BRANCH  10   1
ATOM      1  O   UNL     1      -5.409  -9.242   7.128  0.00  0.00    -0.387 OA
ATOM     30  H   UNL     1      -5.282  -8.338   6.791  0.00  0.00    +0.210 HD
ENDBRANCH  10   1
BRANCH  12   2
ATOM      2  O   UNL     1      -7.151  -7.754   5.615  0.00  0.00    -0.389 OA
ATOM     31  H   UNL     1      -6.312  -7.912   5.150  0.00  0.00    +0.210 HD
ENDBRANCH  12   2
TORSDOF 8
ENDMDL
MODEL 7
REMARK VINA RESULT:      -5.7     27.758     30.052
REMARK  Name = 71693882
REMARK  11 active torsions:
REMARK  status: ('A' for Active; 'I' for Inactive)
REMARK    1  A    between atoms: O_1  and  C_10
REMARK    2  A    between atoms: O_2  and  C_12
REMARK    3  A    between atoms: O_4  and  C_20
REMARK    4  A    between atoms: O_4  and  C_26
REMARK    5  A    between atoms: O_5  and  C_23
REMARK    6  A    between atoms: O_5  and  C_27
REMARK    7  A    between atoms: O_6  and  C_25
REMARK    8  A    between atoms: O_6  and  C_28
REMARK    9  A    between atoms: N_7  and  C_9
REMARK   10  A    between atoms: C_8  and  C_13
REMARK   11  A    between atoms: C_16  and  C_19
REMARK                            x       y       z     vdW  Elec       q    Type
REMARK                         _______ _______ _______ _____ _____    ______ ____
ROOT
ATOM      8  C   UNL     1      -6.221 -10.184  17.751  0.00  0.00    +0.044 C 
ATOM      9  C   UNL     1      -5.855 -11.297  16.742  0.00  0.00    +0.112 C 
ATOM     10  C   UNL     1      -4.684 -12.014  17.414  0.00  0.00    +0.164 C 
ATOM     11  C   UNL     1      -5.692 -10.669  19.125  0.00  0.00    +0.044 C 
ATOM     12  C   UNL     1      -5.099 -12.054  18.880  0.00  0.00    +0.145 C 
ENDROOT
BRANCH   8  13
ATOM     13  C   UNL     1      -7.695  -9.835  17.737  0.00  0.00    -0.042 A 
ATOM     14  C   UNL     1      -8.148  -8.758  16.977  0.00  0.00    +0.007 A 
ATOM     15  C   UNL     1      -8.597 -10.591  18.485  0.00  0.00    +0.007 A 
ATOM     17  C   UNL     1      -9.506  -8.435  16.966  0.00  0.00    +0.046 A 
ATOM     18  C   UNL     1      -9.954 -10.268  18.474  0.00  0.00    +0.046 A 
ATOM     20  C   UNL     1     -10.408  -9.191  17.713  0.00  0.00    +0.120 A 
BRANCH  20   4
ATOM      4  O   UNL     1     -11.733  -8.877  17.702  0.00  0.00    -0.495 OA
ATOM     26  C   UNL     1     -12.220  -8.153  16.573  0.00  0.00    +0.277 C 
ENDBRANCH  20   4
ENDBRANCH   8  13
BRANCH   9   7
ATOM      3  O   UNL     1      -7.528 -11.138  14.414  0.00  0.00    -0.270 OA
ATOM      7  N   UNL     1      -5.490 -10.760  15.456  0.00  0.00    -0.305 N 
ATOM     16  C   UNL     1      -6.371 -10.726  14.383  0.00  0.00    +0.245 C 
ATOM     29  H   UNL     1      -4.535 -10.436  15.350  0.00  0.00    +0.149 HD
BRANCH  16  19
ATOM     19  C   UNL     1      -5.834 -10.166  13.117  0.00  0.00    +0.040 A 
ATOM     21  C   UNL     1      -4.550 -10.507  12.692  0.00  0.00    +0.062 A 
ATOM     22  C   UNL     1      -6.614  -9.298  12.352  0.00  0.00    +0.017 A 
ATOM     23  C   UNL     1      -4.046  -9.981  11.503  0.00  0.00    +0.162 A 
ATOM     24  C   UNL     1      -6.109  -8.771  11.163  0.00  0.00    +0.050 A 
ATOM     25  C   UNL     1      -4.825  -9.114  10.738  0.00  0.00    +0.162 A 
BRANCH  23   5
ATOM      5  O   UNL     1      -2.790 -10.323  11.099  0.00  0.00    -0.491 OA
ATOM     27  C   UNL     1      -1.862 -10.699  12.114  0.00  0.00    +0.277 C 
ENDBRANCH  23   5
BRANCH  25   6
ATOM      6  O   UNL     1      -4.344  -8.593   9.574  0.00  0.00    -0.491 OA
ATOM     28  C   UNL     1      -4.720  -9.251   8.365  0.00  0.00    +0.277 C 
ENDBRANCH  25   6
ENDBRANCH  16  19
ENDBRANCH   9   7
BRANCH  10   1
ATOM      1  O   UNL     1      -4.489 -13.318  16.901  0.00  0.00    -0.387 OA
ATOM     30  H   UNL     1      -5.103 -13.910  17.369  0.00  0.00    +0.210 HD
ENDBRANCH  10   1
BRANCH  12   2
ATOM      2  O   UNL     1      -6.113 -13.031  19.096  0.00  0.00    -0.389 OA
ATOM     31  H   UNL     1      -5.943 -13.443  19.960  0.00  0.00    +0.210 HD
ENDBRANCH  12   2
TORSDOF 8
ENDMDL
MODEL 8
REMARK VINA RESULT:      -5.7     14.572     17.356
REMARK  Name = 71693882
REMARK  11 active torsions:
REMARK  status: ('A' for Active; 'I' for Inactive)
REMARK    1  A    between atoms: O_1  and  C_10
REMARK    2  A    between atoms: O_2  and  C_12
REMARK    3  A    between atoms: O_4  and  C_20
REMARK    4  A    between atoms: O_4  and  C_26
REMARK    5  A    between atoms: O_5  and  C_23
REMARK    6  A    between atoms: O_5  and  C_27
REMARK    7  A    between atoms: O_6  and  C_25
REMARK    8  A    between atoms: O_6  and  C_28
REMARK    9  A    between atoms: N_7  and  C_9
REMARK   10  A    between atoms: C_8  and  C_13
REMARK   11  A    between atoms: C_16  and  C_19
REMARK                            x       y       z     vdW  Elec       q    Type
REMARK                         _______ _______ _______ _____ _____    ______ ____
ROOT
ATOM      8  C   UNL     1      10.180   6.396   5.118  0.00  0.00    +0.044 C 
ATOM      9  C   UNL     1      11.395   6.173   6.048  0.00  0.00    +0.112 C 
ATOM     10  C   UNL     1      10.767   6.097   7.440  0.00  0.00    +0.164 C 
ATOM     11  C   UNL     1       8.950   5.857   5.893  0.00  0.00    +0.044 C 
ATOM     12  C   UNL     1       9.495   5.292   7.202  0.00  0.00    +0.145 C 
ENDROOT
BRANCH   8  13
ATOM     13  C   UNL     1      10.367   5.789   3.744  0.00  0.00    -0.042 A 
ATOM     14  C   UNL     1      10.913   4.513   3.615  0.00  0.00    +0.007 A 
ATOM     15  C   UNL     1       9.994   6.506   2.608  0.00  0.00    +0.007 A 
ATOM     17  C   UNL     1      11.086   3.954   2.348  0.00  0.00    +0.046 A 
ATOM     18  C   UNL     1      10.167   5.948   1.342  0.00  0.00    +0.046 A 
ATOM     20  C   UNL     1      10.713   4.671   1.212  0.00  0.00    +0.120 A 
BRANCH  20   4
ATOM      4  O   UNL     1      10.882   4.125  -0.024  0.00  0.00    -0.495 OA
ATOM     26  C   UNL     1      12.198   3.699  -0.372  0.00  0.00    +0.277 C 
ENDBRANCH  20   4
ENDBRANCH   8  13
BRANCH   9   7
ATOM      3  O   UNL     1      14.008   6.245   7.235  0.00  0.00    -0.270 OA
ATOM      7  N   UNL     1      12.355   7.242   5.949  0.00  0.00    -0.305 N 
ATOM     16  C   UNL     1      13.600   7.187   6.561  0.00  0.00    +0.245 C 
ATOM     29  H   UNL     1      12.067   8.068   5.436  0.00  0.00    +0.149 HD
BRANCH  16  19
ATOM     19  C   UNL     1      14.465   8.382   6.385  0.00  0.00    +0.040 A 
ATOM     21  C   UNL     1      13.941   9.659   6.588  0.00  0.00    +0.062 A 
ATOM     22  C   UNL     1      15.802   8.227   6.017  0.00  0.00    +0.017 A 
ATOM     23  C   UNL     1      14.753  10.780   6.423  0.00  0.00    +0.162 A 
ATOM     24  C   UNL     1      16.614   9.349   5.851  0.00  0.00    +0.050 A 
ATOM     25  C   UNL     1      16.089  10.626   6.055  0.00  0.00    +0.162 A 
BRANCH  23   5
ATOM      5  O   UNL     1      14.229  12.022   6.625  0.00  0.00    -0.491 OA
ATOM     27  C   UNL     1      14.244  12.522   7.961  0.00  0.00    +0.277 C 
ENDBRANCH  23   5
BRANCH  25   6
ATOM      6  O   UNL     1      16.893  11.714   5.891  0.00  0.00    -0.491 OA
ATOM     28  C   UNL     1      18.105  11.744   6.643  0.00  0.00    +0.277 C 
ENDBRANCH  25   6
ENDBRANCH  16  19
ENDBRANCH   9   7
BRANCH  10   1
ATOM      1  O   UNL     1      11.613   5.454   8.374  0.00  0.00    -0.387 OA
ATOM     30  H   UNL     1      11.204   4.600   8.599  0.00  0.00    +0.210 HD
ENDBRANCH  10   1
BRANCH  12   2
ATOM      2  O   UNL     1       9.793   3.911   7.015  0.00  0.00    -0.389 OA
ATOM     31  H   UNL     1      10.726   3.778   7.252  0.00  0.00    +0.210 HD
ENDBRANCH  12   2
TORSDOF 8
ENDMDL
MODEL 9
REMARK VINA RESULT:      -5.7     28.004     29.326
REMARK  Name = 71693882
REMARK  11 active torsions:
REMARK  status: ('A' for Active; 'I' for Inactive)
REMARK    1  A    between atoms: O_1  and  C_10
REMARK    2  A    between atoms: O_2  and  C_12
REMARK    3  A    between atoms: O_4  and  C_20
REMARK    4  A    between atoms: O_4  and  C_26
REMARK    5  A    between atoms: O_5  and  C_23
REMARK    6  A    between atoms: O_5  and  C_27
REMARK    7  A    between atoms: O_6  and  C_25
REMARK    8  A    between atoms: O_6  and  C_28
REMARK    9  A    between atoms: N_7  and  C_9
REMARK   10  A    between atoms: C_8  and  C_13
REMARK   11  A    between atoms: C_16  and  C_19
REMARK                            x       y       z     vdW  Elec       q    Type
REMARK                         _______ _______ _______ _____ _____    ______ ____
ROOT
ATOM      8  C   UNL     1      -4.465 -12.002  12.641  0.00  0.00    +0.044 C 
ATOM      9  C   UNL     1      -3.860 -11.523  13.981  0.00  0.00    +0.112 C 
ATOM     10  C   UNL     1      -2.804 -12.584  14.292  0.00  0.00    +0.164 C 
ATOM     11  C   UNL     1      -3.385 -12.902  11.987  0.00  0.00    +0.044 C 
ATOM     12  C   UNL     1      -2.184 -12.866  12.929  0.00  0.00    +0.145 C 
ENDROOT
BRANCH   8  13
ATOM     13  C   UNL     1      -4.941 -10.861  11.766  0.00  0.00    -0.042 A 
ATOM     14  C   UNL     1      -4.013 -10.009  11.168  0.00  0.00    +0.007 A 
ATOM     15  C   UNL     1      -6.305 -10.664  11.558  0.00  0.00    +0.007 A 
ATOM     17  C   UNL     1      -4.451  -8.957  10.363  0.00  0.00    +0.046 A 
ATOM     18  C   UNL     1      -6.743  -9.613  10.753  0.00  0.00    +0.046 A 
ATOM     20  C   UNL     1      -5.816  -8.760  10.154  0.00  0.00    +0.120 A 
BRANCH  20   4
ATOM      4  O   UNL     1      -6.244  -7.734   9.368  0.00  0.00    -0.495 OA
ATOM     26  C   UNL     1      -7.544  -7.854   8.794  0.00  0.00    +0.277 C 
ENDBRANCH  20   4
ENDBRANCH   8  13
BRANCH   9   7
ATOM      3  O   UNL     1      -3.617 -10.100  16.462  0.00  0.00    -0.270 OA
ATOM      7  N   UNL     1      -4.853 -11.432  15.020  0.00  0.00    -0.305 N 
ATOM     16  C   UNL     1      -4.644 -10.716  16.192  0.00  0.00    +0.245 C 
ATOM     29  H   UNL     1      -5.713 -11.950  14.878  0.00  0.00    +0.149 HD
BRANCH  16  19
ATOM     19  C   UNL     1      -5.755 -10.741  17.177  0.00  0.00    +0.040 A 
ATOM     21  C   UNL     1      -7.010 -10.241  16.827  0.00  0.00    +0.062 A 
ATOM     22  C   UNL     1      -5.544 -11.264  18.453  0.00  0.00    +0.017 A 
ATOM     23  C   UNL     1      -8.053 -10.265  17.752  0.00  0.00    +0.162 A 
ATOM     24  C   UNL     1      -6.588 -11.287  19.379  0.00  0.00    +0.050 A 
ATOM     25  C   UNL     1      -7.843 -10.787  19.027  0.00  0.00    +0.162 A 
BRANCH  23   5
ATOM      5  O   UNL     1      -9.274  -9.774  17.398  0.00  0.00    -0.491 OA
ATOM     27  C   UNL     1      -9.362  -8.372  17.152  0.00  0.00    +0.277 C 
ENDBRANCH  23   5
BRANCH  25   6
ATOM      6  O   UNL     1      -8.854 -10.816  19.940  0.00  0.00    -0.491 OA
ATOM     28  C   UNL     1      -9.625 -12.015  20.016  0.00  0.00    +0.277 C 
ENDBRANCH  25   6
ENDBRANCH  16  19
ENDBRANCH   9   7
BRANCH  10   1
ATOM      1  O   UNL     1      -1.832 -12.120  15.210  0.00  0.00    -0.387 OA
ATOM     30  H   UNL     1      -1.697 -11.172  15.038  0.00  0.00    +0.210 HD
ENDBRANCH  10   1
BRANCH  12   2
ATOM      2  O   UNL     1      -1.323 -11.803  12.530  0.00  0.00    -0.389 OA
ATOM     31  H   UNL     1      -1.317 -11.147  13.248  0.00  0.00    +0.210 HD
ENDBRANCH  12   2
TORSDOF 8
ENDMDL
MODEL 10
REMARK VINA RESULT:      -5.7     27.091     29.615
REMARK  Name = 71693882
REMARK  11 active torsions:
REMARK  status: ('A' for Active; 'I' for Inactive)
REMARK    1  A    between atoms: O_1  and  C_10
REMARK    2  A    between atoms: O_2  and  C_12
REMARK    3  A    between atoms: O_4  and  C_20
REMARK    4  A    between atoms: O_4  and  C_26
REMARK    5  A    between atoms: O_5  and  C_23
REMARK    6  A    between atoms: O_5  and  C_27
REMARK    7  A    between atoms: O_6  and  C_25
REMARK    8  A    between atoms: O_6  and  C_28
REMARK    9  A    between atoms: N_7  and  C_9
REMARK   10  A    between atoms: C_8  and  C_13
REMARK   11  A    between atoms: C_16  and  C_19
REMARK                            x       y       z     vdW  Elec       q    Type
REMARK                         _______ _______ _______ _____ _____    ______ ____
ROOT
ATOM      8  C   UNL     1      -5.941 -11.482  16.817  0.00  0.00    +0.044 C 
ATOM      9  C   UNL     1      -6.291 -10.308  17.759  0.00  0.00    +0.112 C 
ATOM     10  C   UNL     1      -6.739 -11.005  19.044  0.00  0.00    +0.164 C 
ATOM     11  C   UNL     1      -5.635 -12.689  17.741  0.00  0.00    +0.044 C 
ATOM     12  C   UNL     1      -5.757 -12.164  19.169  0.00  0.00    +0.145 C 
ENDROOT
BRANCH   8  13
ATOM     13  C   UNL     1      -4.834 -11.147  15.840  0.00  0.00    -0.042 A 
ATOM     14  C   UNL     1      -3.525 -10.993  16.297  0.00  0.00    +0.007 A 
ATOM     15  C   UNL     1      -5.122 -10.994  14.484  0.00  0.00    +0.007 A 
ATOM     17  C   UNL     1      -2.505 -10.683  15.397  0.00  0.00    +0.046 A 
ATOM     18  C   UNL     1      -4.102 -10.685  13.585  0.00  0.00    +0.046 A 
ATOM     20  C   UNL     1      -2.793 -10.530  14.041  0.00  0.00    +0.120 A 
BRANCH  20   4
ATOM      4  O   UNL     1      -1.797 -10.228  13.163  0.00  0.00    -0.495 OA
ATOM     26  C   UNL     1      -2.107 -10.319  11.774  0.00  0.00    +0.277 C 
ENDBRANCH  20   4
ENDBRANCH   8  13
BRANCH   9   7
ATOM      3  O   UNL     1      -9.009 -11.064  17.227  0.00  0.00    -0.270 OA
ATOM      7  N   UNL     1      -7.326  -9.467  17.215  0.00  0.00    -0.305 N 
ATOM     16  C   UNL     1      -8.618  -9.923  16.991  0.00  0.00    +0.245 C 
ATOM     29  H   UNL     1      -7.061  -8.522  16.961  0.00  0.00    +0.149 HD
BRANCH  16  19
ATOM     19  C   UNL     1      -9.562  -8.941  16.399  0.00  0.00    +0.040 A 
ATOM     21  C   UNL     1     -10.072  -9.147  15.116  0.00  0.00    +0.062 A 
ATOM     22  C   UNL     1      -9.938  -7.811  17.125  0.00  0.00    +0.017 A 
ATOM     23  C   UNL     1     -10.958  -8.225  14.561  0.00  0.00    +0.162 A 
ATOM     24  C   UNL     1     -10.824  -6.888  16.569  0.00  0.00    +0.050 A 
ATOM     25  C   UNL     1     -11.334  -7.095  15.287  0.00  0.00    +0.162 A 
BRANCH  23   5
ATOM      5  O   UNL     1     -11.448  -8.438  13.309  0.00  0.00    -0.491 OA
ATOM     27  C   UNL     1     -12.415  -9.476  13.159  0.00  0.00    +0.277 C 
ENDBRANCH  23   5
BRANCH  25   6
ATOM      6  O   UNL     1     -12.199  -6.186  14.756  0.00  0.00    -0.491 OA
ATOM     28  C   UNL     1     -13.575  -6.316  15.110  0.00  0.00    +0.277 C 
ENDBRANCH  25   6
ENDBRANCH  16  19
ENDBRANCH   9   7
BRANCH  10   1
ATOM      1  O   UNL     1      -6.668 -10.151  20.170  0.00  0.00    -0.387 OA
ATOM     30  H   UNL     1      -7.578  -9.898  20.402  0.00  0.00    +0.210 HD
ENDBRANCH  10   1
BRANCH  12   2
ATOM      2  O   UNL     1      -4.478 -11.705  19.598  0.00  0.00    -0.389 OA
ATOM     31  H   UNL     1      -3.889 -11.717  18.825  0.00  0.00    +0.210 HD
ENDBRANCH  12   2
TORSDOF 8
ENDMDL
