REMARK  Name = 11911716
REMARK  7 active torsions:
REMARK  status: ('A' for Active; 'I' for Inactive)
REMARK    1  A    between atoms: N_4  and  C_11
REMARK    2  A    between atoms: N_5  and  C_12
REMARK    3  A    between atoms: N_8  and  C_29
REMARK    4  A    between atoms: N_8  and  C_32
REMARK    5  A    between atoms: N_8  and  C_33
REMARK    6  A    between atoms: C_16  and  C_17
REMARK    7  A    between atoms: C_18  and  C_23
REMARK                            x       y       z     vdW  Elec       q    Type
REMARK                         _______ _______ _______ _____ _____    ______ ____
ROOT
ATOM      1  O   UNL     1      -2.224   3.417   1.338  0.00  0.00    -0.370 OA
ATOM      2  O   UNL     1      -1.022   0.588   1.874  0.00  0.00    -0.370 OA
ATOM      9  C   UNL     1      -0.951   1.492   0.759  0.00  0.00    +0.171 C 
ATOM     10  C   UNL     1      -2.304   2.164   0.638  0.00  0.00    +0.171 C 
ATOM     11  C   UNL     1      -0.001   2.627   1.064  0.00  0.00    +0.130 C 
ATOM     12  C   UNL     1      -3.248   1.223   1.351  0.00  0.00    +0.130 C 
ATOM     13  C   UNL     1      -0.883   3.607   1.813  0.00  0.00    +0.185 C 
ATOM     14  C   UNL     1      -2.352   0.608   2.412  0.00  0.00    +0.185 C 
ENDROOT
BRANCH  11   4
ATOM      4  N   UNL     1       0.473   3.220  -0.168  0.00  0.00    -0.306 N 
ATOM      6  N   UNL     1       2.196   1.643  -0.393  0.00  0.00    -0.214 NA
ATOM      7  N   UNL     1       1.893   3.387  -2.029  0.00  0.00    -0.223 NA
ATOM     15  C   UNL     1       1.553   2.735  -0.885  0.00  0.00    +0.216 A 
ATOM     18  C   UNL     1       3.244   1.198  -1.117  0.00  0.00    +0.076 A 
ATOM     21  C   UNL     1       2.950   2.888  -2.702  0.00  0.00    +0.116 A 
ATOM     22  C   UNL     1       3.671   1.786  -2.291  0.00  0.00    +0.048 A 
ATOM     34  H   UNL     1      -0.031   4.002  -0.570  0.00  0.00    +0.149 HD
BRANCH  18  23
ATOM     23  C   UNL     1       3.912   0.037  -0.578  0.00  0.00    +0.001 A 
ATOM     27  C   UNL     1       5.277  -0.155  -0.806  0.00  0.00    +0.012 A 
ATOM     28  C   UNL     1       3.196  -0.899   0.171  0.00  0.00    +0.012 A 
ATOM     29  C   UNL     1       5.204  -2.211   0.461  0.00  0.00    +0.029 A 
ATOM     30  C   UNL     1       5.921  -1.278  -0.286  0.00  0.00    +0.024 A 
ATOM     31  C   UNL     1       3.841  -2.021   0.690  0.00  0.00    +0.024 A 
BRANCH  29   8
ATOM      8  N   UNL     1       5.856  -3.345   0.987  0.00  0.00    -0.336 N 
ATOM     32  C   UNL     1       6.996  -3.920   0.301  0.00  0.00    +0.129 C 
ATOM     33  C   UNL     1       5.403  -3.943   2.227  0.00  0.00    +0.129 C 
ENDBRANCH  29   8
ENDBRANCH  18  23
ENDBRANCH  11   4
BRANCH  12   5
ATOM      3  O   UNL     1      -5.719  -0.215   1.617  0.00  0.00    -0.270 OA
ATOM      5  N   UNL     1      -3.761   0.217   0.453  0.00  0.00    -0.304 N 
ATOM     16  C   UNL     1      -4.972  -0.426   0.666  0.00  0.00    +0.244 C 
ATOM     35  H   UNL     1      -3.143  -0.090  -0.291  0.00  0.00    +0.149 HD
BRANCH  16  17
ATOM     17  C   UNL     1      -5.346  -1.456  -0.337  0.00  0.00    +0.037 A 
ATOM     19  C   UNL     1      -6.171  -2.492   0.048  0.00  0.00    +0.013 A 
ATOM     20  C   UNL     1      -4.858  -1.342  -1.622  0.00  0.00    +0.013 A 
ATOM     24  C   UNL     1      -6.523  -3.459  -0.893  0.00  0.00    +0.001 A 
ATOM     25  C   UNL     1      -5.209  -2.309  -2.564  0.00  0.00    +0.001 A 
ATOM     26  C   UNL     1      -6.042  -3.368  -2.200  0.00  0.00    +0.000 A 
ENDBRANCH  16  17
ENDBRANCH  12   5
TORSDOF 5
