MODEL 1
REMARK VINA RESULT:      -6.7      0.000      0.000
REMARK  Name = 11865837
REMARK  12 active torsions:
REMARK  status: ('A' for Active; 'I' for Inactive)
REMARK    1  A    between atoms: S_1  and  C_19
REMARK    2  A    between atoms: S_1  and  C_28
REMARK    3  A    between atoms: N_7  and  C_11
REMARK    4  A    between atoms: N_8  and  C_17
REMARK    5  A    between atoms: N_9  and  C_22
REMARK    6  A    between atoms: C_12  and  C_15
REMARK    7  A    between atoms: C_16  and  C_19
REMARK    8  A    between atoms: C_17  and  C_20
REMARK    9  A    between atoms: C_17  and  C_21
REMARK   10  A    between atoms: C_20  and  C_23
REMARK   11  A    between atoms: C_22  and  C_24
REMARK   12  A    between atoms: C_22  and  C_25
REMARK                            x       y       z     vdW  Elec       q    Type
REMARK                         _______ _______ _______ _____ _____    ______ ____
ROOT
ATOM      3  O   UNL     1      13.521   8.562  17.770  0.00  0.00    -0.275 OA
ATOM      6  N   UNL     1      15.103   9.304  19.289  0.00  0.00    -0.287 N 
ATOM     11  C   UNL     1      16.284   8.259  21.059  0.00  0.00    +0.105 C 
ATOM     12  C   UNL     1      15.047   8.142  20.169  0.00  0.00    +0.182 C 
ATOM     13  C   UNL     1      16.548   9.766  21.106  0.00  0.00    +0.043 C 
ATOM     14  C   UNL     1      16.124  10.253  19.726  0.00  0.00    +0.110 C 
ATOM     16  C   UNL     1      14.377   9.381  18.110  0.00  0.00    +0.226 C 
ENDROOT
BRANCH  11   7
ATOM      4  O   UNL     1      18.827   7.718  22.312  0.00  0.00    -0.253 OA
ATOM      7  N   UNL     1      17.402   7.547  20.487  0.00  0.00    -0.294 N 
ATOM      9  N   UNL     1      19.504   6.619  20.385  0.00  0.00    -0.297 N 
ATOM     18  C   UNL     1      18.598   7.331  21.167  0.00  0.00    +0.300 C 
ATOM     32  H   UNL     1      17.292   7.128  19.568  0.00  0.00    +0.151 HD
ATOM     34  H   UNL     1      19.195   6.278  19.479  0.00  0.00    +0.150 HD
BRANCH   9  22
ATOM     22  C   UNL     1      20.823   6.260  20.846  0.00  0.00    +0.068 C 
ATOM     24  C   UNL     1      21.146   4.818  20.472  0.00  0.00    +0.027 C 
ATOM     25  C   UNL     1      21.862   7.222  20.284  0.00  0.00    +0.027 C 
ENDBRANCH   9  22
ENDBRANCH  11   7
BRANCH  12  15
ATOM      2  O   UNL     1      13.487   7.469  21.847  0.00  0.00    -0.274 OA
ATOM      8  N   UNL     1      13.022   9.358  20.567  0.00  0.00    -0.302 N 
ATOM     15  C   UNL     1      13.783   8.271  20.965  0.00  0.00    +0.236 C 
ATOM     33  H   UNL     1      13.392   9.986  19.859  0.00  0.00    +0.150 HD
BRANCH   8  17
ATOM     17  C   UNL     1      11.747   9.690  21.161  0.00  0.00    +0.163 C 
BRANCH  17  21
ATOM      5  O   UNL     1      10.474   8.300  19.627  0.00  0.00    -0.274 OA
ATOM     10  N   UNL     1      10.304   7.890  21.881  0.00  0.00    -0.328 N 
ATOM     21  C   UNL     1      10.775   8.581  20.785  0.00  0.00    +0.231 C 
ATOM     35  H   UNL     1       9.658   7.116  21.770  0.00  0.00    +0.145 HD
ATOM     36  H   UNL     1      10.579   8.119  22.831  0.00  0.00    +0.145 HD
ENDBRANCH  17  21
BRANCH  17  20
ATOM     20  C   UNL     1      11.837   9.828  22.684  0.00  0.00    +0.067 C 
BRANCH  20  23
ATOM     23  C   UNL     1      11.325  11.158  23.182  0.00  0.00    -0.045 A 
ATOM     26  C   UNL     1      11.096  11.351  24.544  0.00  0.00    +0.004 A 
ATOM     27  C   UNL     1      11.082  12.194  22.280  0.00  0.00    +0.004 A 
ATOM     29  C   UNL     1      10.624  12.581  25.005  0.00  0.00    +0.000 A 
ATOM     30  C   UNL     1      10.610  13.423  22.741  0.00  0.00    +0.000 A 
ATOM     31  C   UNL     1      10.381  13.616  24.103  0.00  0.00    +0.000 A 
ENDBRANCH  20  23
ENDBRANCH  17  20
ENDBRANCH   8  17
ENDBRANCH  12  15
BRANCH  16  19
ATOM     19  C   UNL     1      14.686  10.567  17.231  0.00  0.00    +0.164 C 
BRANCH  19   1
ATOM      1  S   UNL     1      13.919  10.277  15.631  0.00  0.00    -0.155 S 
ATOM     28  C   UNL     1      14.368  11.832  14.820  0.00  0.00    +0.085 C 
ENDBRANCH  19   1
ENDBRANCH  16  19
TORSDOF 9
ENDMDL
MODEL 2
REMARK VINA RESULT:      -6.6      3.179      4.974
REMARK  Name = 11865837
REMARK  12 active torsions:
REMARK  status: ('A' for Active; 'I' for Inactive)
REMARK    1  A    between atoms: S_1  and  C_19
REMARK    2  A    between atoms: S_1  and  C_28
REMARK    3  A    between atoms: N_7  and  C_11
REMARK    4  A    between atoms: N_8  and  C_17
REMARK    5  A    between atoms: N_9  and  C_22
REMARK    6  A    between atoms: C_12  and  C_15
REMARK    7  A    between atoms: C_16  and  C_19
REMARK    8  A    between atoms: C_17  and  C_20
REMARK    9  A    between atoms: C_17  and  C_21
REMARK   10  A    between atoms: C_20  and  C_23
REMARK   11  A    between atoms: C_22  and  C_24
REMARK   12  A    between atoms: C_22  and  C_25
REMARK                            x       y       z     vdW  Elec       q    Type
REMARK                         _______ _______ _______ _____ _____    ______ ____
ROOT
ATOM      3  O   UNL     1      15.306  13.580  19.864  0.00  0.00    -0.275 OA
ATOM      6  N   UNL     1      14.837  11.793  21.259  0.00  0.00    -0.287 N 
ATOM     11  C   UNL     1      15.100   9.446  21.050  0.00  0.00    +0.105 C 
ATOM     12  C   UNL     1      15.013  10.748  20.255  0.00  0.00    +0.182 C 
ATOM     13  C   UNL     1      14.294   9.746  22.316  0.00  0.00    +0.043 C 
ATOM     14  C   UNL     1      14.559  11.224  22.575  0.00  0.00    +0.110 C 
ATOM     16  C   UNL     1      15.073  13.132  20.988  0.00  0.00    +0.226 C 
ENDROOT
BRANCH  11   7
ATOM      4  O   UNL     1      16.265   6.813  21.257  0.00  0.00    -0.253 OA
ATOM      7  N   UNL     1      16.472   9.123  21.364  0.00  0.00    -0.294 N 
ATOM      9  N   UNL     1      18.306   7.793  21.762  0.00  0.00    -0.297 N 
ATOM     18  C   UNL     1      16.951   7.818  21.444  0.00  0.00    +0.300 C 
ATOM     32  H   UNL     1      17.137   9.883  21.473  0.00  0.00    +0.151 HD
ATOM     34  H   UNL     1      18.803   8.677  21.824  0.00  0.00    +0.150 HD
BRANCH   9  22
ATOM     22  C   UNL     1      19.054   6.568  21.908  0.00  0.00    +0.068 C 
ATOM     24  C   UNL     1      19.576   6.097  20.556  0.00  0.00    +0.027 C 
ATOM     25  C   UNL     1      20.191   6.755  22.904  0.00  0.00    +0.027 C 
ENDBRANCH   9  22
ENDBRANCH  11   7
BRANCH  12  15
ATOM      2  O   UNL     1      12.855  11.545  19.614  0.00  0.00    -0.274 OA
ATOM      8  N   UNL     1      13.852   9.857  18.359  0.00  0.00    -0.302 N 
ATOM     15  C   UNL     1      13.790  10.781  19.388  0.00  0.00    +0.236 C 
ATOM     33  H   UNL     1      14.701   9.312  18.237  0.00  0.00    +0.150 HD
BRANCH   8  17
ATOM     17  C   UNL     1      12.790   9.672  17.397  0.00  0.00    +0.163 C 
BRANCH  17  21
ATOM      5  O   UNL     1      13.650   8.758  15.315  0.00  0.00    -0.274 OA
ATOM     10  N   UNL     1      13.664  11.037  15.603  0.00  0.00    -0.328 N 
ATOM     21  C   UNL     1      13.421   9.744  16.013  0.00  0.00    +0.231 C 
ATOM     35  H   UNL     1      14.070  11.228  14.693  0.00  0.00    +0.145 HD
ATOM     36  H   UNL     1      13.448  11.843  16.181  0.00  0.00    +0.145 HD
ENDBRANCH  17  21
BRANCH  17  20
ATOM     20  C   UNL     1      12.064   8.336  17.584  0.00  0.00    +0.067 C 
BRANCH  20  23
ATOM     23  C   UNL     1      11.878   7.970  19.036  0.00  0.00    -0.045 A 
ATOM     26  C   UNL     1      12.652   6.959  19.605  0.00  0.00    +0.004 A 
ATOM     27  C   UNL     1      10.933   8.643  19.810  0.00  0.00    +0.004 A 
ATOM     29  C   UNL     1      12.481   6.621  20.948  0.00  0.00    +0.000 A 
ATOM     30  C   UNL     1      10.761   8.305  21.152  0.00  0.00    +0.000 A 
ATOM     31  C   UNL     1      11.535   7.294  21.721  0.00  0.00    +0.000 A 
ENDBRANCH  20  23
ENDBRANCH  17  20
ENDBRANCH   8  17
ENDBRANCH  12  15
BRANCH  16  19
ATOM     19  C   UNL     1      15.021  14.055  22.180  0.00  0.00    +0.164 C 
BRANCH  19   1
ATOM      1  S   UNL     1      16.713  14.471  22.625  0.00  0.00    -0.155 S 
ATOM     28  C   UNL     1      16.737  13.785  24.300  0.00  0.00    +0.085 C 
ENDBRANCH  19   1
ENDBRANCH  16  19
TORSDOF 9
ENDMDL
MODEL 3
REMARK VINA RESULT:      -6.5      2.488      3.532
REMARK  Name = 11865837
REMARK  12 active torsions:
REMARK  status: ('A' for Active; 'I' for Inactive)
REMARK    1  A    between atoms: S_1  and  C_19
REMARK    2  A    between atoms: S_1  and  C_28
REMARK    3  A    between atoms: N_7  and  C_11
REMARK    4  A    between atoms: N_8  and  C_17
REMARK    5  A    between atoms: N_9  and  C_22
REMARK    6  A    between atoms: C_12  and  C_15
REMARK    7  A    between atoms: C_16  and  C_19
REMARK    8  A    between atoms: C_17  and  C_20
REMARK    9  A    between atoms: C_17  and  C_21
REMARK   10  A    between atoms: C_20  and  C_23
REMARK   11  A    between atoms: C_22  and  C_24
REMARK   12  A    between atoms: C_22  and  C_25
REMARK                            x       y       z     vdW  Elec       q    Type
REMARK                         _______ _______ _______ _____ _____    ______ ____
ROOT
ATOM      3  O   UNL     1      16.260  12.232  19.316  0.00  0.00    -0.275 OA
ATOM      6  N   UNL     1      15.619  10.780  21.001  0.00  0.00    -0.287 N 
ATOM     11  C   UNL     1      15.835   8.439  21.310  0.00  0.00    +0.105 C 
ATOM     12  C   UNL     1      15.855   9.547  20.257  0.00  0.00    +0.182 C 
ATOM     13  C   UNL     1      14.927   9.004  22.405  0.00  0.00    +0.043 C 
ATOM     14  C   UNL     1      15.208  10.502  22.375  0.00  0.00    +0.110 C 
ATOM     16  C   UNL     1      15.916  12.031  20.482  0.00  0.00    +0.226 C 
ENDROOT
BRANCH  11   7
ATOM      4  O   UNL     1      17.770   6.591  20.229  0.00  0.00    -0.253 OA
ATOM      7  N   UNL     1      17.163   8.178  21.811  0.00  0.00    -0.294 N 
ATOM      9  N   UNL     1      19.247   7.210  21.908  0.00  0.00    -0.297 N 
ATOM     18  C   UNL     1      18.035   7.264  21.224  0.00  0.00    +0.300 C 
ATOM     32  H   UNL     1      17.504   8.730  22.593  0.00  0.00    +0.151 HD
ATOM     34  H   UNL     1      19.398   7.859  22.674  0.00  0.00    +0.150 HD
BRANCH   9  22
ATOM     22  C   UNL     1      20.331   6.343  21.511  0.00  0.00    +0.068 C 
ATOM     24  C   UNL     1      21.236   7.045  20.505  0.00  0.00    +0.027 C 
ATOM     25  C   UNL     1      21.116   5.883  22.733  0.00  0.00    +0.027 C 
ENDBRANCH   9  22
ENDBRANCH  11   7
BRANCH  12  15
ATOM      2  O   UNL     1      14.815   9.756  18.118  0.00  0.00    -0.274 OA
ATOM      8  N   UNL     1      13.584   8.880  19.889  0.00  0.00    -0.302 N 
ATOM     15  C   UNL     1      14.716   9.408  19.291  0.00  0.00    +0.236 C 
ATOM     33  H   UNL     1      13.634   8.578  20.858  0.00  0.00    +0.150 HD
BRANCH   8  17
ATOM     17  C   UNL     1      12.343   8.666  19.181  0.00  0.00    +0.163 C 
BRANCH  17  21
ATOM      5  O   UNL     1      12.711   7.161  17.308  0.00  0.00    -0.274 OA
ATOM     10  N   UNL     1      12.250   6.259  19.370  0.00  0.00    -0.328 N 
ATOM     21  C   UNL     1      12.443   7.309  18.499  0.00  0.00    +0.231 C 
ATOM     35  H   UNL     1      12.304   5.298  19.048  0.00  0.00    +0.145 HD
ATOM     36  H   UNL     1      12.053   6.396  20.356  0.00  0.00    +0.145 HD
ENDBRANCH  17  21
BRANCH  17  20
ATOM     20  C   UNL     1      11.129   8.706  20.115  0.00  0.00    +0.067 C 
BRANCH  20  23
ATOM     23  C   UNL     1      11.259   9.748  21.199  0.00  0.00    -0.045 A 
ATOM     26  C   UNL     1      11.769  11.010  20.895  0.00  0.00    +0.004 A 
ATOM     27  C   UNL     1      10.869   9.449  22.505  0.00  0.00    +0.004 A 
ATOM     29  C   UNL     1      11.889  11.974  21.897  0.00  0.00    +0.000 A 
ATOM     30  C   UNL     1      10.989  10.413  23.506  0.00  0.00    +0.000 A 
ATOM     31  C   UNL     1      11.499  11.675  23.203  0.00  0.00    +0.000 A 
ENDBRANCH  20  23
ENDBRANCH  17  20
ENDBRANCH   8  17
ENDBRANCH  12  15
BRANCH  16  19
ATOM     19  C   UNL     1      15.782  13.184  21.446  0.00  0.00    +0.164 C 
BRANCH  19   1
ATOM      1  S   UNL     1      17.404  13.940  21.622  0.00  0.00    -0.155 S 
ATOM     28  C   UNL     1      17.880  13.212  23.211  0.00  0.00    +0.085 C 
ENDBRANCH  19   1
ENDBRANCH  16  19
TORSDOF 9
ENDMDL
MODEL 4
REMARK VINA RESULT:      -6.5     26.580     30.096
REMARK  Name = 11865837
REMARK  12 active torsions:
REMARK  status: ('A' for Active; 'I' for Inactive)
REMARK    1  A    between atoms: S_1  and  C_19
REMARK    2  A    between atoms: S_1  and  C_28
REMARK    3  A    between atoms: N_7  and  C_11
REMARK    4  A    between atoms: N_8  and  C_17
REMARK    5  A    between atoms: N_9  and  C_22
REMARK    6  A    between atoms: C_12  and  C_15
REMARK    7  A    between atoms: C_16  and  C_19
REMARK    8  A    between atoms: C_17  and  C_20
REMARK    9  A    between atoms: C_17  and  C_21
REMARK   10  A    between atoms: C_20  and  C_23
REMARK   11  A    between atoms: C_22  and  C_24
REMARK   12  A    between atoms: C_22  and  C_25
REMARK                            x       y       z     vdW  Elec       q    Type
REMARK                         _______ _______ _______ _____ _____    ______ ____
ROOT
ATOM      3  O   UNL     1      -5.938 -13.568  14.928  0.00  0.00    -0.275 OA
ATOM      6  N   UNL     1      -5.517 -12.639  17.006  0.00  0.00    -0.287 N 
ATOM     11  C   UNL     1      -6.317 -10.707  18.123  0.00  0.00    +0.105 C 
ATOM     12  C   UNL     1      -6.162 -11.356  16.748  0.00  0.00    +0.182 C 
ATOM     13  C   UNL     1      -5.168 -11.311  18.934  0.00  0.00    +0.043 C 
ATOM     14  C   UNL     1      -5.037 -12.725  18.383  0.00  0.00    +0.110 C 
ATOM     16  C   UNL     1      -5.525 -13.674  16.084  0.00  0.00    +0.226 C 
ENDROOT
BRANCH  11   7
ATOM      4  O   UNL     1      -8.861  -9.484  17.519  0.00  0.00    -0.253 OA
ATOM      7  N   UNL     1      -7.598 -11.029  18.706  0.00  0.00    -0.294 N 
ATOM      9  N   UNL     1      -9.865 -10.891  19.066  0.00  0.00    -0.297 N 
ATOM     18  C   UNL     1      -8.781 -10.385  18.354  0.00  0.00    +0.300 C 
ATOM     32  H   UNL     1      -7.652 -11.805  19.360  0.00  0.00    +0.151 HD
ATOM     34  H   UNL     1      -9.710 -11.686  19.679  0.00  0.00    +0.150 HD
BRANCH   9  22
ATOM     22  C   UNL     1     -11.212 -10.400  18.896  0.00  0.00    +0.068 C 
ATOM     24  C   UNL     1     -12.018 -11.348  18.015  0.00  0.00    +0.027 C 
ATOM     25  C   UNL     1     -11.880 -10.203  20.250  0.00  0.00    +0.027 C 
ENDBRANCH   9  22
ENDBRANCH  11   7
BRANCH  12  15
ATOM      2  O   UNL     1      -5.578  -9.551  15.297  0.00  0.00    -0.274 OA
ATOM      8  N   UNL     1      -3.973 -11.161  15.798  0.00  0.00    -0.302 N 
ATOM     15  C   UNL     1      -5.225 -10.576  15.875  0.00  0.00    +0.236 C 
ATOM     33  H   UNL     1      -3.777 -11.983  16.362  0.00  0.00    +0.150 HD
BRANCH   8  17
ATOM     17  C   UNL     1      -2.895 -10.619  15.002  0.00  0.00    +0.163 C 
BRANCH  17  21
ATOM      5  O   UNL     1      -0.596 -10.058  15.560  0.00  0.00    -0.274 OA
ATOM     10  N   UNL     1      -1.864 -11.175  17.117  0.00  0.00    -0.328 N 
ATOM     21  C   UNL     1      -1.656 -10.588  15.887  0.00  0.00    +0.231 C 
ATOM     35  H   UNL     1      -1.123 -11.210  17.809  0.00  0.00    +0.145 HD
ATOM     36  H   UNL     1      -2.752 -11.588  17.382  0.00  0.00    +0.145 HD
ENDBRANCH  17  21
BRANCH  17  20
ATOM     20  C   UNL     1      -2.630 -11.449  13.742  0.00  0.00    +0.067 C 
BRANCH  20  23
ATOM     23  C   UNL     1      -2.839 -10.665  12.470  0.00  0.00    -0.045 A 
ATOM     26  C   UNL     1      -1.770  -9.982  11.889  0.00  0.00    +0.004 A 
ATOM     27  C   UNL     1      -4.100 -10.622  11.875  0.00  0.00    +0.004 A 
ATOM     29  C   UNL     1      -1.963  -9.257  10.712  0.00  0.00    +0.000 A 
ATOM     30  C   UNL     1      -4.292  -9.897  10.699  0.00  0.00    +0.000 A 
ATOM     31  C   UNL     1      -3.224  -9.215  10.117  0.00  0.00    +0.000 A 
ENDBRANCH  20  23
ENDBRANCH  17  20
ENDBRANCH   8  17
ENDBRANCH  12  15
BRANCH  16  19
ATOM     19  C   UNL     1      -4.973 -14.989  16.577  0.00  0.00    +0.164 C 
BRANCH  19   1
ATOM      1  S   UNL     1      -4.553 -15.980  15.136  0.00  0.00    -0.155 S 
ATOM     28  C   UNL     1      -2.966 -15.213  14.723  0.00  0.00    +0.085 C 
ENDBRANCH  19   1
ENDBRANCH  16  19
TORSDOF 9
ENDMDL
MODEL 5
REMARK VINA RESULT:      -6.5     27.868     32.000
REMARK  Name = 11865837
REMARK  12 active torsions:
REMARK  status: ('A' for Active; 'I' for Inactive)
REMARK    1  A    between atoms: S_1  and  C_19
REMARK    2  A    between atoms: S_1  and  C_28
REMARK    3  A    between atoms: N_7  and  C_11
REMARK    4  A    between atoms: N_8  and  C_17
REMARK    5  A    between atoms: N_9  and  C_22
REMARK    6  A    between atoms: C_12  and  C_15
REMARK    7  A    between atoms: C_16  and  C_19
REMARK    8  A    between atoms: C_17  and  C_20
REMARK    9  A    between atoms: C_17  and  C_21
REMARK   10  A    between atoms: C_20  and  C_23
REMARK   11  A    between atoms: C_22  and  C_24
REMARK   12  A    between atoms: C_22  and  C_25
REMARK                            x       y       z     vdW  Elec       q    Type
REMARK                         _______ _______ _______ _____ _____    ______ ____
ROOT
ATOM      3  O   UNL     1     -16.966   5.845  31.462  0.00  0.00    -0.275 OA
ATOM      6  N   UNL     1     -15.864   7.526  32.609  0.00  0.00    -0.287 N 
ATOM     11  C   UNL     1     -13.641   8.350  32.561  0.00  0.00    +0.105 C 
ATOM     12  C   UNL     1     -14.514   7.148  32.202  0.00  0.00    +0.182 C 
ATOM     13  C   UNL     1     -14.386   8.996  33.732  0.00  0.00    +0.043 C 
ATOM     14  C   UNL     1     -15.855   8.747  33.411  0.00  0.00    +0.110 C 
ATOM     16  C   UNL     1     -16.993   6.875  32.138  0.00  0.00    +0.226 C 
ENDROOT
BRANCH  11   7
ATOM      4  O   UNL     1     -11.235   9.073  31.141  0.00  0.00    -0.253 OA
ATOM      7  N   UNL     1     -13.529   9.259  31.445  0.00  0.00    -0.294 N 
ATOM      9  N   UNL     1     -12.499  10.456  29.773  0.00  0.00    -0.297 N 
ATOM     18  C   UNL     1     -12.321   9.552  30.817  0.00  0.00    +0.300 C 
ATOM     32  H   UNL     1     -14.379   9.659  31.057  0.00  0.00    +0.151 HD
ATOM     34  H   UNL     1     -13.445  10.737  29.534  0.00  0.00    +0.150 HD
BRANCH   9  22
ATOM     22  C   UNL     1     -11.409  10.931  28.954  0.00  0.00    +0.068 C 
ATOM     24  C   UNL     1     -11.209  10.019  27.749  0.00  0.00    +0.027 C 
ATOM     25  C   UNL     1     -11.658  12.370  28.522  0.00  0.00    +0.027 C 
ENDBRANCH   9  22
ENDBRANCH  11   7
BRANCH  12  15
ATOM      2  O   UNL     1     -13.812   6.029  34.191  0.00  0.00    -0.274 OA
ATOM      8  N   UNL     1     -14.214   4.773  32.273  0.00  0.00    -0.302 N 
ATOM     15  C   UNL     1     -14.147   5.941  33.013  0.00  0.00    +0.236 C 
ATOM     33  H   UNL     1     -14.556   4.814  31.316  0.00  0.00    +0.150 HD
BRANCH   8  17
ATOM     17  C   UNL     1     -13.887   3.474  32.815  0.00  0.00    +0.163 C 
BRANCH  17  21
ATOM      5  O   UNL     1     -16.270   3.412  33.290  0.00  0.00    -0.274 OA
ATOM     10  N   UNL     1     -14.926   1.782  34.192  0.00  0.00    -0.328 N 
ATOM     21  C   UNL     1     -15.154   2.922  33.452  0.00  0.00    +0.231 C 
ATOM     35  H   UNL     1     -15.689   1.303  34.660  0.00  0.00    +0.145 HD
ATOM     36  H   UNL     1     -14.003   1.375  34.298  0.00  0.00    +0.145 HD
ENDBRANCH  17  21
BRANCH  17  20
ATOM     20  C   UNL     1     -13.367   2.513  31.741  0.00  0.00    +0.067 C 
BRANCH  20  23
ATOM     23  C   UNL     1     -14.373   2.259  30.646  0.00  0.00    -0.045 A 
ATOM     26  C   UNL     1     -15.033   1.032  30.576  0.00  0.00    +0.004 A 
ATOM     27  C   UNL     1     -14.645   3.251  29.703  0.00  0.00    +0.004 A 
ATOM     29  C   UNL     1     -15.965   0.798  29.564  0.00  0.00    +0.000 A 
ATOM     30  C   UNL     1     -15.575   3.016  28.692  0.00  0.00    +0.000 A 
ATOM     31  C   UNL     1     -16.235   1.789  28.622  0.00  0.00    +0.000 A 
ENDBRANCH  20  23
ENDBRANCH  17  20
ENDBRANCH   8  17
ENDBRANCH  12  15
BRANCH  16  19
ATOM     19  C   UNL     1     -18.311   7.504  32.514  0.00  0.00    +0.164 C 
BRANCH  19   1
ATOM      1  S   UNL     1     -19.337   6.224  33.252  0.00  0.00    -0.155 S 
ATOM     28  C   UNL     1     -18.379   5.934  34.760  0.00  0.00    +0.085 C 
ENDBRANCH  19   1
ENDBRANCH  16  19
TORSDOF 9
ENDMDL
MODEL 6
REMARK VINA RESULT:      -6.4     10.806     15.254
REMARK  Name = 11865837
REMARK  12 active torsions:
REMARK  status: ('A' for Active; 'I' for Inactive)
REMARK    1  A    between atoms: S_1  and  C_19
REMARK    2  A    between atoms: S_1  and  C_28
REMARK    3  A    between atoms: N_7  and  C_11
REMARK    4  A    between atoms: N_8  and  C_17
REMARK    5  A    between atoms: N_9  and  C_22
REMARK    6  A    between atoms: C_12  and  C_15
REMARK    7  A    between atoms: C_16  and  C_19
REMARK    8  A    between atoms: C_17  and  C_20
REMARK    9  A    between atoms: C_17  and  C_21
REMARK   10  A    between atoms: C_20  and  C_23
REMARK   11  A    between atoms: C_22  and  C_24
REMARK   12  A    between atoms: C_22  and  C_25
REMARK                            x       y       z     vdW  Elec       q    Type
REMARK                         _______ _______ _______ _____ _____    ______ ____
ROOT
ATOM      3  O   UNL     1      15.024   7.309   6.548  0.00  0.00    -0.275 OA
ATOM      6  N   UNL     1      13.570   9.081   6.225  0.00  0.00    -0.287 N 
ATOM     11  C   UNL     1      11.727   9.926   7.454  0.00  0.00    +0.105 C 
ATOM     12  C   UNL     1      12.603   8.691   7.246  0.00  0.00    +0.182 C 
ATOM     13  C   UNL     1      11.797  10.644   6.104  0.00  0.00    +0.043 C 
ATOM     14  C   UNL     1      13.209  10.356   5.611  0.00  0.00    +0.110 C 
ATOM     16  C   UNL     1      14.750   8.384   6.013  0.00  0.00    +0.226 C 
ENDROOT
BRANCH  11   7
ATOM      4  O   UNL     1      10.247  11.042   9.666  0.00  0.00    -0.253 OA
ATOM      7  N   UNL     1      12.244  10.753   8.518  0.00  0.00    -0.294 N 
ATOM      9  N   UNL     1      12.205  12.018  10.439  0.00  0.00    -0.297 N 
ATOM     18  C   UNL     1      11.454  11.252   9.551  0.00  0.00    +0.300 C 
ATOM     32  H   UNL     1      13.244  10.932   8.552  0.00  0.00    +0.151 HD
ATOM     34  H   UNL     1      13.210  12.071  10.299  0.00  0.00    +0.150 HD
BRANCH   9  22
ATOM     22  C   UNL     1      11.633  12.654  11.601  0.00  0.00    +0.068 C 
ATOM     24  C   UNL     1      12.587  12.560  12.785  0.00  0.00    +0.027 C 
ATOM     25  C   UNL     1      11.278  14.104  11.291  0.00  0.00    +0.027 C 
ENDBRANCH   9  22
ENDBRANCH  11   7
BRANCH  12  15
ATOM      2  O   UNL     1      12.101   7.046   5.590  0.00  0.00    -0.274 OA
ATOM      8  N   UNL     1      10.762   7.178   7.490  0.00  0.00    -0.302 N 
ATOM     15  C   UNL     1      11.817   7.549   6.673  0.00  0.00    +0.236 C 
ATOM     33  H   UNL     1      10.654   7.633   8.392  0.00  0.00    +0.150 HD
BRANCH   8  17
ATOM     17  C   UNL     1       9.838   6.119   7.155  0.00  0.00    +0.163 C 
BRANCH  17  21
ATOM      5  O   UNL     1       9.140   5.441   9.382  0.00  0.00    -0.274 OA
ATOM     10  N   UNL     1      10.445   4.004   8.154  0.00  0.00    -0.328 N 
ATOM     21  C   UNL     1       9.768   5.187   8.356  0.00  0.00    +0.231 C 
ATOM     35  H   UNL     1      10.467   3.287   8.871  0.00  0.00    +0.145 HD
ATOM     36  H   UNL     1      10.940   3.798   7.292  0.00  0.00    +0.145 HD
ENDBRANCH  17  21
BRANCH  17  20
ATOM     20  C   UNL     1       8.443   6.654   6.812  0.00  0.00    +0.067 C 
BRANCH  20  23
ATOM     23  C   UNL     1       8.425   7.471   5.544  0.00  0.00    -0.045 A 
ATOM     26  C   UNL     1       8.093   8.824   5.591  0.00  0.00    +0.004 A 
ATOM     27  C   UNL     1       8.742   6.873   4.324  0.00  0.00    +0.004 A 
ATOM     29  C   UNL     1       8.077   9.580   4.418  0.00  0.00    +0.000 A 
ATOM     30  C   UNL     1       8.725   7.628   3.151  0.00  0.00    +0.000 A 
ATOM     31  C   UNL     1       8.393   8.982   3.198  0.00  0.00    +0.000 A 
ENDBRANCH  20  23
ENDBRANCH  17  20
ENDBRANCH   8  17
ENDBRANCH  12  15
BRANCH  16  19
ATOM     19  C   UNL     1      15.718   9.023   5.049  0.00  0.00    +0.164 C 
BRANCH  19   1
ATOM      1  S   UNL     1      16.147   7.793   3.809  0.00  0.00    -0.155 S 
ATOM     28  C   UNL     1      14.527   7.612   3.022  0.00  0.00    +0.085 C 
ENDBRANCH  19   1
ENDBRANCH  16  19
TORSDOF 9
ENDMDL
MODEL 7
REMARK VINA RESULT:      -6.4     19.165     23.737
REMARK  Name = 11865837
REMARK  12 active torsions:
REMARK  status: ('A' for Active; 'I' for Inactive)
REMARK    1  A    between atoms: S_1  and  C_19
REMARK    2  A    between atoms: S_1  and  C_28
REMARK    3  A    between atoms: N_7  and  C_11
REMARK    4  A    between atoms: N_8  and  C_17
REMARK    5  A    between atoms: N_9  and  C_22
REMARK    6  A    between atoms: C_12  and  C_15
REMARK    7  A    between atoms: C_16  and  C_19
REMARK    8  A    between atoms: C_17  and  C_20
REMARK    9  A    between atoms: C_17  and  C_21
REMARK   10  A    between atoms: C_20  and  C_23
REMARK   11  A    between atoms: C_22  and  C_24
REMARK   12  A    between atoms: C_22  and  C_25
REMARK                            x       y       z     vdW  Elec       q    Type
REMARK                         _______ _______ _______ _____ _____    ______ ____
ROOT
ATOM      3  O   UNL     1      -5.236  10.392  35.386  0.00  0.00    -0.275 OA
ATOM      6  N   UNL     1      -3.873  12.224  35.764  0.00  0.00    -0.287 N 
ATOM     11  C   UNL     1      -1.523  12.541  35.750  0.00  0.00    +0.105 C 
ATOM     12  C   UNL     1      -2.619  11.482  35.857  0.00  0.00    +0.182 C 
ATOM     13  C   UNL     1      -2.193  13.805  36.296  0.00  0.00    +0.043 C 
ATOM     14  C   UNL     1      -3.646  13.664  35.860  0.00  0.00    +0.110 C 
ATOM     16  C   UNL     1      -5.079  11.612  35.460  0.00  0.00    +0.226 C 
ENDROOT
BRANCH  11   7
ATOM      4  O   UNL     1       1.008  13.568  34.818  0.00  0.00    -0.253 OA
ATOM      7  N   UNL     1      -1.107  12.718  34.379  0.00  0.00    -0.294 N 
ATOM      9  N   UNL     1       0.279  13.288  32.634  0.00  0.00    -0.297 N 
ATOM     18  C   UNL     1       0.140  13.223  34.018  0.00  0.00    +0.300 C 
ATOM     32  H   UNL     1      -1.727  12.402  33.639  0.00  0.00    +0.151 HD
ATOM     34  H   UNL     1      -0.466  12.910  32.056  0.00  0.00    +0.150 HD
BRANCH   9  22
ATOM     22  C   UNL     1       1.475  13.775  31.989  0.00  0.00    +0.068 C 
ATOM     24  C   UNL     1       1.686  13.073  30.653  0.00  0.00    +0.027 C 
ATOM     25  C   UNL     1       1.404  15.287  31.813  0.00  0.00    +0.027 C 
ENDBRANCH   9  22
ENDBRANCH  11   7
BRANCH  12  15
ATOM      2  O   UNL     1      -2.423  11.457  38.237  0.00  0.00    -0.274 OA
ATOM      8  N   UNL     1      -2.825   9.456  37.118  0.00  0.00    -0.302 N 
ATOM     15  C   UNL     1      -2.615  10.821  37.204  0.00  0.00    +0.236 C 
ATOM     33  H   UNL     1      -3.026   9.044  36.210  0.00  0.00    +0.150 HD
BRANCH   8  17
ATOM     17  C   UNL     1      -2.844   8.585  38.271  0.00  0.00    +0.163 C 
BRANCH  17  21
ATOM      5  O   UNL     1      -4.638   8.359  39.895  0.00  0.00    -0.274 OA
ATOM     10  N   UNL     1      -5.186   8.545  37.672  0.00  0.00    -0.328 N 
ATOM     21  C   UNL     1      -4.294   8.467  38.720  0.00  0.00    +0.231 C 
ATOM     35  H   UNL     1      -6.186   8.494  37.834  0.00  0.00    +0.145 HD
ATOM     36  H   UNL     1      -4.888   8.658  36.708  0.00  0.00    +0.145 HD
ENDBRANCH  17  21
BRANCH  17  20
ATOM     20  C   UNL     1      -2.268   7.199  37.960  0.00  0.00    +0.067 C 
BRANCH  20  23
ATOM     23  C   UNL     1      -1.545   6.589  39.135  0.00  0.00    -0.045 A 
ATOM     26  C   UNL     1      -2.138   5.553  39.857  0.00  0.00    +0.004 A 
ATOM     27  C   UNL     1      -0.284   7.061  39.501  0.00  0.00    +0.004 A 
ATOM     29  C   UNL     1      -1.469   4.988  40.943  0.00  0.00    +0.000 A 
ATOM     30  C   UNL     1       0.384   6.496  40.588  0.00  0.00    +0.000 A 
ATOM     31  C   UNL     1      -0.209   5.460  41.309  0.00  0.00    +0.000 A 
ENDBRANCH  20  23
ENDBRANCH  17  20
ENDBRANCH   8  17
ENDBRANCH  12  15
BRANCH  16  19
ATOM     19  C   UNL     1      -6.241  12.544  35.224  0.00  0.00    +0.164 C 
BRANCH  19   1
ATOM      1  S   UNL     1      -6.856  12.242  33.561  0.00  0.00    -0.155 S 
ATOM     28  C   UNL     1      -5.436  12.857  32.622  0.00  0.00    +0.085 C 
ENDBRANCH  19   1
ENDBRANCH  16  19
TORSDOF 9
ENDMDL
MODEL 8
REMARK VINA RESULT:      -6.4     29.952     31.961
REMARK  Name = 11865837
REMARK  12 active torsions:
REMARK  status: ('A' for Active; 'I' for Inactive)
REMARK    1  A    between atoms: S_1  and  C_19
REMARK    2  A    between atoms: S_1  and  C_28
REMARK    3  A    between atoms: N_7  and  C_11
REMARK    4  A    between atoms: N_8  and  C_17
REMARK    5  A    between atoms: N_9  and  C_22
REMARK    6  A    between atoms: C_12  and  C_15
REMARK    7  A    between atoms: C_16  and  C_19
REMARK    8  A    between atoms: C_17  and  C_20
REMARK    9  A    between atoms: C_17  and  C_21
REMARK   10  A    between atoms: C_20  and  C_23
REMARK   11  A    between atoms: C_22  and  C_24
REMARK   12  A    between atoms: C_22  and  C_25
REMARK                            x       y       z     vdW  Elec       q    Type
REMARK                         _______ _______ _______ _____ _____    ______ ____
ROOT
ATOM      3  O   UNL     1     -13.160   2.425  30.610  0.00  0.00    -0.275 OA
ATOM      6  N   UNL     1     -15.114   2.122  29.407  0.00  0.00    -0.287 N 
ATOM     11  C   UNL     1     -16.427   3.546  28.039  0.00  0.00    +0.105 C 
ATOM     12  C   UNL     1     -15.364   3.534  29.137  0.00  0.00    +0.182 C 
ATOM     13  C   UNL     1     -17.181   2.231  28.259  0.00  0.00    +0.043 C 
ATOM     14  C   UNL     1     -16.105   1.272  28.752  0.00  0.00    +0.110 C 
ATOM     16  C   UNL     1     -13.978   1.680  30.068  0.00  0.00    +0.226 C 
ENDROOT
BRANCH  11   7
ATOM      4  O   UNL     1     -17.323   5.063  25.754  0.00  0.00    -0.253 OA
ATOM      7  N   UNL     1     -15.819   3.589  26.731  0.00  0.00    -0.294 N 
ATOM      9  N   UNL     1     -15.543   4.212  24.534  0.00  0.00    -0.297 N 
ATOM     18  C   UNL     1     -16.321   4.353  25.680  0.00  0.00    +0.300 C 
ATOM     32  H   UNL     1     -14.947   3.088  26.584  0.00  0.00    +0.151 HD
ATOM     34  H   UNL     1     -14.692   3.661  24.594  0.00  0.00    +0.150 HD
BRANCH   9  22
ATOM     22  C   UNL     1     -15.840   4.894  23.298  0.00  0.00    +0.068 C 
ATOM     24  C   UNL     1     -14.573   5.077  22.470  0.00  0.00    +0.027 C 
ATOM     25  C   UNL     1     -16.905   4.135  22.516  0.00  0.00    +0.027 C 
ENDBRANCH   9  22
ENDBRANCH  11   7
BRANCH  12  15
ATOM      2  O   UNL     1     -17.086   4.147  30.674  0.00  0.00    -0.274 OA
ATOM      8  N   UNL     1     -14.873   4.638  31.205  0.00  0.00    -0.302 N 
ATOM     15  C   UNL     1     -15.886   4.125  30.413  0.00  0.00    +0.236 C 
ATOM     33  H   UNL     1     -13.907   4.517  30.911  0.00  0.00    +0.150 HD
BRANCH   8  17
ATOM     17  C   UNL     1     -15.113   5.283  32.476  0.00  0.00    +0.163 C 
BRANCH  17  21
ATOM      5  O   UNL     1     -14.452   3.583  34.083  0.00  0.00    -0.274 OA
ATOM     10  N   UNL     1     -16.692   3.961  33.740  0.00  0.00    -0.328 N 
ATOM     21  C   UNL     1     -15.353   4.182  33.499  0.00  0.00    +0.231 C 
ATOM     35  H   UNL     1     -16.992   3.262  34.412  0.00  0.00    +0.145 HD
ATOM     36  H   UNL     1     -17.426   4.479  33.268  0.00  0.00    +0.145 HD
ENDBRANCH  17  21
BRANCH  17  20
ATOM     20  C   UNL     1     -13.937   6.166  32.909  0.00  0.00    +0.067 C 
BRANCH  20  23
ATOM     23  C   UNL     1     -13.957   7.526  32.256  0.00  0.00    -0.045 A 
ATOM     26  C   UNL     1     -15.156   8.051  31.774  0.00  0.00    +0.004 A 
ATOM     27  C   UNL     1     -12.776   8.259  32.134  0.00  0.00    +0.004 A 
ATOM     29  C   UNL     1     -15.174   9.309  31.170  0.00  0.00    +0.000 A 
ATOM     30  C   UNL     1     -12.794   9.516  31.531  0.00  0.00    +0.000 A 
ATOM     31  C   UNL     1     -13.993  10.042  31.049  0.00  0.00    +0.000 A 
ENDBRANCH  20  23
ENDBRANCH  17  20
ENDBRANCH   8  17
ENDBRANCH  12  15
BRANCH  16  19
ATOM     19  C   UNL     1     -13.786   0.185  30.104  0.00  0.00    +0.164 C 
BRANCH  19   1
ATOM      1  S   UNL     1     -15.047  -0.503  31.187  0.00  0.00    -0.155 S 
ATOM     28  C   UNL     1     -14.830   0.603  32.604  0.00  0.00    +0.085 C 
ENDBRANCH  19   1
ENDBRANCH  16  19
TORSDOF 9
ENDMDL
MODEL 9
REMARK VINA RESULT:      -6.1     15.207     19.119
REMARK  Name = 11865837
REMARK  12 active torsions:
REMARK  status: ('A' for Active; 'I' for Inactive)
REMARK    1  A    between atoms: S_1  and  C_19
REMARK    2  A    between atoms: S_1  and  C_28
REMARK    3  A    between atoms: N_7  and  C_11
REMARK    4  A    between atoms: N_8  and  C_17
REMARK    5  A    between atoms: N_9  and  C_22
REMARK    6  A    between atoms: C_12  and  C_15
REMARK    7  A    between atoms: C_16  and  C_19
REMARK    8  A    between atoms: C_17  and  C_20
REMARK    9  A    between atoms: C_17  and  C_21
REMARK   10  A    between atoms: C_20  and  C_23
REMARK   11  A    between atoms: C_22  and  C_24
REMARK   12  A    between atoms: C_22  and  C_25
REMARK                            x       y       z     vdW  Elec       q    Type
REMARK                         _______ _______ _______ _____ _____    ______ ____
ROOT
ATOM      3  O   UNL     1      11.239   9.356   4.801  0.00  0.00    -0.275 OA
ATOM      6  N   UNL     1      10.722   7.186   5.421  0.00  0.00    -0.287 N 
ATOM     11  C   UNL     1      10.076   5.252   4.211  0.00  0.00    +0.105 C 
ATOM     12  C   UNL     1      10.159   6.776   4.138  0.00  0.00    +0.182 C 
ATOM     13  C   UNL     1       9.931   4.973   5.709  0.00  0.00    +0.043 C 
ATOM     14  C   UNL     1      10.757   6.072   6.366  0.00  0.00    +0.110 C 
ATOM     16  C   UNL     1      11.286   8.436   5.621  0.00  0.00    +0.226 C 
ENDROOT
BRANCH  11   7
ATOM      4  O   UNL     1      11.119   5.522   1.533  0.00  0.00    -0.253 OA
ATOM      7  N   UNL     1      11.271   4.643   3.677  0.00  0.00    -0.294 N 
ATOM      9  N   UNL     1      12.880   4.129   2.116  0.00  0.00    -0.297 N 
ATOM     18  C   UNL     1      11.702   4.828   2.366  0.00  0.00    +0.300 C 
ATOM     32  H   UNL     1      11.862   4.102   4.303  0.00  0.00    +0.151 HD
ATOM     34  H   UNL     1      13.327   3.644   2.889  0.00  0.00    +0.150 HD
BRANCH   9  22
ATOM     22  C   UNL     1      13.544   4.146   0.835  0.00  0.00    +0.068 C 
ATOM     24  C   UNL     1      15.026   3.830   0.996  0.00  0.00    +0.027 C 
ATOM     25  C   UNL     1      12.873   3.171  -0.124  0.00  0.00    +0.027 C 
ENDBRANCH   9  22
ENDBRANCH  11   7
BRANCH  12  15
ATOM      2  O   UNL     1       7.845   6.964   4.698  0.00  0.00    -0.274 OA
ATOM      8  N   UNL     1       8.760   8.461   3.168  0.00  0.00    -0.302 N 
ATOM     15  C   UNL     1       8.797   7.397   4.053  0.00  0.00    +0.236 C 
ATOM     33  H   UNL     1       9.624   8.765   2.728  0.00  0.00    +0.150 HD
BRANCH   8  17
ATOM     17  C   UNL     1       7.560   9.215   2.888  0.00  0.00    +0.163 C 
BRANCH  17  21
ATOM      5  O   UNL     1       6.257  10.323   4.615  0.00  0.00    -0.274 OA
ATOM     10  N   UNL     1       8.502  10.786   4.465  0.00  0.00    -0.328 N 
ATOM     21  C   UNL     1       7.342  10.162   4.060  0.00  0.00    +0.231 C 
ATOM     35  H   UNL     1       8.500  11.434   5.247  0.00  0.00    +0.145 HD
ATOM     36  H   UNL     1       9.396  10.626   4.012  0.00  0.00    +0.145 HD
ENDBRANCH  17  21
BRANCH  17  20
ATOM     20  C   UNL     1       7.664  10.003   1.577  0.00  0.00    +0.067 C 
BRANCH  20  23
ATOM     23  C   UNL     1       6.598   9.620   0.580  0.00  0.00    -0.045 A 
ATOM     26  C   UNL     1       6.949   9.337  -0.740  0.00  0.00    +0.004 A 
ATOM     27  C   UNL     1       5.263   9.547   0.977  0.00  0.00    +0.004 A 
ATOM     29  C   UNL     1       5.964   8.982  -1.663  0.00  0.00    +0.000 A 
ATOM     30  C   UNL     1       4.279   9.193   0.054  0.00  0.00    +0.000 A 
ATOM     31  C   UNL     1       4.630   8.910  -1.266  0.00  0.00    +0.000 A 
ENDBRANCH  20  23
ENDBRANCH  17  20
ENDBRANCH   8  17
ENDBRANCH  12  15
BRANCH  16  19
ATOM     19  C   UNL     1      11.982   8.632   6.945  0.00  0.00    +0.164 C 
BRANCH  19   1
ATOM      1  S   UNL     1      13.717   8.962   6.607  0.00  0.00    -0.155 S 
ATOM     28  C   UNL     1      14.321   7.256   6.556  0.00  0.00    +0.085 C 
ENDBRANCH  19   1
ENDBRANCH  16  19
TORSDOF 9
ENDMDL
MODEL 10
REMARK VINA RESULT:      -6.0      3.207      4.265
REMARK  Name = 11865837
REMARK  12 active torsions:
REMARK  status: ('A' for Active; 'I' for Inactive)
REMARK    1  A    between atoms: S_1  and  C_19
REMARK    2  A    between atoms: S_1  and  C_28
REMARK    3  A    between atoms: N_7  and  C_11
REMARK    4  A    between atoms: N_8  and  C_17
REMARK    5  A    between atoms: N_9  and  C_22
REMARK    6  A    between atoms: C_12  and  C_15
REMARK    7  A    between atoms: C_16  and  C_19
REMARK    8  A    between atoms: C_17  and  C_20
REMARK    9  A    between atoms: C_17  and  C_21
REMARK   10  A    between atoms: C_20  and  C_23
REMARK   11  A    between atoms: C_22  and  C_24
REMARK   12  A    between atoms: C_22  and  C_25
REMARK                            x       y       z     vdW  Elec       q    Type
REMARK                         _______ _______ _______ _____ _____    ______ ____
ROOT
ATOM      3  O   UNL     1      16.317  12.230  17.736  0.00  0.00    -0.275 OA
ATOM      6  N   UNL     1      16.194  11.857  20.018  0.00  0.00    -0.287 N 
ATOM     11  C   UNL     1      16.126   9.897  21.350  0.00  0.00    +0.105 C 
ATOM     12  C   UNL     1      15.895  10.431  19.937  0.00  0.00    +0.182 C 
ATOM     13  C   UNL     1      15.856  11.114  22.240  0.00  0.00    +0.043 C 
ATOM     14  C   UNL     1      16.344  12.291  21.404  0.00  0.00    +0.110 C 
ATOM     16  C   UNL     1      16.453  12.627  18.895  0.00  0.00    +0.226 C 
ENDROOT
BRANCH  11   7
ATOM      4  O   UNL     1      17.006   7.149  21.433  0.00  0.00    -0.253 OA
ATOM      7  N   UNL     1      17.480   9.421  21.509  0.00  0.00    -0.294 N 
ATOM      9  N   UNL     1      19.187   7.892  21.700  0.00  0.00    -0.297 N 
ATOM     18  C   UNL     1      17.816   8.070  21.538  0.00  0.00    +0.300 C 
ATOM     32  H   UNL     1      18.234  10.102  21.538  0.00  0.00    +0.151 HD
ATOM     34  H   UNL     1      19.783   8.714  21.702  0.00  0.00    +0.150 HD
BRANCH   9  22
ATOM     22  C   UNL     1      19.805   6.589  21.764  0.00  0.00    +0.068 C 
ATOM     24  C   UNL     1      20.699   6.362  20.551  0.00  0.00    +0.027 C 
ATOM     25  C   UNL     1      20.588   6.437  23.063  0.00  0.00    +0.027 C 
ENDBRANCH   9  22
ENDBRANCH  11   7
BRANCH  12  15
ATOM      2  O   UNL     1      13.551  10.779  20.230  0.00  0.00    -0.274 OA
ATOM      8  N   UNL     1      14.294   9.636  18.343  0.00  0.00    -0.302 N 
ATOM     15  C   UNL     1      14.454  10.319  19.536  0.00  0.00    +0.236 C 
ATOM     33  H   UNL     1      15.119   9.345  17.826  0.00  0.00    +0.150 HD
BRANCH   8  17
ATOM     17  C   UNL     1      13.002   9.374  17.750  0.00  0.00    +0.163 C 
BRANCH  17  21
ATOM      5  O   UNL     1      14.183   9.911  15.695  0.00  0.00    -0.274 OA
ATOM     10  N   UNL     1      11.901   9.657  15.617  0.00  0.00    -0.328 N 
ATOM     21  C   UNL     1      13.117   9.691  16.266  0.00  0.00    +0.231 C 
ATOM     35  H   UNL     1      11.837   9.837  14.620  0.00  0.00    +0.145 HD
ATOM     36  H   UNL     1      11.031   9.451  16.098  0.00  0.00    +0.145 HD
ENDBRANCH  17  21
BRANCH  17  20
ATOM     20  C   UNL     1      12.557   7.922  17.953  0.00  0.00    +0.067 C 
BRANCH  20  23
ATOM     23  C   UNL     1      11.990   7.670  19.328  0.00  0.00    -0.045 A 
ATOM     26  C   UNL     1      12.402   6.556  20.059  0.00  0.00    +0.004 A 
ATOM     27  C   UNL     1      11.056   8.553  19.871  0.00  0.00    +0.004 A 
ATOM     29  C   UNL     1      11.879   6.324  21.332  0.00  0.00    +0.000 A 
ATOM     30  C   UNL     1      10.533   8.320  21.143  0.00  0.00    +0.000 A 
ATOM     31  C   UNL     1      10.945   7.206  21.873  0.00  0.00    +0.000 A 
ENDBRANCH  20  23
ENDBRANCH  17  20
ENDBRANCH   8  17
ENDBRANCH  12  15
BRANCH  16  19
ATOM     19  C   UNL     1      16.920  14.036  19.166  0.00  0.00    +0.164 C 
BRANCH  19   1
ATOM      1  S   UNL     1      15.486  15.116  19.065  0.00  0.00    -0.155 S 
ATOM     28  C   UNL     1      15.605  15.577  17.319  0.00  0.00    +0.085 C 
ENDBRANCH  19   1
ENDBRANCH  16  19
TORSDOF 9
ENDMDL
