MODEL 1
REMARK VINA RESULT:      -7.0      0.000      0.000
REMARK  Name = 71693186
REMARK  15 active torsions:
REMARK  status: ('A' for Active; 'I' for Inactive)
REMARK    1  A    between atoms: O_1  and  C_26
REMARK    2  A    between atoms: O_1  and  C_34
REMARK    3  A    between atoms: O_2  and  C_33
REMARK    4  A    between atoms: O_2  and  C_35
REMARK    5  A    between atoms: N_4  and  C_14
REMARK    6  A    between atoms: N_4  and  C_20
REMARK    7  A    between atoms: C_7  and  C_11
REMARK    8  A    between atoms: C_8  and  C_14
REMARK    9  A    between atoms: C_10  and  C_15
REMARK   10  A    between atoms: C_11  and  C_16
REMARK   11  A    between atoms: C_11  and  C_17
REMARK   12  A    between atoms: C_12  and  C_18
REMARK   13  A    between atoms: C_15  and  C_19
REMARK   14  A    between atoms: C_20  and  C_23
REMARK   15  A    between atoms: C_28  and  C_33
REMARK                            x       y       z     vdW  Elec       q    Type
REMARK                         _______ _______ _______ _____ _____    ______ ____
ROOT
ATOM      7  C   UNL     1      -5.035 -12.405  15.572  0.00  0.00    +0.000 C 
ATOM      8  C   UNL     1      -4.989 -10.895  15.902  0.00  0.00    +0.029 C 
ATOM      9  C   UNL     1      -4.000 -12.751  14.493  0.00  0.00    +0.012 C 
ATOM     10  C   UNL     1      -2.559 -12.353  14.877  0.00  0.00    +0.022 C 
ATOM     12  C   UNL     1      -2.482 -11.014  15.598  0.00  0.00    -0.073 C 
ATOM     13  C   UNL     1      -3.580 -10.374  16.038  0.00  0.00    -0.023 C 
ATOM     18  C   UNL     1      -1.116 -10.444  15.861  0.00  0.00    +0.039 C 
ENDROOT
BRANCH   7  11
ATOM     11  C   UNL     1      -4.830 -13.259  16.830  0.00  0.00    -0.013 C 
ATOM     16  C   UNL     1      -5.194 -14.714  16.551  0.00  0.00    +0.007 C 
ATOM     17  C   UNL     1      -5.659 -12.708  17.988  0.00  0.00    +0.007 C 
ENDBRANCH   7  11
BRANCH   8  14
ATOM     14  C   UNL     1      -5.736 -10.063  14.855  0.00  0.00    +0.089 C 
BRANCH  14   4
ATOM      4  N   UNL     1      -7.026  -9.633  15.367  0.00  0.00    -0.311 NA
ATOM     36  H   UNL     1      -7.707 -10.379  15.217  0.00  0.00    +0.122 HD
BRANCH   4  20
ATOM     20  C   UNL     1      -6.960  -9.363  16.798  0.00  0.00    +0.120 C 
BRANCH  20  23
ATOM     23  C   UNL     1      -8.292  -9.574  17.469  0.00  0.00    +0.008 A 
ATOM     26  C   UNL     1      -9.417  -8.858  17.061  0.00  0.00    +0.124 A 
ATOM     27  C   UNL     1      -8.392 -10.496  18.511  0.00  0.00    +0.008 A 
ATOM     30  C   UNL     1     -10.642  -9.065  17.693  0.00  0.00    +0.046 A 
ATOM     31  C   UNL     1      -9.618 -10.703  19.144  0.00  0.00    +0.001 A 
ATOM     32  C   UNL     1     -10.743  -9.988  18.735  0.00  0.00    +0.004 A 
BRANCH  26   1
ATOM      1  O   UNL     1      -9.337  -7.953  16.046  0.00  0.00    -0.495 OA
ATOM     34  C   UNL     1     -10.327  -6.927  16.013  0.00  0.00    +0.277 C 
ENDBRANCH  26   1
ENDBRANCH  20  23
ENDBRANCH   4  20
ENDBRANCH  14   4
ENDBRANCH   8  14
BRANCH  10  15
ATOM     15  C   UNL     1      -1.684 -12.403  13.619  0.00  0.00    +0.082 C 
BRANCH  15  19
ATOM      5  N   UNL     1      -2.994 -12.350  11.487  0.00  0.00    -0.342 N 
ATOM      6  N   UNL     1      -2.341 -10.377  12.275  0.00  0.00    -0.232 NA
ATOM     19  C   UNL     1      -2.328 -11.676  12.473  0.00  0.00    +0.109 A 
ATOM     21  C   UNL     1      -3.466 -11.424  10.592  0.00  0.00    +0.067 A 
ATOM     22  C   UNL     1      -3.046 -10.201  11.106  0.00  0.00    +0.089 A 
ATOM     24  C   UNL     1      -4.203 -11.548   9.415  0.00  0.00    +0.042 A 
ATOM     25  C   UNL     1      -3.371  -9.020  10.417  0.00  0.00    +0.030 A 
ATOM     28  C   UNL     1      -4.518 -10.362   8.741  0.00  0.00    +0.061 A 
ATOM     29  C   UNL     1      -4.110  -9.120   9.232  0.00  0.00    +0.017 A 
ATOM     37  H   UNL     1      -3.117 -13.351  11.426  0.00  0.00    +0.167 HD
BRANCH  28  33
ATOM      3  O   UNL     1      -5.992  -9.511   7.071  0.00  0.00    -0.245 OA
ATOM     33  C   UNL     1      -5.284 -10.429   7.506  0.00  0.00    +0.339 C 
BRANCH  33   2
ATOM      2  O   UNL     1      -5.126 -11.635   6.880  0.00  0.00    -0.464 OA
ATOM     35  C   UNL     1      -4.728 -11.604   5.506  0.00  0.00    +0.280 C 
ENDBRANCH  33   2
ENDBRANCH  28  33
ENDBRANCH  15  19
ENDBRANCH  10  15
TORSDOF 10
ENDMDL
MODEL 2
REMARK VINA RESULT:      -6.8     23.668     26.318
REMARK  Name = 71693186
REMARK  15 active torsions:
REMARK  status: ('A' for Active; 'I' for Inactive)
REMARK    1  A    between atoms: O_1  and  C_26
REMARK    2  A    between atoms: O_1  and  C_34
REMARK    3  A    between atoms: O_2  and  C_33
REMARK    4  A    between atoms: O_2  and  C_35
REMARK    5  A    between atoms: N_4  and  C_14
REMARK    6  A    between atoms: N_4  and  C_20
REMARK    7  A    between atoms: C_7  and  C_11
REMARK    8  A    between atoms: C_8  and  C_14
REMARK    9  A    between atoms: C_10  and  C_15
REMARK   10  A    between atoms: C_11  and  C_16
REMARK   11  A    between atoms: C_11  and  C_17
REMARK   12  A    between atoms: C_12  and  C_18
REMARK   13  A    between atoms: C_15  and  C_19
REMARK   14  A    between atoms: C_20  and  C_23
REMARK   15  A    between atoms: C_28  and  C_33
REMARK                            x       y       z     vdW  Elec       q    Type
REMARK                         _______ _______ _______ _____ _____    ______ ____
ROOT
ATOM      7  C   UNL     1       8.562   9.566   3.190  0.00  0.00    +0.000 C 
ATOM      8  C   UNL     1       7.961   9.415   4.607  0.00  0.00    +0.029 C 
ATOM      9  C   UNL     1       9.869   8.770   3.073  0.00  0.00    +0.012 C 
ATOM     10  C   UNL     1       9.704   7.271   3.403  0.00  0.00    +0.022 C 
ATOM     12  C   UNL     1       8.768   7.019   4.575  0.00  0.00    -0.073 C 
ATOM     13  C   UNL     1       8.006   7.992   5.106  0.00  0.00    -0.023 C 
ATOM     18  C   UNL     1       8.671   5.611   5.097  0.00  0.00    +0.039 C 
ENDROOT
BRANCH   7  11
ATOM     11  C   UNL     1       7.558   9.146   2.109  0.00  0.00    -0.013 C 
ATOM     16  C   UNL     1       8.137   9.394   0.720  0.00  0.00    +0.007 C 
ATOM     17  C   UNL     1       6.241   9.896   2.286  0.00  0.00    +0.007 C 
ENDBRANCH   7  11
BRANCH   8  14
ATOM     14  C   UNL     1       8.661  10.326   5.620  0.00  0.00    +0.089 C 
BRANCH  14   4
ATOM      4  N   UNL     1       8.904   9.618   6.865  0.00  0.00    -0.311 NA
ATOM     36  H   UNL     1       8.879   8.613   6.685  0.00  0.00    +0.122 HD
BRANCH   4  20
ATOM     20  C   UNL     1      10.217   9.946   7.408  0.00  0.00    +0.120 C 
BRANCH  20  23
ATOM     23  C   UNL     1      11.217   8.849   7.153  0.00  0.00    +0.008 A 
ATOM     26  C   UNL     1      10.931   7.529   7.500  0.00  0.00    +0.124 A 
ATOM     27  C   UNL     1      12.442   9.167   6.566  0.00  0.00    +0.008 A 
ATOM     30  C   UNL     1      11.869   6.526   7.257  0.00  0.00    +0.046 A 
ATOM     31  C   UNL     1      13.381   8.164   6.324  0.00  0.00    +0.001 A 
ATOM     32  C   UNL     1      13.094   6.843   6.669  0.00  0.00    +0.004 A 
BRANCH  26   1
ATOM      1  O   UNL     1       9.741   7.202   8.074  0.00  0.00    -0.495 OA
ATOM     34  C   UNL     1       9.613   5.878   8.589  0.00  0.00    +0.277 C 
ENDBRANCH  26   1
ENDBRANCH  20  23
ENDBRANCH   4  20
ENDBRANCH  14   4
ENDBRANCH   8  14
BRANCH  10  15
ATOM     15  C   UNL     1      11.095   6.659   3.608  0.00  0.00    +0.082 C 
BRANCH  15  19
ATOM      5  N   UNL     1      10.631   5.552   1.413  0.00  0.00    -0.342 N 
ATOM      6  N   UNL     1      12.654   5.206   2.266  0.00  0.00    -0.232 NA
ATOM     19  C   UNL     1      11.495   5.799   2.444  0.00  0.00    +0.109 A 
ATOM     21  C   UNL     1      11.276   4.746   0.511  0.00  0.00    +0.067 A 
ATOM     22  C   UNL     1      12.536   4.544   1.066  0.00  0.00    +0.089 A 
ATOM     24  C   UNL     1      10.877   4.193  -0.706  0.00  0.00    +0.042 A 
ATOM     25  C   UNL     1      13.467   3.746   0.380  0.00  0.00    +0.030 A 
ATOM     28  C   UNL     1      11.816   3.400  -1.376  0.00  0.00    +0.061 A 
ATOM     29  C   UNL     1      13.089   3.179  -0.843  0.00  0.00    +0.017 A 
ATOM     37  H   UNL     1       9.686   5.902   1.328  0.00  0.00    +0.167 HD
BRANCH  28  33
ATOM      3  O   UNL     1      12.247   2.615  -3.585  0.00  0.00    -0.245 OA
ATOM     33  C   UNL     1      11.458   2.796  -2.649  0.00  0.00    +0.339 C 
BRANCH  33   2
ATOM      2  O   UNL     1      10.134   2.449  -2.686  0.00  0.00    -0.464 OA
ATOM     35  C   UNL     1       9.407   2.800  -3.868  0.00  0.00    +0.280 C 
ENDBRANCH  33   2
ENDBRANCH  28  33
ENDBRANCH  15  19
ENDBRANCH  10  15
TORSDOF 10
ENDMDL
MODEL 3
REMARK VINA RESULT:      -6.7     20.274     23.031
REMARK  Name = 71693186
REMARK  15 active torsions:
REMARK  status: ('A' for Active; 'I' for Inactive)
REMARK    1  A    between atoms: O_1  and  C_26
REMARK    2  A    between atoms: O_1  and  C_34
REMARK    3  A    between atoms: O_2  and  C_33
REMARK    4  A    between atoms: O_2  and  C_35
REMARK    5  A    between atoms: N_4  and  C_14
REMARK    6  A    between atoms: N_4  and  C_20
REMARK    7  A    between atoms: C_7  and  C_11
REMARK    8  A    between atoms: C_8  and  C_14
REMARK    9  A    between atoms: C_10  and  C_15
REMARK   10  A    between atoms: C_11  and  C_16
REMARK   11  A    between atoms: C_11  and  C_17
REMARK   12  A    between atoms: C_12  and  C_18
REMARK   13  A    between atoms: C_15  and  C_19
REMARK   14  A    between atoms: C_20  and  C_23
REMARK   15  A    between atoms: C_28  and  C_33
REMARK                            x       y       z     vdW  Elec       q    Type
REMARK                         _______ _______ _______ _____ _____    ______ ____
ROOT
ATOM      7  C   UNL     1     -14.120   7.153  21.574  0.00  0.00    +0.000 C 
ATOM      8  C   UNL     1     -14.959   7.406  20.300  0.00  0.00    +0.029 C 
ATOM      9  C   UNL     1     -15.035   6.861  22.772  0.00  0.00    +0.012 C 
ATOM     10  C   UNL     1     -15.987   5.669  22.539  0.00  0.00    +0.022 C 
ATOM     12  C   UNL     1     -16.552   5.625  21.127  0.00  0.00    -0.073 C 
ATOM     13  C   UNL     1     -16.087   6.417  20.144  0.00  0.00    -0.023 C 
ATOM     18  C   UNL     1     -17.625   4.611  20.839  0.00  0.00    +0.039 C 
ENDROOT
BRANCH   7  11
ATOM     11  C   UNL     1     -13.108   6.019  21.361  0.00  0.00    -0.013 C 
ATOM     16  C   UNL     1     -12.960   5.192  22.634  0.00  0.00    +0.007 C 
ATOM     17  C   UNL     1     -11.759   6.585  20.926  0.00  0.00    +0.007 C 
ENDBRANCH   7  11
BRANCH   8  14
ATOM     14  C   UNL     1     -15.528   8.828  20.270  0.00  0.00    +0.089 C 
BRANCH  14   4
ATOM      4  N   UNL     1     -14.474   9.797  20.023  0.00  0.00    -0.311 NA
ATOM     36  H   UNL     1     -13.643   9.524  20.552  0.00  0.00    +0.122 HD
BRANCH   4  20
ATOM     20  C   UNL     1     -14.116   9.835  18.610  0.00  0.00    +0.120 C 
BRANCH  20  23
ATOM     23  C   UNL     1     -12.651   9.562  18.396  0.00  0.00    +0.008 A 
ATOM     26  C   UNL     1     -11.683  10.455  18.857  0.00  0.00    +0.124 A 
ATOM     27  C   UNL     1     -12.265   8.400  17.727  0.00  0.00    +0.008 A 
ATOM     30  C   UNL     1     -10.331  10.187  18.650  0.00  0.00    +0.046 A 
ATOM     31  C   UNL     1     -10.911   8.132  17.520  0.00  0.00    +0.001 A 
ATOM     32  C   UNL     1      -9.945   9.024  17.982  0.00  0.00    +0.004 A 
BRANCH  26   1
ATOM      1  O   UNL     1     -12.043  11.594  19.511  0.00  0.00    -0.495 OA
ATOM     34  C   UNL     1     -11.756  12.831  18.862  0.00  0.00    +0.277 C 
ENDBRANCH  26   1
ENDBRANCH  20  23
ENDBRANCH   4  20
ENDBRANCH  14   4
ENDBRANCH   8  14
BRANCH  10  15
ATOM     15  C   UNL     1     -17.077   5.694  23.617  0.00  0.00    +0.082 C 
BRANCH  15  19
ATOM      5  N   UNL     1     -16.402   4.736  25.827  0.00  0.00    -0.342 N 
ATOM      6  N   UNL     1     -17.257   3.297  24.365  0.00  0.00    -0.232 NA
ATOM     19  C   UNL     1     -16.926   4.550  24.578  0.00  0.00    +0.109 A 
ATOM     21  C   UNL     1     -16.394   3.521  26.462  0.00  0.00    +0.067 A 
ATOM     22  C   UNL     1     -16.931   2.639  25.529  0.00  0.00    +0.089 A 
ATOM     24  C   UNL     1     -15.975   3.130  27.734  0.00  0.00    +0.042 A 
ATOM     25  C   UNL     1     -17.068   1.282  25.868  0.00  0.00    +0.030 A 
ATOM     28  C   UNL     1     -16.117   1.774  28.054  0.00  0.00    +0.061 A 
ATOM     29  C   UNL     1     -16.653   0.866  27.139  0.00  0.00    +0.017 A 
ATOM     37  H   UNL     1     -16.079   5.611  26.216  0.00  0.00    +0.167 HD
BRANCH  28  33
ATOM      3  O   UNL     1     -15.676   2.008  30.386  0.00  0.00    -0.245 OA
ATOM     33  C   UNL     1     -15.697   1.306  29.366  0.00  0.00    +0.339 C 
BRANCH  33   2
ATOM      2  O   UNL     1     -15.326  -0.010  29.335  0.00  0.00    -0.464 OA
ATOM     35  C   UNL     1     -13.978  -0.312  29.712  0.00  0.00    +0.280 C 
ENDBRANCH  33   2
ENDBRANCH  28  33
ENDBRANCH  15  19
ENDBRANCH  10  15
TORSDOF 10
ENDMDL
MODEL 4
REMARK VINA RESULT:      -6.6     28.338     32.252
REMARK  Name = 71693186
REMARK  15 active torsions:
REMARK  status: ('A' for Active; 'I' for Inactive)
REMARK    1  A    between atoms: O_1  and  C_26
REMARK    2  A    between atoms: O_1  and  C_34
REMARK    3  A    between atoms: O_2  and  C_33
REMARK    4  A    between atoms: O_2  and  C_35
REMARK    5  A    between atoms: N_4  and  C_14
REMARK    6  A    between atoms: N_4  and  C_20
REMARK    7  A    between atoms: C_7  and  C_11
REMARK    8  A    between atoms: C_8  and  C_14
REMARK    9  A    between atoms: C_10  and  C_15
REMARK   10  A    between atoms: C_11  and  C_16
REMARK   11  A    between atoms: C_11  and  C_17
REMARK   12  A    between atoms: C_12  and  C_18
REMARK   13  A    between atoms: C_15  and  C_19
REMARK   14  A    between atoms: C_20  and  C_23
REMARK   15  A    between atoms: C_28  and  C_33
REMARK                            x       y       z     vdW  Elec       q    Type
REMARK                         _______ _______ _______ _____ _____    ______ ____
ROOT
ATOM      7  C   UNL     1      21.958   5.482  22.204  0.00  0.00    +0.000 C 
ATOM      8  C   UNL     1      23.226   6.355  22.342  0.00  0.00    +0.029 C 
ATOM      9  C   UNL     1      20.696   6.327  22.427  0.00  0.00    +0.012 C 
ATOM     10  C   UNL     1      20.593   7.536  21.474  0.00  0.00    +0.022 C 
ATOM     12  C   UNL     1      21.930   8.222  21.234  0.00  0.00    -0.073 C 
ATOM     13  C   UNL     1      23.094   7.684  21.640  0.00  0.00    -0.023 C 
ATOM     18  C   UNL     1      21.920   9.514  20.465  0.00  0.00    +0.039 C 
ENDROOT
BRANCH   7  11
ATOM     11  C   UNL     1      21.914   4.769  20.846  0.00  0.00    -0.013 C 
ATOM     16  C   UNL     1      21.204   3.425  20.973  0.00  0.00    +0.007 C 
ATOM     17  C   UNL     1      23.326   4.584  20.296  0.00  0.00    +0.007 C 
ENDBRANCH   7  11
BRANCH   8  14
ATOM     14  C   UNL     1      23.592   6.595  23.810  0.00  0.00    +0.089 C 
BRANCH  14   4
ATOM      4  N   UNL     1      23.510   5.359  24.568  0.00  0.00    -0.311 NA
ATOM     36  H   UNL     1      22.824   4.745  24.126  0.00  0.00    +0.122 HD
BRANCH   4  20
ATOM     20  C   UNL     1      24.793   4.666  24.582  0.00  0.00    +0.120 C 
BRANCH  20  23
ATOM     23  C   UNL     1      24.822   3.522  23.602  0.00  0.00    +0.008 A 
ATOM     26  C   UNL     1      23.806   2.566  23.591  0.00  0.00    +0.124 A 
ATOM     27  C   UNL     1      25.881   3.425  22.699  0.00  0.00    +0.008 A 
ATOM     30  C   UNL     1      23.849   1.514  22.677  0.00  0.00    +0.046 A 
ATOM     31  C   UNL     1      25.924   2.372  21.785  0.00  0.00    +0.001 A 
ATOM     32  C   UNL     1      24.908   1.417  21.774  0.00  0.00    +0.004 A 
BRANCH  26   1
ATOM      1  O   UNL     1      22.765   2.646  24.466  0.00  0.00    -0.495 OA
ATOM     34  C   UNL     1      22.292   1.421  25.022  0.00  0.00    +0.277 C 
ENDBRANCH  26   1
ENDBRANCH  20  23
ENDBRANCH   4  20
ENDBRANCH  14   4
ENDBRANCH   8  14
BRANCH  10  15
ATOM     15  C   UNL     1      19.520   8.492  22.009  0.00  0.00    +0.082 C 
BRANCH  15  19
ATOM      5  N   UNL     1      17.024   8.653  22.057  0.00  0.00    -0.342 N 
ATOM      6  N   UNL     1      17.881   7.315  20.503  0.00  0.00    -0.232 NA
ATOM     19  C   UNL     1      18.156   8.130  21.497  0.00  0.00    +0.109 A 
ATOM     21  C   UNL     1      15.947   8.141  21.381  0.00  0.00    +0.067 A 
ATOM     22  C   UNL     1      16.508   7.309  20.416  0.00  0.00    +0.089 A 
ATOM     24  C   UNL     1      14.572   8.330  21.524  0.00  0.00    +0.042 A 
ATOM     25  C   UNL     1      15.662   6.615  19.534  0.00  0.00    +0.030 A 
ATOM     28  C   UNL     1      13.744   7.630  20.639  0.00  0.00    +0.061 A 
ATOM     29  C   UNL     1      14.278   6.788  19.660  0.00  0.00    +0.017 A 
ATOM     37  H   UNL     1      16.985   9.303  22.831  0.00  0.00    +0.167 HD
BRANCH  28  33
ATOM      3  O   UNL     1      11.732   8.837  21.062  0.00  0.00    -0.245 OA
ATOM     33  C   UNL     1      12.302   7.786  20.741  0.00  0.00    +0.339 C 
BRANCH  33   2
ATOM      2  O   UNL     1      11.648   6.623  20.437  0.00  0.00    -0.464 OA
ATOM     35  C   UNL     1      11.177   5.839  21.538  0.00  0.00    +0.280 C 
ENDBRANCH  33   2
ENDBRANCH  28  33
ENDBRANCH  15  19
ENDBRANCH  10  15
TORSDOF 10
ENDMDL
MODEL 5
REMARK VINA RESULT:      -6.4      4.539      8.848
REMARK  Name = 71693186
REMARK  15 active torsions:
REMARK  status: ('A' for Active; 'I' for Inactive)
REMARK    1  A    between atoms: O_1  and  C_26
REMARK    2  A    between atoms: O_1  and  C_34
REMARK    3  A    between atoms: O_2  and  C_33
REMARK    4  A    between atoms: O_2  and  C_35
REMARK    5  A    between atoms: N_4  and  C_14
REMARK    6  A    between atoms: N_4  and  C_20
REMARK    7  A    between atoms: C_7  and  C_11
REMARK    8  A    between atoms: C_8  and  C_14
REMARK    9  A    between atoms: C_10  and  C_15
REMARK   10  A    between atoms: C_11  and  C_16
REMARK   11  A    between atoms: C_11  and  C_17
REMARK   12  A    between atoms: C_12  and  C_18
REMARK   13  A    between atoms: C_15  and  C_19
REMARK   14  A    between atoms: C_20  and  C_23
REMARK   15  A    between atoms: C_28  and  C_33
REMARK                            x       y       z     vdW  Elec       q    Type
REMARK                         _______ _______ _______ _____ _____    ______ ____
ROOT
ATOM      7  C   UNL     1     -11.760  -8.714  14.184  0.00  0.00    +0.000 C 
ATOM      8  C   UNL     1     -13.073  -8.313  14.896  0.00  0.00    +0.029 C 
ATOM      9  C   UNL     1     -10.547  -8.381  15.064  0.00  0.00    +0.012 C 
ATOM     10  C   UNL     1     -10.600  -9.046  16.456  0.00  0.00    +0.022 C 
ATOM     12  C   UNL     1     -11.996  -9.051  17.061  0.00  0.00    -0.073 C 
ATOM     13  C   UNL     1     -13.086  -8.709  16.352  0.00  0.00    -0.023 C 
ATOM     18  C   UNL     1     -12.133  -9.512  18.486  0.00  0.00    +0.039 C 
ENDROOT
BRANCH   7  11
ATOM     11  C   UNL     1     -11.767 -10.197  13.789  0.00  0.00    -0.013 C 
ATOM     16  C   UNL     1     -10.506 -10.545  13.005  0.00  0.00    +0.007 C 
ATOM     17  C   UNL     1     -13.016 -10.525  12.976  0.00  0.00    +0.007 C 
ENDBRANCH   7  11
BRANCH   8  14
ATOM     14  C   UNL     1     -13.345  -6.811  14.780  0.00  0.00    +0.089 C 
BRANCH  14   4
ATOM      4  N   UNL     1     -12.889  -6.304  13.497  0.00  0.00    -0.311 NA
ATOM     36  H   UNL     1     -13.603  -6.499  12.792  0.00  0.00    +0.122 HD
BRANCH   4  20
ATOM     20  C   UNL     1     -12.686  -4.861  13.544  0.00  0.00    +0.120 C 
BRANCH  20  23
ATOM     23  C   UNL     1     -13.391  -4.159  12.413  0.00  0.00    +0.008 A 
ATOM     26  C   UNL     1     -12.887  -4.217  11.114  0.00  0.00    +0.124 A 
ATOM     27  C   UNL     1     -14.559  -3.443  12.678  0.00  0.00    +0.008 A 
ATOM     30  C   UNL     1     -13.552  -3.561  10.079  0.00  0.00    +0.046 A 
ATOM     31  C   UNL     1     -15.224  -2.786  11.643  0.00  0.00    +0.001 A 
ATOM     32  C   UNL     1     -14.721  -2.846  10.343  0.00  0.00    +0.004 A 
BRANCH  26   1
ATOM      1  O   UNL     1     -11.748  -4.910  10.839  0.00  0.00    -0.495 OA
ATOM     34  C   UNL     1     -11.638  -5.485   9.538  0.00  0.00    +0.277 C 
ENDBRANCH  26   1
ENDBRANCH  20  23
ENDBRANCH   4  20
ENDBRANCH  14   4
ENDBRANCH   8  14
BRANCH  10  15
ATOM     15  C   UNL     1      -9.560  -8.373  17.360  0.00  0.00    +0.082 C 
BRANCH  15  19
ATOM      5  N   UNL     1      -7.386  -9.029  16.309  0.00  0.00    -0.342 N 
ATOM      6  N   UNL     1      -7.812  -9.925  18.298  0.00  0.00    -0.232 NA
ATOM     19  C   UNL     1      -8.260  -9.125  17.356  0.00  0.00    +0.109 A 
ATOM     21  C   UNL     1      -6.303  -9.821  16.594  0.00  0.00    +0.067 A 
ATOM     22  C   UNL     1      -6.593 -10.369  17.840  0.00  0.00    +0.089 A 
ATOM     24  C   UNL     1      -5.130 -10.095  15.891  0.00  0.00    +0.042 A 
ATOM     25  C   UNL     1      -5.670 -11.245  18.436  0.00  0.00    +0.030 A 
ATOM     28  C   UNL     1      -4.222 -10.970  16.497  0.00  0.00    +0.061 A 
ATOM     29  C   UNL     1      -4.485 -11.536  17.747  0.00  0.00    +0.017 A 
ATOM     37  H   UNL     1      -7.512  -8.475  15.473  0.00  0.00    +0.167 HD
BRANCH  28  33
ATOM      3  O   UNL     1      -2.910 -11.970  14.776  0.00  0.00    -0.245 OA
ATOM     33  C   UNL     1      -2.981 -11.295  15.811  0.00  0.00    +0.339 C 
BRANCH  33   2
ATOM      2  O   UNL     1      -1.897 -10.760  16.452  0.00  0.00    -0.464 OA
ATOM     35  C   UNL     1      -0.914 -10.118  15.634  0.00  0.00    +0.280 C 
ENDBRANCH  33   2
ENDBRANCH  28  33
ENDBRANCH  15  19
ENDBRANCH  10  15
TORSDOF 10
ENDMDL
MODEL 6
REMARK VINA RESULT:      -6.4     23.214     28.287
REMARK  Name = 71693186
REMARK  15 active torsions:
REMARK  status: ('A' for Active; 'I' for Inactive)
REMARK    1  A    between atoms: O_1  and  C_26
REMARK    2  A    between atoms: O_1  and  C_34
REMARK    3  A    between atoms: O_2  and  C_33
REMARK    4  A    between atoms: O_2  and  C_35
REMARK    5  A    between atoms: N_4  and  C_14
REMARK    6  A    between atoms: N_4  and  C_20
REMARK    7  A    between atoms: C_7  and  C_11
REMARK    8  A    between atoms: C_8  and  C_14
REMARK    9  A    between atoms: C_10  and  C_15
REMARK   10  A    between atoms: C_11  and  C_16
REMARK   11  A    between atoms: C_11  and  C_17
REMARK   12  A    between atoms: C_12  and  C_18
REMARK   13  A    between atoms: C_15  and  C_19
REMARK   14  A    between atoms: C_20  and  C_23
REMARK   15  A    between atoms: C_28  and  C_33
REMARK                            x       y       z     vdW  Elec       q    Type
REMARK                         _______ _______ _______ _____ _____    ______ ____
ROOT
ATOM      7  C   UNL     1     -12.658   9.418  33.811  0.00  0.00    +0.000 C 
ATOM      8  C   UNL     1     -13.744  10.400  34.307  0.00  0.00    +0.029 C 
ATOM      9  C   UNL     1     -13.088   7.967  34.068  0.00  0.00    +0.012 C 
ATOM     10  C   UNL     1     -14.441   7.606  33.418  0.00  0.00    +0.022 C 
ATOM     12  C   UNL     1     -15.466   8.727  33.514  0.00  0.00    -0.073 C 
ATOM     13  C   UNL     1     -15.137   9.966  33.924  0.00  0.00    -0.023 C 
ATOM     18  C   UNL     1     -16.871   8.424  33.073  0.00  0.00    +0.039 C 
ENDROOT
BRANCH   7  11
ATOM     11  C   UNL     1     -12.331   9.646  32.330  0.00  0.00    -0.013 C 
ATOM     16  C   UNL     1     -11.101   8.838  31.926  0.00  0.00    +0.007 C 
ATOM     17  C   UNL     1     -12.116  11.131  32.055  0.00  0.00    +0.007 C 
ENDBRANCH   7  11
BRANCH   8  14
ATOM     14  C   UNL     1     -13.678  10.601  35.824  0.00  0.00    +0.089 C 
BRANCH  14   4
ATOM      4  N   UNL     1     -13.027  11.858  36.147  0.00  0.00    -0.311 NA
ATOM     36  H   UNL     1     -13.680  12.445  36.670  0.00  0.00    +0.122 HD
BRANCH   4  20
ATOM     20  C   UNL     1     -11.850  11.641  36.981  0.00  0.00    +0.120 C 
BRANCH  20  23
ATOM     23  C   UNL     1     -10.688  11.113  36.182  0.00  0.00    +0.008 A 
ATOM     26  C   UNL     1     -10.104   9.886  36.498  0.00  0.00    +0.124 A 
ATOM     27  C   UNL     1     -10.195  11.866  35.116  0.00  0.00    +0.008 A 
ATOM     30  C   UNL     1      -9.029   9.412  35.748  0.00  0.00    +0.046 A 
ATOM     31  C   UNL     1      -9.119  11.392  34.366  0.00  0.00    +0.001 A 
ATOM     32  C   UNL     1      -8.536  10.165  34.682  0.00  0.00    +0.004 A 
BRANCH  26   1
ATOM      1  O   UNL     1     -10.573   9.139  37.536  0.00  0.00    -0.495 OA
ATOM     34  C   UNL     1      -9.668   8.880  38.607  0.00  0.00    +0.277 C 
ENDBRANCH  26   1
ENDBRANCH  20  23
ENDBRANCH   4  20
ENDBRANCH  14   4
ENDBRANCH   8  14
BRANCH  10  15
ATOM     15  C   UNL     1     -14.940   6.289  34.025  0.00  0.00    +0.082 C 
BRANCH  15  19
ATOM      5  N   UNL     1     -14.807   3.869  33.402  0.00  0.00    -0.342 N 
ATOM      6  N   UNL     1     -14.997   5.298  31.711  0.00  0.00    -0.232 NA
ATOM     19  C   UNL     1     -14.917   5.176  33.016  0.00  0.00    +0.109 A 
ATOM     21  C   UNL     1     -14.815   3.096  32.270  0.00  0.00    +0.067 A 
ATOM     22  C   UNL     1     -14.934   4.011  31.228  0.00  0.00    +0.089 A 
ATOM     24  C   UNL     1     -14.731   1.718  32.074  0.00  0.00    +0.042 A 
ATOM     25  C   UNL     1     -14.974   3.540  29.904  0.00  0.00    +0.030 A 
ATOM     28  C   UNL     1     -14.771   1.266  30.750  0.00  0.00    +0.061 A 
ATOM     29  C   UNL     1     -14.891   2.160  29.683  0.00  0.00    +0.017 A 
ATOM     37  H   UNL     1     -14.733   3.531  34.352  0.00  0.00    +0.167 HD
BRANCH  28  33
ATOM      3  O   UNL     1     -15.654  -0.933  30.491  0.00  0.00    -0.245 OA
ATOM     33  C   UNL     1     -14.687  -0.161  30.483  0.00  0.00    +0.339 C 
BRANCH  33   2
ATOM      2  O   UNL     1     -13.401  -0.548  30.220  0.00  0.00    -0.464 OA
ATOM     35  C   UNL     1     -13.188  -1.318  29.032  0.00  0.00    +0.280 C 
ENDBRANCH  33   2
ENDBRANCH  28  33
ENDBRANCH  15  19
ENDBRANCH  10  15
TORSDOF 10
ENDMDL
MODEL 7
REMARK VINA RESULT:      -6.4      2.040      8.179
REMARK  Name = 71693186
REMARK  15 active torsions:
REMARK  status: ('A' for Active; 'I' for Inactive)
REMARK    1  A    between atoms: O_1  and  C_26
REMARK    2  A    between atoms: O_1  and  C_34
REMARK    3  A    between atoms: O_2  and  C_33
REMARK    4  A    between atoms: O_2  and  C_35
REMARK    5  A    between atoms: N_4  and  C_14
REMARK    6  A    between atoms: N_4  and  C_20
REMARK    7  A    between atoms: C_7  and  C_11
REMARK    8  A    between atoms: C_8  and  C_14
REMARK    9  A    between atoms: C_10  and  C_15
REMARK   10  A    between atoms: C_11  and  C_16
REMARK   11  A    between atoms: C_11  and  C_17
REMARK   12  A    between atoms: C_12  and  C_18
REMARK   13  A    between atoms: C_15  and  C_19
REMARK   14  A    between atoms: C_20  and  C_23
REMARK   15  A    between atoms: C_28  and  C_33
REMARK                            x       y       z     vdW  Elec       q    Type
REMARK                         _______ _______ _______ _____ _____    ______ ____
ROOT
ATOM      7  C   UNL     1      -4.081 -11.398  12.699  0.00  0.00    +0.000 C 
ATOM      8  C   UNL     1      -2.653 -11.973  12.557  0.00  0.00    +0.029 C 
ATOM      9  C   UNL     1      -4.509 -11.381  14.174  0.00  0.00    +0.012 C 
ATOM     10  C   UNL     1      -3.544 -10.589  15.082  0.00  0.00    +0.022 C 
ATOM     12  C   UNL     1      -2.080 -10.798  14.721  0.00  0.00    -0.073 C 
ATOM     13  C   UNL     1      -1.703 -11.429  13.594  0.00  0.00    -0.023 C 
ATOM     18  C   UNL     1      -1.047 -10.218  15.647  0.00  0.00    +0.039 C 
ENDROOT
BRANCH   7  11
ATOM     11  C   UNL     1      -4.187 -10.000  12.075  0.00  0.00    -0.013 C 
ATOM     16  C   UNL     1      -5.648  -9.583  11.950  0.00  0.00    +0.007 C 
ATOM     17  C   UNL     1      -3.499  -9.973  10.713  0.00  0.00    +0.007 C 
ENDBRANCH   7  11
BRANCH   8  14
ATOM     14  C   UNL     1      -2.648 -13.503  12.623  0.00  0.00    +0.089 C 
BRANCH  14   4
ATOM      4  N   UNL     1      -2.675 -14.075  11.288  0.00  0.00    -0.311 NA
ATOM     36  H   UNL     1      -1.862 -14.683  11.172  0.00  0.00    +0.122 HD
BRANCH   4  20
ATOM     20  C   UNL     1      -3.872 -14.882  11.086  0.00  0.00    +0.120 C 
BRANCH  20  23
ATOM     23  C   UNL     1      -5.078 -14.029  10.787  0.00  0.00    +0.008 A 
ATOM     26  C   UNL     1      -5.081 -13.156   9.699  0.00  0.00    +0.124 A 
ATOM     27  C   UNL     1      -6.198 -14.119  11.614  0.00  0.00    +0.008 A 
ATOM     30  C   UNL     1      -6.206 -12.374   9.438  0.00  0.00    +0.046 A 
ATOM     31  C   UNL     1      -7.323 -13.336  11.352  0.00  0.00    +0.001 A 
ATOM     32  C   UNL     1      -7.326 -12.464  10.264  0.00  0.00    +0.004 A 
BRANCH  26   1
ATOM      1  O   UNL     1      -3.996 -13.055   8.884  0.00  0.00    -0.495 OA
ATOM     34  C   UNL     1      -4.145 -13.528   7.547  0.00  0.00    +0.277 C 
ENDBRANCH  26   1
ENDBRANCH  20  23
ENDBRANCH   4  20
ENDBRANCH  14   4
ENDBRANCH   8  14
BRANCH  10  15
ATOM     15  C   UNL     1      -3.852 -10.934  16.543  0.00  0.00    +0.082 C 
BRANCH  15  19
ATOM      5  N   UNL     1      -5.941  -9.555  16.502  0.00  0.00    -0.342 N 
ATOM      6  N   UNL     1      -6.103 -11.534  17.502  0.00  0.00    -0.232 NA
ATOM     19  C   UNL     1      -5.302 -10.708  16.867  0.00  0.00    +0.109 A 
ATOM     21  C   UNL     1      -7.240  -9.643  16.931  0.00  0.00    +0.067 A 
ATOM     22  C   UNL     1      -7.316 -10.887  17.552  0.00  0.00    +0.089 A 
ATOM     24  C   UNL     1      -8.322  -8.769  16.831  0.00  0.00    +0.042 A 
ATOM     25  C   UNL     1      -8.537 -11.299  18.113  0.00  0.00    +0.030 A 
ATOM     28  C   UNL     1      -9.530  -9.195  17.396  0.00  0.00    +0.061 A 
ATOM     29  C   UNL     1      -9.637 -10.437  18.026  0.00  0.00    +0.017 A 
ATOM     37  H   UNL     1      -5.531  -8.776  16.004  0.00  0.00    +0.167 HD
BRANCH  28  33
ATOM      3  O   UNL     1     -11.823  -8.633  17.726  0.00  0.00    -0.245 OA
ATOM     33  C   UNL     1     -10.693  -8.325  17.324  0.00  0.00    +0.339 C 
BRANCH  33   2
ATOM      2  O   UNL     1     -10.385  -7.119  16.757  0.00  0.00    -0.464 OA
ATOM     35  C   UNL     1     -11.481  -6.324  16.291  0.00  0.00    +0.280 C 
ENDBRANCH  33   2
ENDBRANCH  28  33
ENDBRANCH  15  19
ENDBRANCH  10  15
TORSDOF 10
ENDMDL
MODEL 8
REMARK VINA RESULT:      -6.3     23.093     27.990
REMARK  Name = 71693186
REMARK  15 active torsions:
REMARK  status: ('A' for Active; 'I' for Inactive)
REMARK    1  A    between atoms: O_1  and  C_26
REMARK    2  A    between atoms: O_1  and  C_34
REMARK    3  A    between atoms: O_2  and  C_33
REMARK    4  A    between atoms: O_2  and  C_35
REMARK    5  A    between atoms: N_4  and  C_14
REMARK    6  A    between atoms: N_4  and  C_20
REMARK    7  A    between atoms: C_7  and  C_11
REMARK    8  A    between atoms: C_8  and  C_14
REMARK    9  A    between atoms: C_10  and  C_15
REMARK   10  A    between atoms: C_11  and  C_16
REMARK   11  A    between atoms: C_11  and  C_17
REMARK   12  A    between atoms: C_12  and  C_18
REMARK   13  A    between atoms: C_15  and  C_19
REMARK   14  A    between atoms: C_20  and  C_23
REMARK   15  A    between atoms: C_28  and  C_33
REMARK                            x       y       z     vdW  Elec       q    Type
REMARK                         _______ _______ _______ _____ _____    ______ ____
ROOT
ATOM      7  C   UNL     1     -11.226   9.523  31.621  0.00  0.00    +0.000 C 
ATOM      8  C   UNL     1     -10.834  10.406  32.829  0.00  0.00    +0.029 C 
ATOM      9  C   UNL     1     -11.934   8.247  32.096  0.00  0.00    +0.012 C 
ATOM     10  C   UNL     1     -13.186   8.526  32.955  0.00  0.00    +0.022 C 
ATOM     12  C   UNL     1     -13.002   9.691  33.916  0.00  0.00    -0.073 C 
ATOM     13  C   UNL     1     -11.939  10.512  33.851  0.00  0.00    -0.023 C 
ATOM     18  C   UNL     1     -14.091   9.939  34.924  0.00  0.00    +0.039 C 
ENDROOT
BRANCH   7  11
ATOM     11  C   UNL     1     -12.091  10.297  30.618  0.00  0.00    -0.013 C 
ATOM     16  C   UNL     1     -11.711   9.925  29.189  0.00  0.00    +0.007 C 
ATOM     17  C   UNL     1     -11.947  11.800  30.841  0.00  0.00    +0.007 C 
ENDBRANCH   7  11
BRANCH   8  14
ATOM     14  C   UNL     1      -9.561   9.900  33.513  0.00  0.00    +0.089 C 
BRANCH  14   4
ATOM      4  N   UNL     1      -9.659  10.051  34.955  0.00  0.00    -0.311 NA
ATOM     36  H   UNL     1     -10.490   9.557  35.284  0.00  0.00    +0.122 HD
BRANCH   4  20
ATOM     20  C   UNL     1      -8.498   9.475  35.623  0.00  0.00    +0.120 C 
BRANCH  20  23
ATOM     23  C   UNL     1      -8.786   9.150  37.065  0.00  0.00    +0.008 A 
ATOM     26  C   UNL     1      -9.922   8.422  37.419  0.00  0.00    +0.124 A 
ATOM     27  C   UNL     1      -7.902   9.587  38.052  0.00  0.00    +0.008 A 
ATOM     30  C   UNL     1     -10.174   8.130  38.759  0.00  0.00    +0.046 A 
ATOM     31  C   UNL     1      -8.154   9.295  39.393  0.00  0.00    +0.001 A 
ATOM     32  C   UNL     1      -9.289   8.566  39.746  0.00  0.00    +0.004 A 
BRANCH  26   1
ATOM      1  O   UNL     1     -10.796   7.989  36.468  0.00  0.00    -0.495 OA
ATOM     34  C   UNL     1     -12.082   7.565  36.915  0.00  0.00    +0.277 C 
ENDBRANCH  26   1
ENDBRANCH  20  23
ENDBRANCH   4  20
ENDBRANCH  14   4
ENDBRANCH   8  14
BRANCH  10  15
ATOM     15  C   UNL     1     -13.594   7.228  33.662  0.00  0.00    +0.082 C 
BRANCH  15  19
ATOM      5  N   UNL     1     -13.580   4.955  32.616  0.00  0.00    -0.342 N 
ATOM      6  N   UNL     1     -15.095   6.377  31.828  0.00  0.00    -0.232 NA
ATOM     19  C   UNL     1     -14.115   6.211  32.688  0.00  0.00    +0.109 A 
ATOM     21  C   UNL     1     -14.258   4.266  31.644  0.00  0.00    +0.067 A 
ATOM     22  C   UNL     1     -15.198   5.175  31.167  0.00  0.00    +0.089 A 
ATOM     24  C   UNL     1     -14.134   2.964  31.157  0.00  0.00    +0.042 A 
ATOM     25  C   UNL     1     -16.076   4.779  30.144  0.00  0.00    +0.030 A 
ATOM     28  C   UNL     1     -15.016   2.588  30.137  0.00  0.00    +0.061 A 
ATOM     29  C   UNL     1     -15.970   3.478  29.638  0.00  0.00    +0.017 A 
ATOM     37  H   UNL     1     -12.819   4.596  33.178  0.00  0.00    +0.167 HD
BRANCH  28  33
ATOM      3  O   UNL     1     -15.874   0.651  29.042  0.00  0.00    -0.245 OA
ATOM     33  C   UNL     1     -14.934   1.243  29.588  0.00  0.00    +0.339 C 
BRANCH  33   2
ATOM      2  O   UNL     1     -13.684   0.710  29.748  0.00  0.00    -0.464 OA
ATOM     35  C   UNL     1     -13.566  -0.711  29.628  0.00  0.00    +0.280 C 
ENDBRANCH  33   2
ENDBRANCH  28  33
ENDBRANCH  15  19
ENDBRANCH  10  15
TORSDOF 10
ENDMDL
MODEL 9
REMARK VINA RESULT:      -6.3     28.367     32.224
REMARK  Name = 71693186
REMARK  15 active torsions:
REMARK  status: ('A' for Active; 'I' for Inactive)
REMARK    1  A    between atoms: O_1  and  C_26
REMARK    2  A    between atoms: O_1  and  C_34
REMARK    3  A    between atoms: O_2  and  C_33
REMARK    4  A    between atoms: O_2  and  C_35
REMARK    5  A    between atoms: N_4  and  C_14
REMARK    6  A    between atoms: N_4  and  C_20
REMARK    7  A    between atoms: C_7  and  C_11
REMARK    8  A    between atoms: C_8  and  C_14
REMARK    9  A    between atoms: C_10  and  C_15
REMARK   10  A    between atoms: C_11  and  C_16
REMARK   11  A    between atoms: C_11  and  C_17
REMARK   12  A    between atoms: C_12  and  C_18
REMARK   13  A    between atoms: C_15  and  C_19
REMARK   14  A    between atoms: C_20  and  C_23
REMARK   15  A    between atoms: C_28  and  C_33
REMARK                            x       y       z     vdW  Elec       q    Type
REMARK                         _______ _______ _______ _____ _____    ______ ____
ROOT
ATOM      7  C   UNL     1      21.220   5.512  22.271  0.00  0.00    +0.000 C 
ATOM      8  C   UNL     1      22.600   6.188  22.447  0.00  0.00    +0.029 C 
ATOM      9  C   UNL     1      20.092   6.520  22.528  0.00  0.00    +0.012 C 
ATOM     10  C   UNL     1      20.170   7.769  21.624  0.00  0.00    +0.022 C 
ATOM     12  C   UNL     1      21.593   8.265  21.414  0.00  0.00    -0.073 C 
ATOM     13  C   UNL     1      22.665   7.549  21.799  0.00  0.00    -0.023 C 
ATOM     18  C   UNL     1      21.774   9.575  20.698  0.00  0.00    +0.039 C 
ENDROOT
BRANCH   7  11
ATOM     11  C   UNL     1      21.085   4.868  20.885  0.00  0.00    -0.013 C 
ATOM     16  C   UNL     1      19.642   4.957  20.397  0.00  0.00    +0.007 C 
ATOM     17  C   UNL     1      21.553   3.417  20.925  0.00  0.00    +0.007 C 
ENDBRANCH   7  11
BRANCH   8  14
ATOM     14  C   UNL     1      22.987   6.314  23.923  0.00  0.00    +0.089 C 
BRANCH  14   4
ATOM      4  N   UNL     1      23.665   5.114  24.380  0.00  0.00    -0.311 NA
ATOM     36  H   UNL     1      23.029   4.319  24.288  0.00  0.00    +0.122 HD
BRANCH   4  20
ATOM     20  C   UNL     1      24.848   4.840  23.574  0.00  0.00    +0.120 C 
BRANCH  20  23
ATOM     23  C   UNL     1      24.743   3.520  22.856  0.00  0.00    +0.008 A 
ATOM     26  C   UNL     1      25.228   3.375  21.555  0.00  0.00    +0.124 A 
ATOM     27  C   UNL     1      24.152   2.436  23.505  0.00  0.00    +0.008 A 
ATOM     30  C   UNL     1      25.122   2.146  20.905  0.00  0.00    +0.046 A 
ATOM     31  C   UNL     1      24.046   1.207  22.854  0.00  0.00    +0.001 A 
ATOM     32  C   UNL     1      24.531   1.062  21.555  0.00  0.00    +0.004 A 
BRANCH  26   1
ATOM      1  O   UNL     1      25.807   4.424  20.907  0.00  0.00    -0.495 OA
ATOM     34  C   UNL     1      25.478   4.594  19.530  0.00  0.00    +0.277 C 
ENDBRANCH  26   1
ENDBRANCH  20  23
ENDBRANCH   4  20
ENDBRANCH  14   4
ENDBRANCH   8  14
BRANCH  10  15
ATOM     15  C   UNL     1      19.242   8.847  22.197  0.00  0.00    +0.082 C 
BRANCH  15  19
ATOM      5  N   UNL     1      17.109   7.669  21.629  0.00  0.00    -0.342 N 
ATOM      6  N   UNL     1      17.286   9.762  20.902  0.00  0.00    -0.232 NA
ATOM     19  C   UNL     1      17.881   8.795  21.563  0.00  0.00    +0.109 A 
ATOM     21  C   UNL     1      15.937   7.926  20.966  0.00  0.00    +0.067 A 
ATOM     22  C   UNL     1      16.071   9.238  20.521  0.00  0.00    +0.089 A 
ATOM     24  C   UNL     1      14.804   7.148  20.725  0.00  0.00    +0.042 A 
ATOM     25  C   UNL     1      15.024   9.825  19.791  0.00  0.00    +0.030 A 
ATOM     28  C   UNL     1      13.771   7.748  19.995  0.00  0.00    +0.061 A 
ATOM     29  C   UNL     1      13.878   9.063  19.536  0.00  0.00    +0.017 A 
ATOM     37  H   UNL     1      17.355   6.801  22.085  0.00  0.00    +0.167 HD
BRANCH  28  33
ATOM      3  O   UNL     1      12.085   6.831  18.582  0.00  0.00    -0.245 OA
ATOM     33  C   UNL     1      12.566   6.985  19.712  0.00  0.00    +0.339 C 
BRANCH  33   2
ATOM      2  O   UNL     1      12.027   6.454  20.852  0.00  0.00    -0.464 OA
ATOM     35  C   UNL     1      11.064   7.255  21.545  0.00  0.00    +0.280 C 
ENDBRANCH  33   2
ENDBRANCH  28  33
ENDBRANCH  15  19
ENDBRANCH  10  15
TORSDOF 10
ENDMDL
MODEL 10
REMARK VINA RESULT:      -6.2      2.888      5.021
REMARK  Name = 71693186
REMARK  15 active torsions:
REMARK  status: ('A' for Active; 'I' for Inactive)
REMARK    1  A    between atoms: O_1  and  C_26
REMARK    2  A    between atoms: O_1  and  C_34
REMARK    3  A    between atoms: O_2  and  C_33
REMARK    4  A    between atoms: O_2  and  C_35
REMARK    5  A    between atoms: N_4  and  C_14
REMARK    6  A    between atoms: N_4  and  C_20
REMARK    7  A    between atoms: C_7  and  C_11
REMARK    8  A    between atoms: C_8  and  C_14
REMARK    9  A    between atoms: C_10  and  C_15
REMARK   10  A    between atoms: C_11  and  C_16
REMARK   11  A    between atoms: C_11  and  C_17
REMARK   12  A    between atoms: C_12  and  C_18
REMARK   13  A    between atoms: C_15  and  C_19
REMARK   14  A    between atoms: C_20  and  C_23
REMARK   15  A    between atoms: C_28  and  C_33
REMARK                            x       y       z     vdW  Elec       q    Type
REMARK                         _______ _______ _______ _____ _____    ______ ____
ROOT
ATOM      7  C   UNL     1      -4.087 -12.866  11.956  0.00  0.00    +0.000 C 
ATOM      8  C   UNL     1      -3.100 -12.531  13.098  0.00  0.00    +0.029 C 
ATOM      9  C   UNL     1      -4.647 -11.579  11.334  0.00  0.00    +0.012 C 
ATOM     10  C   UNL     1      -3.552 -10.629  10.804  0.00  0.00    +0.022 C 
ATOM     12  C   UNL     1      -2.330 -10.563  11.709  0.00  0.00    -0.073 C 
ATOM     13  C   UNL     1      -2.153 -11.414  12.736  0.00  0.00    -0.023 C 
ATOM     18  C   UNL     1      -1.279  -9.538  11.384  0.00  0.00    +0.039 C 
ENDROOT
BRANCH   7  11
ATOM     11  C   UNL     1      -3.431 -13.756  10.892  0.00  0.00    -0.013 C 
ATOM     16  C   UNL     1      -4.447 -14.142   9.822  0.00  0.00    +0.007 C 
ATOM     17  C   UNL     1      -2.828 -15.000  11.537  0.00  0.00    +0.007 C 
ENDBRANCH   7  11
BRANCH   8  14
ATOM     14  C   UNL     1      -3.832 -12.170  14.394  0.00  0.00    +0.089 C 
BRANCH  14   4
ATOM      4  N   UNL     1      -2.885 -11.820  15.438  0.00  0.00    -0.311 NA
ATOM     36  H   UNL     1      -1.941 -11.846  15.051  0.00  0.00    +0.122 HD
BRANCH   4  20
ATOM     20  C   UNL     1      -3.130 -10.473  15.939  0.00  0.00    +0.120 C 
BRANCH  20  23
ATOM     23  C   UNL     1      -4.427 -10.385  16.700  0.00  0.00    +0.008 A 
ATOM     26  C   UNL     1      -4.549 -10.953  17.969  0.00  0.00    +0.124 A 
ATOM     27  C   UNL     1      -5.513  -9.728  16.122  0.00  0.00    +0.008 A 
ATOM     30  C   UNL     1      -5.757 -10.862  18.659  0.00  0.00    +0.046 A 
ATOM     31  C   UNL     1      -6.722  -9.638  16.812  0.00  0.00    +0.001 A 
ATOM     32  C   UNL     1      -6.843 -10.205  18.081  0.00  0.00    +0.004 A 
BRANCH  26   1
ATOM      1  O   UNL     1      -3.498 -11.598  18.547  0.00  0.00    -0.495 OA
ATOM     34  C   UNL     1      -3.798 -12.492  19.617  0.00  0.00    +0.277 C 
ENDBRANCH  26   1
ENDBRANCH  20  23
ENDBRANCH   4  20
ENDBRANCH  14   4
ENDBRANCH   8  14
BRANCH  10  15
ATOM     15  C   UNL     1      -4.178  -9.254  10.547  0.00  0.00    +0.082 C 
BRANCH  15  19
ATOM      5  N   UNL     1      -4.770  -9.700   8.157  0.00  0.00    -0.342 N 
ATOM      6  N   UNL     1      -6.429  -8.981   9.450  0.00  0.00    -0.232 NA
ATOM     19  C   UNL     1      -5.154  -9.299   9.406  0.00  0.00    +0.109 A 
ATOM     21  C   UNL     1      -5.869  -9.636   7.340  0.00  0.00    +0.067 A 
ATOM     22  C   UNL     1      -6.891  -9.185   8.170  0.00  0.00    +0.089 A 
ATOM     24  C   UNL     1      -6.051  -9.927   5.988  0.00  0.00    +0.042 A 
ATOM     25  C   UNL     1      -8.179  -9.006   7.636  0.00  0.00    +0.030 A 
ATOM     28  C   UNL     1      -7.340  -9.743   5.473  0.00  0.00    +0.061 A 
ATOM     29  C   UNL     1      -8.386  -9.291   6.281  0.00  0.00    +0.017 A 
ATOM     37  H   UNL     1      -3.842  -9.993   7.882  0.00  0.00    +0.167 HD
BRANCH  28  33
ATOM      3  O   UNL     1      -7.094 -10.977   3.447  0.00  0.00    -0.245 OA
ATOM     33  C   UNL     1      -7.591 -10.028   4.069  0.00  0.00    +0.339 C 
BRANCH  33   2
ATOM      2  O   UNL     1      -8.448  -9.116   3.516  0.00  0.00    -0.464 OA
ATOM     35  C   UNL     1      -7.858  -8.002   2.837  0.00  0.00    +0.280 C 
ENDBRANCH  33   2
ENDBRANCH  28  33
ENDBRANCH  15  19
ENDBRANCH  10  15
TORSDOF 10
ENDMDL
