MODEL 1
REMARK VINA RESULT:      -7.0      0.000      0.000
REMARK  Name = 26743403
REMARK  12 active torsions:
REMARK  status: ('A' for Active; 'I' for Inactive)
REMARK    1  A    between atoms: O_2  and  C_24
REMARK    2  A    between atoms: N_4  and  C_9
REMARK    3  A    between atoms: N_5  and  C_23
REMARK    4  A    between atoms: C_7  and  C_10
REMARK    5  A    between atoms: C_12  and  C_14
REMARK    6  A    between atoms: C_12  and  C_18
REMARK    7  A    between atoms: C_12  and  C_19
REMARK    8  A    between atoms: C_12  and  C_20
REMARK    9  A    between atoms: C_14  and  C_16
REMARK   10  A    between atoms: C_15  and  C_21
REMARK   11  A    between atoms: C_17  and  C_22
REMARK   12  A    between atoms: C_18  and  C_24
REMARK                            x       y       z     vdW  Elec       q    Type
REMARK                         _______ _______ _______ _____ _____    ______ ____
ROOT
ATOM      7  C   UNL     1      20.354   6.708  20.388  0.00  0.00    +0.047 C 
ATOM      8  C   UNL     1      19.236   5.678  20.139  0.00  0.00    +0.039 C 
ATOM      9  C   UNL     1      17.959   6.273  20.756  0.00  0.00    +0.097 C 
ATOM     11  C   UNL     1      19.813   7.487  21.552  0.00  0.00    -0.021 C 
ATOM     13  C   UNL     1      18.511   7.253  21.742  0.00  0.00    -0.009 C 
ENDROOT
BRANCH   7  10
ATOM      5  N   UNL     1      23.336   4.680  21.028  0.00  0.00    -0.236 N 
ATOM      6  N   UNL     1      23.968   5.854  20.855  0.00  0.00    -0.171 NA
ATOM     10  C   UNL     1      21.707   6.077  20.623  0.00  0.00    +0.003 A 
ATOM     15  C   UNL     1      21.980   4.759  20.899  0.00  0.00    +0.046 A 
ATOM     17  C   UNL     1      22.967   6.704  20.608  0.00  0.00    +0.064 A 
ATOM     21  C   UNL     1      21.083   3.596  21.047  0.00  0.00    +0.066 C 
ATOM     22  C   UNL     1      23.267   8.124  20.358  0.00  0.00    +0.068 C 
BRANCH   5  23
ATOM     23  C   UNL     1      24.077   3.531  21.311  0.00  0.00    +0.066 A 
ATOM     25  C   UNL     1      23.532   2.532  22.117  0.00  0.00    +0.028 A 
ATOM     26  C   UNL     1      25.360   3.382  20.785  0.00  0.00    +0.028 A 
ATOM     27  C   UNL     1      24.272   1.383  22.399  0.00  0.00    +0.002 A 
ATOM     28  C   UNL     1      26.099   2.234  21.066  0.00  0.00    +0.002 A 
ATOM     29  C   UNL     1      25.555   1.234  21.873  0.00  0.00    +0.000 A 
ENDBRANCH   5  23
ENDBRANCH   7  10
BRANCH   9   4
ATOM      1  O   UNL     1      15.078   6.217  20.585  0.00  0.00    -0.276 OA
ATOM      4  N   UNL     1      17.125   6.931  19.758  0.00  0.00    -0.309 N 
ATOM     16  C   UNL     1      15.743   6.844  19.763  0.00  0.00    +0.214 C 
ATOM     30  H   UNL     1      17.586   7.452  19.017  0.00  0.00    +0.149 HD
BRANCH  16  14
ATOM     14  C   UNL     1      15.091   7.618  18.629  0.00  0.00    +0.102 C 
BRANCH  14  12
ATOM     12  C   UNL     1      14.248   8.840  19.075  0.00  0.00    -0.017 C 
ATOM     19  C   UNL     1      14.854   9.477  20.344  0.00  0.00    +0.012 C 
ATOM     20  C   UNL     1      14.313   9.897  17.953  0.00  0.00    +0.012 C 
BRANCH  12  18
ATOM     18  C   UNL     1      12.776   8.477  19.380  0.00  0.00    +0.127 C 
BRANCH  18  24
ATOM      3  O   UNL     1      11.891   7.289  17.463  0.00  0.00    -0.251 OA
ATOM     24  C   UNL     1      12.252   7.270  18.633  0.00  0.00    +0.305 C 
BRANCH  24   2
ATOM      2  O   UNL     1      12.211   6.152  19.401  0.00  0.00    -0.481 OA
ATOM     31  H   UNL     1      13.026   5.615  19.309  0.00  0.00    +0.295 HD
ENDBRANCH  24   2
ENDBRANCH  18  24
ENDBRANCH  12  18
ENDBRANCH  14  12
ENDBRANCH  16  14
ENDBRANCH   9   4
TORSDOF 8
ENDMDL
MODEL 2
REMARK VINA RESULT:      -6.8      3.687      9.650
REMARK  Name = 26743403
REMARK  12 active torsions:
REMARK  status: ('A' for Active; 'I' for Inactive)
REMARK    1  A    between atoms: O_2  and  C_24
REMARK    2  A    between atoms: N_4  and  C_9
REMARK    3  A    between atoms: N_5  and  C_23
REMARK    4  A    between atoms: C_7  and  C_10
REMARK    5  A    between atoms: C_12  and  C_14
REMARK    6  A    between atoms: C_12  and  C_18
REMARK    7  A    between atoms: C_12  and  C_19
REMARK    8  A    between atoms: C_12  and  C_20
REMARK    9  A    between atoms: C_14  and  C_16
REMARK   10  A    between atoms: C_15  and  C_21
REMARK   11  A    between atoms: C_17  and  C_22
REMARK   12  A    between atoms: C_18  and  C_24
REMARK                            x       y       z     vdW  Elec       q    Type
REMARK                         _______ _______ _______ _____ _____    ______ ____
ROOT
ATOM      7  C   UNL     1      20.273   6.354  20.783  0.00  0.00    +0.047 C 
ATOM      8  C   UNL     1      21.416   7.356  20.535  0.00  0.00    +0.039 C 
ATOM      9  C   UNL     1      22.623   6.836  21.333  0.00  0.00    +0.097 C 
ATOM     11  C   UNL     1      20.693   5.706  22.070  0.00  0.00    -0.021 C 
ATOM     13  C   UNL     1      21.972   5.964  22.360  0.00  0.00    -0.009 C 
ENDROOT
BRANCH   7  10
ATOM      5  N   UNL     1      16.819   7.533  20.460  0.00  0.00    -0.236 N 
ATOM      6  N   UNL     1      17.207   8.411  21.401  0.00  0.00    -0.171 NA
ATOM     10  C   UNL     1      18.907   7.002  20.818  0.00  0.00    +0.003 A 
ATOM     15  C   UNL     1      17.801   6.666  20.077  0.00  0.00    +0.046 A 
ATOM     17  C   UNL     1      18.484   8.082  21.615  0.00  0.00    +0.064 A 
ATOM     21  C   UNL     1      17.602   5.616  19.059  0.00  0.00    +0.066 C 
ATOM     22  C   UNL     1      19.270   8.837  22.606  0.00  0.00    +0.068 C 
BRANCH   5  23
ATOM     23  C   UNL     1      15.511   7.571  19.974  0.00  0.00    +0.066 A 
ATOM     25  C   UNL     1      14.537   6.743  20.530  0.00  0.00    +0.028 A 
ATOM     26  C   UNL     1      15.180   8.440  18.934  0.00  0.00    +0.028 A 
ATOM     27  C   UNL     1      13.229   6.783  20.045  0.00  0.00    +0.002 A 
ATOM     28  C   UNL     1      13.874   8.479  18.448  0.00  0.00    +0.002 A 
ATOM     29  C   UNL     1      12.897   7.650  19.004  0.00  0.00    +0.000 A 
ENDBRANCH   5  23
ENDBRANCH   7  10
BRANCH   9   4
ATOM      1  O   UNL     1      25.508   6.931  21.394  0.00  0.00    -0.276 OA
ATOM      4  N   UNL     1      23.546   6.077  20.496  0.00  0.00    -0.309 N 
ATOM     16  C   UNL     1      24.921   6.194  20.603  0.00  0.00    +0.214 C 
ATOM     30  H   UNL     1      23.154   5.460  19.790  0.00  0.00    +0.149 HD
BRANCH  16  14
ATOM     14  C   UNL     1      25.675   5.300  19.631  0.00  0.00    +0.102 C 
BRANCH  14  12
ATOM     12  C   UNL     1      25.949   3.864  20.147  0.00  0.00    -0.017 C 
ATOM     19  C   UNL     1      27.389   3.434  19.798  0.00  0.00    +0.012 C 
ATOM     20  C   UNL     1      25.834   3.882  21.686  0.00  0.00    +0.012 C 
BRANCH  12  18
ATOM     18  C   UNL     1      24.980   2.816  19.552  0.00  0.00    +0.127 C 
BRANCH  18  24
ATOM      3  O   UNL     1      24.104   1.236  21.166  0.00  0.00    -0.251 OA
ATOM     24  C   UNL     1      23.959   2.270  20.526  0.00  0.00    +0.305 C 
BRANCH  24   2
ATOM      2  O   UNL     1      22.848   3.044  20.615  0.00  0.00    -0.481 OA
ATOM     31  H   UNL     1      22.849   3.595  21.426  0.00  0.00    +0.295 HD
ENDBRANCH  24   2
ENDBRANCH  18  24
ENDBRANCH  12  18
ENDBRANCH  14  12
ENDBRANCH  16  14
ENDBRANCH   9   4
TORSDOF 8
ENDMDL
MODEL 3
REMARK VINA RESULT:      -6.8     18.431     22.194
REMARK  Name = 26743403
REMARK  12 active torsions:
REMARK  status: ('A' for Active; 'I' for Inactive)
REMARK    1  A    between atoms: O_2  and  C_24
REMARK    2  A    between atoms: N_4  and  C_9
REMARK    3  A    between atoms: N_5  and  C_23
REMARK    4  A    between atoms: C_7  and  C_10
REMARK    5  A    between atoms: C_12  and  C_14
REMARK    6  A    between atoms: C_12  and  C_18
REMARK    7  A    between atoms: C_12  and  C_19
REMARK    8  A    between atoms: C_12  and  C_20
REMARK    9  A    between atoms: C_14  and  C_16
REMARK   10  A    between atoms: C_15  and  C_21
REMARK   11  A    between atoms: C_17  and  C_22
REMARK   12  A    between atoms: C_18  and  C_24
REMARK                            x       y       z     vdW  Elec       q    Type
REMARK                         _______ _______ _______ _____ _____    ______ ____
ROOT
ATOM      7  C   UNL     1      11.068   5.259   0.592  0.00  0.00    +0.047 C 
ATOM      8  C   UNL     1      10.731   4.220   1.677  0.00  0.00    +0.039 C 
ATOM      9  C   UNL     1      11.282   4.784   2.998  0.00  0.00    +0.097 C 
ATOM     11  C   UNL     1      12.214   6.004   1.212  0.00  0.00    -0.021 C 
ATOM     13  C   UNL     1      12.321   5.749   2.520  0.00  0.00    -0.009 C 
ENDROOT
BRANCH   7  10
ATOM      5  N   UNL     1      11.302   4.003  -2.841  0.00  0.00    -0.236 N 
ATOM      6  N   UNL     1      12.448   3.466  -2.391  0.00  0.00    -0.171 NA
ATOM     10  C   UNL     1      11.371   4.640  -0.754  0.00  0.00    +0.003 A 
ATOM     15  C   UNL     1      10.619   4.716  -1.900  0.00  0.00    +0.046 A 
ATOM     17  C   UNL     1      12.486   3.859  -1.114  0.00  0.00    +0.064 A 
ATOM     21  C   UNL     1       9.335   5.394  -2.170  0.00  0.00    +0.066 C 
ATOM     22  C   UNL     1      13.622   3.459  -0.266  0.00  0.00    +0.068 C 
BRANCH   5  23
ATOM     23  C   UNL     1      10.918   3.801  -4.168  0.00  0.00    +0.066 A 
ATOM     25  C   UNL     1      11.458   4.596  -5.179  0.00  0.00    +0.028 A 
ATOM     26  C   UNL     1       9.995   2.803  -4.482  0.00  0.00    +0.028 A 
ATOM     27  C   UNL     1      11.075   4.393  -6.505  0.00  0.00    +0.002 A 
ATOM     28  C   UNL     1       9.612   2.600  -5.807  0.00  0.00    +0.002 A 
ATOM     29  C   UNL     1      10.152   3.395  -6.819  0.00  0.00    +0.000 A 
ENDBRANCH   5  23
ENDBRANCH   7  10
BRANCH   9   4
ATOM      1  O   UNL     1      10.066   3.843   5.440  0.00  0.00    -0.276 OA
ATOM      4  N   UNL     1      10.250   5.453   3.780  0.00  0.00    -0.309 N 
ATOM     16  C   UNL     1       9.729   4.917   4.945  0.00  0.00    +0.214 C 
ATOM     30  H   UNL     1       9.886   6.337   3.434  0.00  0.00    +0.149 HD
BRANCH  16  14
ATOM     14  C   UNL     1       8.670   5.798   5.588  0.00  0.00    +0.102 C 
BRANCH  14  12
ATOM     12  C   UNL     1       9.161   6.619   6.808  0.00  0.00    -0.017 C 
ATOM     19  C   UNL     1      10.667   6.928   6.679  0.00  0.00    +0.012 C 
ATOM     20  C   UNL     1       8.411   7.968   6.805  0.00  0.00    +0.012 C 
BRANCH  12  18
ATOM     18  C   UNL     1       8.937   5.889   8.153  0.00  0.00    +0.127 C 
BRANCH  18  24
ATOM      3  O   UNL     1      11.016   5.548   9.349  0.00  0.00    -0.251 OA
ATOM     24  C   UNL     1      10.122   5.089   8.648  0.00  0.00    +0.305 C 
BRANCH  24   2
ATOM      2  O   UNL     1      10.103   3.800   8.224  0.00  0.00    -0.481 OA
ATOM     31  H   UNL     1       9.224   3.544   7.873  0.00  0.00    +0.295 HD
ENDBRANCH  24   2
ENDBRANCH  18  24
ENDBRANCH  12  18
ENDBRANCH  14  12
ENDBRANCH  16  14
ENDBRANCH   9   4
TORSDOF 8
ENDMDL
MODEL 4
REMARK VINA RESULT:      -6.8     28.359     31.340
REMARK  Name = 26743403
REMARK  12 active torsions:
REMARK  status: ('A' for Active; 'I' for Inactive)
REMARK    1  A    between atoms: O_2  and  C_24
REMARK    2  A    between atoms: N_4  and  C_9
REMARK    3  A    between atoms: N_5  and  C_23
REMARK    4  A    between atoms: C_7  and  C_10
REMARK    5  A    between atoms: C_12  and  C_14
REMARK    6  A    between atoms: C_12  and  C_18
REMARK    7  A    between atoms: C_12  and  C_19
REMARK    8  A    between atoms: C_12  and  C_20
REMARK    9  A    between atoms: C_14  and  C_16
REMARK   10  A    between atoms: C_15  and  C_21
REMARK   11  A    between atoms: C_17  and  C_22
REMARK   12  A    between atoms: C_18  and  C_24
REMARK                            x       y       z     vdW  Elec       q    Type
REMARK                         _______ _______ _______ _____ _____    ______ ____
ROOT
ATOM      7  C   UNL     1      -4.883 -10.708  16.083  0.00  0.00    +0.047 C 
ATOM      8  C   UNL     1      -5.608 -12.037  16.365  0.00  0.00    +0.039 C 
ATOM      9  C   UNL     1      -5.401 -12.330  17.861  0.00  0.00    +0.097 C 
ATOM     11  C   UNL     1      -3.894 -10.641  17.210  0.00  0.00    -0.021 C 
ATOM     13  C   UNL     1      -4.184 -11.518  18.176  0.00  0.00    -0.009 C 
ENDROOT
BRANCH   7  10
ATOM      5  N   UNL     1      -3.949 -10.459  12.549  0.00  0.00    -0.236 N 
ATOM      6  N   UNL     1      -2.713 -10.666  13.033  0.00  0.00    -0.171 NA
ATOM     10  C   UNL     1      -4.273 -10.642  14.701  0.00  0.00    +0.003 A 
ATOM     15  C   UNL     1      -4.920 -10.436  13.508  0.00  0.00    +0.046 A 
ATOM     17  C   UNL     1      -2.917 -10.777  14.349  0.00  0.00    +0.064 A 
ATOM     21  C   UNL     1      -6.350 -10.222  13.208  0.00  0.00    +0.066 C 
ATOM     22  C   UNL     1      -1.770 -11.014  15.243  0.00  0.00    +0.068 C 
BRANCH   5  23
ATOM     23  C   UNL     1      -4.136 -10.292  11.176  0.00  0.00    +0.066 A 
ATOM     25  C   UNL     1      -4.034  -9.022  10.608  0.00  0.00    +0.028 A 
ATOM     26  C   UNL     1      -4.424 -11.396  10.373  0.00  0.00    +0.028 A 
ATOM     27  C   UNL     1      -4.219  -8.856   9.236  0.00  0.00    +0.002 A 
ATOM     28  C   UNL     1      -4.610 -11.229   9.001  0.00  0.00    +0.002 A 
ATOM     29  C   UNL     1      -4.508  -9.959   8.432  0.00  0.00    +0.000 A 
ENDBRANCH   5  23
ENDBRANCH   7  10
BRANCH   9   4
ATOM      1  O   UNL     1      -7.912 -13.720  18.165  0.00  0.00    -0.276 OA
ATOM      4  N   UNL     1      -6.544 -11.914  18.664  0.00  0.00    -0.309 N 
ATOM     16  C   UNL     1      -7.711 -12.655  18.745  0.00  0.00    +0.214 C 
ATOM     30  H   UNL     1      -6.483 -11.029  19.159  0.00  0.00    +0.149 HD
BRANCH  16  14
ATOM     14  C   UNL     1      -8.759 -12.023  19.647  0.00  0.00    +0.102 C 
BRANCH  14  12
ATOM     12  C   UNL     1      -9.951 -11.372  18.901  0.00  0.00    -0.017 C 
ATOM     19  C   UNL     1     -11.048 -12.421  18.621  0.00  0.00    +0.012 C 
ATOM     20  C   UNL     1     -10.564 -10.302  19.830  0.00  0.00    +0.012 C 
BRANCH  12  18
ATOM     18  C   UNL     1      -9.542 -10.735  17.553  0.00  0.00    +0.127 C 
BRANCH  18  24
ATOM      3  O   UNL     1      -9.728  -8.324  17.418  0.00  0.00    -0.251 OA
ATOM     24  C   UNL     1      -9.040  -9.311  17.648  0.00  0.00    +0.305 C 
BRANCH  24   2
ATOM      2  O   UNL     1      -7.735  -9.235  18.009  0.00  0.00    -0.481 OA
ATOM     31  H   UNL     1      -7.499  -8.344  18.343  0.00  0.00    +0.295 HD
ENDBRANCH  24   2
ENDBRANCH  18  24
ENDBRANCH  12  18
ENDBRANCH  14  12
ENDBRANCH  16  14
ENDBRANCH   9   4
TORSDOF 8
ENDMDL
MODEL 5
REMARK VINA RESULT:      -6.8     32.063     35.714
REMARK  Name = 26743403
REMARK  12 active torsions:
REMARK  status: ('A' for Active; 'I' for Inactive)
REMARK    1  A    between atoms: O_2  and  C_24
REMARK    2  A    between atoms: N_4  and  C_9
REMARK    3  A    between atoms: N_5  and  C_23
REMARK    4  A    between atoms: C_7  and  C_10
REMARK    5  A    between atoms: C_12  and  C_14
REMARK    6  A    between atoms: C_12  and  C_18
REMARK    7  A    between atoms: C_12  and  C_19
REMARK    8  A    between atoms: C_12  and  C_20
REMARK    9  A    between atoms: C_14  and  C_16
REMARK   10  A    between atoms: C_15  and  C_21
REMARK   11  A    between atoms: C_17  and  C_22
REMARK   12  A    between atoms: C_18  and  C_24
REMARK                            x       y       z     vdW  Elec       q    Type
REMARK                         _______ _______ _______ _____ _____    ______ ____
ROOT
ATOM      7  C   UNL     1     -15.802   3.947  24.501  0.00  0.00    +0.047 C 
ATOM      8  C   UNL     1     -16.617   4.385  25.732  0.00  0.00    +0.039 C 
ATOM      9  C   UNL     1     -17.570   3.220  26.051  0.00  0.00    +0.097 C 
ATOM     11  C   UNL     1     -16.683   2.895  23.894  0.00  0.00    -0.021 C 
ATOM     13  C   UNL     1     -17.637   2.498  24.742  0.00  0.00    -0.009 C 
ENDROOT
BRANCH   7  10
ATOM      5  N   UNL     1     -14.418   6.513  22.282  0.00  0.00    -0.236 N 
ATOM      6  N   UNL     1     -15.689   6.949  22.267  0.00  0.00    -0.171 NA
ATOM     10  C   UNL     1     -15.455   5.092  23.577  0.00  0.00    +0.003 A 
ATOM     15  C   UNL     1     -14.225   5.403  23.052  0.00  0.00    +0.046 A 
ATOM     17  C   UNL     1     -16.318   6.077  23.060  0.00  0.00    +0.064 A 
ATOM     21  C   UNL     1     -12.911   4.748  23.216  0.00  0.00    +0.066 C 
ATOM     22  C   UNL     1     -17.765   6.226  23.297  0.00  0.00    +0.068 C 
BRANCH   5  23
ATOM     23  C   UNL     1     -13.444   7.192  21.548  0.00  0.00    +0.066 A 
ATOM     25  C   UNL     1     -12.549   6.479  20.750  0.00  0.00    +0.028 A 
ATOM     26  C   UNL     1     -13.368   8.584  21.612  0.00  0.00    +0.028 A 
ATOM     27  C   UNL     1     -11.577   7.159  20.016  0.00  0.00    +0.002 A 
ATOM     28  C   UNL     1     -12.396   9.262  20.878  0.00  0.00    +0.002 A 
ATOM     29  C   UNL     1     -11.500   8.550  20.080  0.00  0.00    +0.000 A 
ENDBRANCH   5  23
ENDBRANCH   7  10
BRANCH   9   4
ATOM      1  O   UNL     1     -18.007   3.498  28.891  0.00  0.00    -0.276 OA
ATOM      4  N   UNL     1     -17.050   2.362  27.109  0.00  0.00    -0.309 N 
ATOM     16  C   UNL     1     -17.319   2.580  28.449  0.00  0.00    +0.214 C 
ATOM     30  H   UNL     1     -16.445   1.589  26.843  0.00  0.00    +0.149 HD
BRANCH  16  14
ATOM     14  C   UNL     1     -16.673   1.551  29.364  0.00  0.00    +0.102 C 
BRANCH  14  12
ATOM     12  C   UNL     1     -15.530   2.100  30.256  0.00  0.00    -0.017 C 
ATOM     19  C   UNL     1     -14.543   2.934  29.412  0.00  0.00    +0.012 C 
ATOM     20  C   UNL     1     -16.157   3.047  31.301  0.00  0.00    +0.012 C 
BRANCH  12  18
ATOM     18  C   UNL     1     -14.729   0.982  30.963  0.00  0.00    +0.127 C 
BRANCH  18  24
ATOM      3  O   UNL     1     -14.164  -0.617  29.234  0.00  0.00    -0.251 OA
ATOM     24  C   UNL     1     -14.766  -0.362  30.270  0.00  0.00    +0.305 C 
BRANCH  24   2
ATOM      2  O   UNL     1     -15.549  -1.266  30.911  0.00  0.00    -0.481 OA
ATOM     31  H   UNL     1     -15.191  -2.176  30.840  0.00  0.00    +0.295 HD
ENDBRANCH  24   2
ENDBRANCH  18  24
ENDBRANCH  12  18
ENDBRANCH  14  12
ENDBRANCH  16  14
ENDBRANCH   9   4
TORSDOF 8
ENDMDL
MODEL 6
REMARK VINA RESULT:      -6.7     31.748     35.102
REMARK  Name = 26743403
REMARK  12 active torsions:
REMARK  status: ('A' for Active; 'I' for Inactive)
REMARK    1  A    between atoms: O_2  and  C_24
REMARK    2  A    between atoms: N_4  and  C_9
REMARK    3  A    between atoms: N_5  and  C_23
REMARK    4  A    between atoms: C_7  and  C_10
REMARK    5  A    between atoms: C_12  and  C_14
REMARK    6  A    between atoms: C_12  and  C_18
REMARK    7  A    between atoms: C_12  and  C_19
REMARK    8  A    between atoms: C_12  and  C_20
REMARK    9  A    between atoms: C_14  and  C_16
REMARK   10  A    between atoms: C_15  and  C_21
REMARK   11  A    between atoms: C_17  and  C_22
REMARK   12  A    between atoms: C_18  and  C_24
REMARK                            x       y       z     vdW  Elec       q    Type
REMARK                         _______ _______ _______ _____ _____    ______ ____
ROOT
ATOM      7  C   UNL     1     -13.730   7.670  32.662  0.00  0.00    +0.047 C 
ATOM      8  C   UNL     1     -13.627   6.374  33.489  0.00  0.00    +0.039 C 
ATOM      9  C   UNL     1     -15.063   5.843  33.633  0.00  0.00    +0.097 C 
ATOM     11  C   UNL     1     -15.160   8.071  32.877  0.00  0.00    -0.021 C 
ATOM     13  C   UNL     1     -15.882   7.073  33.397  0.00  0.00    -0.009 C 
ENDROOT
BRANCH   7  10
ATOM      5  N   UNL     1     -11.187  10.278  33.057  0.00  0.00    -0.236 N 
ATOM      6  N   UNL     1     -11.412  10.066  34.365  0.00  0.00    -0.171 NA
ATOM     10  C   UNL     1     -12.713   8.715  33.061  0.00  0.00    +0.003 A 
ATOM     15  C   UNL     1     -11.942   9.494  32.234  0.00  0.00    +0.046 A 
ATOM     17  C   UNL     1     -12.345   9.110  34.362  0.00  0.00    +0.064 A 
ATOM     21  C   UNL     1     -11.864   9.555  30.760  0.00  0.00    +0.066 C 
ATOM     22  C   UNL     1     -12.863   8.599  35.642  0.00  0.00    +0.068 C 
BRANCH   5  23
ATOM     23  C   UNL     1     -10.250  11.233  32.661  0.00  0.00    +0.066 A 
ATOM     25  C   UNL     1      -8.896  11.033  32.930  0.00  0.00    +0.028 A 
ATOM     26  C   UNL     1     -10.668  12.386  31.996  0.00  0.00    +0.028 A 
ATOM     27  C   UNL     1      -7.959  11.988  32.533  0.00  0.00    +0.002 A 
ATOM     28  C   UNL     1      -9.731  13.340  31.600  0.00  0.00    +0.002 A 
ATOM     29  C   UNL     1      -8.376  13.141  31.869  0.00  0.00    +0.000 A 
ENDBRANCH   5  23
ENDBRANCH   7  10
BRANCH   9   4
ATOM      1  O   UNL     1     -14.526   3.017  33.869  0.00  0.00    -0.276 OA
ATOM      4  N   UNL     1     -15.363   4.806  32.653  0.00  0.00    -0.309 N 
ATOM     16  C   UNL     1     -15.064   3.470  32.862  0.00  0.00    +0.214 C 
ATOM     30  H   UNL     1     -15.785   5.088  31.772  0.00  0.00    +0.149 HD
BRANCH  16  14
ATOM     14  C   UNL     1     -15.476   2.577  31.703  0.00  0.00    +0.102 C 
BRANCH  14  12
ATOM     12  C   UNL     1     -14.428   2.461  30.566  0.00  0.00    -0.017 C 
ATOM     19  C   UNL     1     -14.951   3.138  29.282  0.00  0.00    +0.012 C 
ATOM     20  C   UNL     1     -13.163   3.226  31.008  0.00  0.00    +0.012 C 
BRANCH  12  18
ATOM     18  C   UNL     1     -14.072   0.995  30.223  0.00  0.00    +0.127 C 
BRANCH  18  24
ATOM      3  O   UNL     1     -16.226  -0.020  29.777  0.00  0.00    -0.251 OA
ATOM     24  C   UNL     1     -15.193   0.002  30.436  0.00  0.00    +0.305 C 
BRANCH  24   2
ATOM      2  O   UNL     1     -14.944  -0.866  31.448  0.00  0.00    -0.481 OA
ATOM     31  H   UNL     1     -14.550  -1.704  31.123  0.00  0.00    +0.295 HD
ENDBRANCH  24   2
ENDBRANCH  18  24
ENDBRANCH  12  18
ENDBRANCH  14  12
ENDBRANCH  16  14
ENDBRANCH   9   4
TORSDOF 8
ENDMDL
MODEL 7
REMARK VINA RESULT:      -6.7     29.475     32.072
REMARK  Name = 26743403
REMARK  12 active torsions:
REMARK  status: ('A' for Active; 'I' for Inactive)
REMARK    1  A    between atoms: O_2  and  C_24
REMARK    2  A    between atoms: N_4  and  C_9
REMARK    3  A    between atoms: N_5  and  C_23
REMARK    4  A    between atoms: C_7  and  C_10
REMARK    5  A    between atoms: C_12  and  C_14
REMARK    6  A    between atoms: C_12  and  C_18
REMARK    7  A    between atoms: C_12  and  C_19
REMARK    8  A    between atoms: C_12  and  C_20
REMARK    9  A    between atoms: C_14  and  C_16
REMARK   10  A    between atoms: C_15  and  C_21
REMARK   11  A    between atoms: C_17  and  C_22
REMARK   12  A    between atoms: C_18  and  C_24
REMARK                            x       y       z     vdW  Elec       q    Type
REMARK                         _______ _______ _______ _____ _____    ______ ____
ROOT
ATOM      7  C   UNL     1      -5.195 -10.328  12.197  0.00  0.00    +0.047 C 
ATOM      8  C   UNL     1      -5.986  -9.682  13.350  0.00  0.00    +0.039 C 
ATOM      9  C   UNL     1      -6.391 -10.832  14.289  0.00  0.00    +0.097 C 
ATOM     11  C   UNL     1      -5.670 -11.751  12.244  0.00  0.00    -0.021 C 
ATOM     13  C   UNL     1      -6.312 -12.022  13.385  0.00  0.00    -0.009 C 
ENDROOT
BRANCH   7  10
ATOM      5  N   UNL     1      -6.267  -8.725   9.082  0.00  0.00    -0.236 N 
ATOM      6  N   UNL     1      -4.944  -8.579   8.897  0.00  0.00    -0.171 NA
ATOM     10  C   UNL     1      -5.403  -9.636  10.869  0.00  0.00    +0.003 A 
ATOM     15  C   UNL     1      -6.595  -9.352  10.249  0.00  0.00    +0.046 A 
ATOM     17  C   UNL     1      -4.421  -9.137   9.992  0.00  0.00    +0.064 A 
ATOM     21  C   UNL     1      -7.987  -9.619  10.663  0.00  0.00    +0.066 C 
ATOM     22  C   UNL     1      -2.957  -9.172  10.160  0.00  0.00    +0.068 C 
BRANCH   5  23
ATOM     23  C   UNL     1      -7.157  -8.248   8.119  0.00  0.00    +0.066 A 
ATOM     25  C   UNL     1      -7.392  -8.988   6.960  0.00  0.00    +0.028 A 
ATOM     26  C   UNL     1      -7.813  -7.032   8.317  0.00  0.00    +0.028 A 
ATOM     27  C   UNL     1      -8.283  -8.512   5.998  0.00  0.00    +0.002 A 
ATOM     28  C   UNL     1      -8.703  -6.557   7.355  0.00  0.00    +0.002 A 
ATOM     29  C   UNL     1      -8.939  -7.297   6.195  0.00  0.00    +0.000 A 
ENDBRANCH   5  23
ENDBRANCH   7  10
BRANCH   9   4
ATOM      1  O   UNL     1      -6.566  -9.467  16.826  0.00  0.00    -0.276 OA
ATOM      4  N   UNL     1      -5.480 -10.959  15.421  0.00  0.00    -0.309 N 
ATOM     16  C   UNL     1      -5.652 -10.257  16.602  0.00  0.00    +0.214 C 
ATOM     30  H   UNL     1      -4.675 -11.570  15.320  0.00  0.00    +0.149 HD
BRANCH  16  14
ATOM     14  C   UNL     1      -4.581 -10.559  17.638  0.00  0.00    +0.102 C 
BRANCH  14  12
ATOM     12  C   UNL     1      -4.996 -11.588  18.721  0.00  0.00    -0.017 C 
ATOM     19  C   UNL     1      -5.771 -12.759  18.081  0.00  0.00    +0.012 C 
ATOM     20  C   UNL     1      -3.707 -12.172  19.338  0.00  0.00    +0.012 C 
BRANCH  12  18
ATOM     18  C   UNL     1      -5.885 -10.973  19.826  0.00  0.00    +0.127 C 
BRANCH  18  24
ATOM      3  O   UNL     1      -7.880 -12.318  20.103  0.00  0.00    -0.251 OA
ATOM     24  C   UNL     1      -7.360 -11.284  19.702  0.00  0.00    +0.305 C 
BRANCH  24   2
ATOM      2  O   UNL     1      -8.058 -10.297  19.087  0.00  0.00    -0.481 OA
ATOM     31  H   UNL     1      -7.565  -9.449  19.082  0.00  0.00    +0.295 HD
ENDBRANCH  24   2
ENDBRANCH  18  24
ENDBRANCH  12  18
ENDBRANCH  14  12
ENDBRANCH  16  14
ENDBRANCH   9   4
TORSDOF 8
ENDMDL
MODEL 8
REMARK VINA RESULT:      -6.6     27.095     32.115
REMARK  Name = 26743403
REMARK  12 active torsions:
REMARK  status: ('A' for Active; 'I' for Inactive)
REMARK    1  A    between atoms: O_2  and  C_24
REMARK    2  A    between atoms: N_4  and  C_9
REMARK    3  A    between atoms: N_5  and  C_23
REMARK    4  A    between atoms: C_7  and  C_10
REMARK    5  A    between atoms: C_12  and  C_14
REMARK    6  A    between atoms: C_12  and  C_18
REMARK    7  A    between atoms: C_12  and  C_19
REMARK    8  A    between atoms: C_12  and  C_20
REMARK    9  A    between atoms: C_14  and  C_16
REMARK   10  A    between atoms: C_15  and  C_21
REMARK   11  A    between atoms: C_17  and  C_22
REMARK   12  A    between atoms: C_18  and  C_24
REMARK                            x       y       z     vdW  Elec       q    Type
REMARK                         _______ _______ _______ _____ _____    ______ ____
ROOT
ATOM      7  C   UNL     1       2.548   3.374  -5.629  0.00  0.00    +0.047 C 
ATOM      8  C   UNL     1       3.521   4.159  -6.528  0.00  0.00    +0.039 C 
ATOM      9  C   UNL     1       4.035   5.335  -5.681  0.00  0.00    +0.097 C 
ATOM     11  C   UNL     1       2.153   4.405  -4.613  0.00  0.00    -0.021 C 
ATOM     13  C   UNL     1       2.968   5.465  -4.639  0.00  0.00    -0.009 C 
ENDROOT
BRANCH   7  10
ATOM      5  N   UNL     1      -0.260   1.494  -7.041  0.00  0.00    -0.236 N 
ATOM      6  N   UNL     1      -0.188   2.430  -8.002  0.00  0.00    -0.171 NA
ATOM     10  C   UNL     1       1.394   2.761  -6.389  0.00  0.00    +0.003 A 
ATOM     15  C   UNL     1       0.666   1.647  -6.051  0.00  0.00    +0.046 A 
ATOM     17  C   UNL     1       0.825   3.202  -7.599  0.00  0.00    +0.064 A 
ATOM     21  C   UNL     1       0.772   0.737  -4.893  0.00  0.00    +0.066 C 
ATOM     22  C   UNL     1       1.219   4.366  -8.411  0.00  0.00    +0.068 C 
BRANCH   5  23
ATOM     23  C   UNL     1      -1.227   0.490  -7.125  0.00  0.00    +0.066 A 
ATOM     25  C   UNL     1      -2.369   0.685  -7.900  0.00  0.00    +0.028 A 
ATOM     26  C   UNL     1      -1.048  -0.708  -6.432  0.00  0.00    +0.028 A 
ATOM     27  C   UNL     1      -3.334  -0.319  -7.984  0.00  0.00    +0.002 A 
ATOM     28  C   UNL     1      -2.013  -1.711  -6.516  0.00  0.00    +0.002 A 
ATOM     29  C   UNL     1      -3.156  -1.517  -7.292  0.00  0.00    +0.000 A 
ENDBRANCH   5  23
ENDBRANCH   7  10
BRANCH   9   4
ATOM      1  O   UNL     1       6.080   7.246  -4.974  0.00  0.00    -0.276 OA
ATOM      4  N   UNL     1       5.334   5.052  -5.082  0.00  0.00    -0.309 N 
ATOM     16  C   UNL     1       6.250   6.044  -4.779  0.00  0.00    +0.214 C 
ATOM     30  H   UNL     1       5.578   4.081  -4.909  0.00  0.00    +0.149 HD
BRANCH  16  14
ATOM     14  C   UNL     1       7.529   5.507  -4.157  0.00  0.00    +0.102 C 
BRANCH  14  12
ATOM     12  C   UNL     1       8.770   5.548  -5.084  0.00  0.00    -0.017 C 
ATOM     19  C   UNL     1       8.335   5.550  -6.565  0.00  0.00    +0.012 C 
ATOM     20  C   UNL     1       9.516   6.873  -4.821  0.00  0.00    +0.012 C 
BRANCH  12  18
ATOM     18  C   UNL     1       9.723   4.348  -4.867  0.00  0.00    +0.127 C 
BRANCH  18  24
ATOM      3  O   UNL     1       9.907   3.902  -2.494  0.00  0.00    -0.251 OA
ATOM     24  C   UNL     1       9.483   3.569  -3.594  0.00  0.00    +0.305 C 
BRANCH  24   2
ATOM      2  O   UNL     1       8.750   2.444  -3.793  0.00  0.00    -0.481 OA
ATOM     31  H   UNL     1       8.813   2.126  -4.718  0.00  0.00    +0.295 HD
ENDBRANCH  24   2
ENDBRANCH  18  24
ENDBRANCH  12  18
ENDBRANCH  14  12
ENDBRANCH  16  14
ENDBRANCH   9   4
TORSDOF 8
ENDMDL
MODEL 9
REMARK VINA RESULT:      -6.6     29.319     32.047
REMARK  Name = 26743403
REMARK  12 active torsions:
REMARK  status: ('A' for Active; 'I' for Inactive)
REMARK    1  A    between atoms: O_2  and  C_24
REMARK    2  A    between atoms: N_4  and  C_9
REMARK    3  A    between atoms: N_5  and  C_23
REMARK    4  A    between atoms: C_7  and  C_10
REMARK    5  A    between atoms: C_12  and  C_14
REMARK    6  A    between atoms: C_12  and  C_18
REMARK    7  A    between atoms: C_12  and  C_19
REMARK    8  A    between atoms: C_12  and  C_20
REMARK    9  A    between atoms: C_14  and  C_16
REMARK   10  A    between atoms: C_15  and  C_21
REMARK   11  A    between atoms: C_17  and  C_22
REMARK   12  A    between atoms: C_18  and  C_24
REMARK                            x       y       z     vdW  Elec       q    Type
REMARK                         _______ _______ _______ _____ _____    ______ ____
ROOT
ATOM      7  C   UNL     1      -5.045 -10.511  12.118  0.00  0.00    +0.047 C 
ATOM      8  C   UNL     1      -5.770  -9.588  13.116  0.00  0.00    +0.039 C 
ATOM      9  C   UNL     1      -6.382 -10.509  14.186  0.00  0.00    +0.097 C 
ATOM     11  C   UNL     1      -5.735 -11.825  12.342  0.00  0.00    -0.021 C 
ATOM     13  C   UNL     1      -6.453 -11.822  13.470  0.00  0.00    -0.009 C 
ENDROOT
BRANCH   7  10
ATOM      5  N   UNL     1      -5.722  -9.452   8.678  0.00  0.00    -0.236 N 
ATOM      6  N   UNL     1      -4.428  -9.091   8.710  0.00  0.00    -0.171 NA
ATOM     10  C   UNL     1      -5.094 -10.006  10.694  0.00  0.00    +0.003 A 
ATOM     15  C   UNL     1      -6.171 -10.005   9.842  0.00  0.00    +0.046 A 
ATOM     17  C   UNL     1      -4.049  -9.433   9.945  0.00  0.00    +0.064 A 
ATOM     21  C   UNL     1      -7.557 -10.473  10.036  0.00  0.00    +0.066 C 
ATOM     22  C   UNL     1      -2.660  -9.187  10.371  0.00  0.00    +0.068 C 
BRANCH   5  23
ATOM     23  C   UNL     1      -6.470  -9.243   7.518  0.00  0.00    +0.066 A 
ATOM     25  C   UNL     1      -6.246 -10.036   6.392  0.00  0.00    +0.028 A 
ATOM     26  C   UNL     1      -7.442  -8.242   7.485  0.00  0.00    +0.028 A 
ATOM     27  C   UNL     1      -6.994  -9.827   5.233  0.00  0.00    +0.002 A 
ATOM     28  C   UNL     1      -8.189  -8.034   6.327  0.00  0.00    +0.002 A 
ATOM     29  C   UNL     1      -7.966  -8.827   5.200  0.00  0.00    +0.000 A 
ENDBRANCH   5  23
ENDBRANCH   7  10
BRANCH   9   4
ATOM      1  O   UNL     1      -7.107  -9.767  16.879  0.00  0.00    -0.276 OA
ATOM      4  N   UNL     1      -5.545 -10.595  15.377  0.00  0.00    -0.309 N 
ATOM     16  C   UNL     1      -5.988 -10.212  16.631  0.00  0.00    +0.214 C 
ATOM     30  H   UNL     1      -4.590 -10.925  15.267  0.00  0.00    +0.149 HD
BRANCH  16  14
ATOM     14  C   UNL     1      -4.941 -10.398  17.718  0.00  0.00    +0.102 C 
BRANCH  14  12
ATOM     12  C   UNL     1      -5.202 -11.589  18.675  0.00  0.00    -0.017 C 
ATOM     19  C   UNL     1      -3.884 -12.047  19.335  0.00  0.00    +0.012 C 
ATOM     20  C   UNL     1      -6.134 -11.097  19.802  0.00  0.00    +0.012 C 
BRANCH  12  18
ATOM     18  C   UNL     1      -5.828 -12.810  17.961  0.00  0.00    +0.127 C 
BRANCH  18  24
ATOM      3  O   UNL     1      -4.488 -13.324  16.010  0.00  0.00    -0.251 OA
ATOM     24  C   UNL     1      -4.861 -13.629  17.136  0.00  0.00    +0.305 C 
BRANCH  24   2
ATOM      2  O   UNL     1      -4.448 -14.755  17.772  0.00  0.00    -0.481 OA
ATOM     31  H   UNL     1      -3.995 -15.375  17.161  0.00  0.00    +0.295 HD
ENDBRANCH  24   2
ENDBRANCH  18  24
ENDBRANCH  12  18
ENDBRANCH  14  12
ENDBRANCH  16  14
ENDBRANCH   9   4
TORSDOF 8
ENDMDL
MODEL 10
REMARK VINA RESULT:      -6.6     30.744     32.678
REMARK  Name = 26743403
REMARK  12 active torsions:
REMARK  status: ('A' for Active; 'I' for Inactive)
REMARK    1  A    between atoms: O_2  and  C_24
REMARK    2  A    between atoms: N_4  and  C_9
REMARK    3  A    between atoms: N_5  and  C_23
REMARK    4  A    between atoms: C_7  and  C_10
REMARK    5  A    between atoms: C_12  and  C_14
REMARK    6  A    between atoms: C_12  and  C_18
REMARK    7  A    between atoms: C_12  and  C_19
REMARK    8  A    between atoms: C_12  and  C_20
REMARK    9  A    between atoms: C_14  and  C_16
REMARK   10  A    between atoms: C_15  and  C_21
REMARK   11  A    between atoms: C_17  and  C_22
REMARK   12  A    between atoms: C_18  and  C_24
REMARK                            x       y       z     vdW  Elec       q    Type
REMARK                         _______ _______ _______ _____ _____    ______ ____
ROOT
ATOM      7  C   UNL     1     -12.568  10.470  24.726  0.00  0.00    +0.047 C 
ATOM      8  C   UNL     1     -13.943  10.158  24.104  0.00  0.00    +0.039 C 
ATOM      9  C   UNL     1     -13.874  10.642  22.646  0.00  0.00    +0.097 C 
ATOM     11  C   UNL     1     -12.054  11.557  23.828  0.00  0.00    -0.021 C 
ATOM     13  C   UNL     1     -12.761  11.641  22.696  0.00  0.00    -0.009 C 
ENDROOT
BRANCH   7  10
ATOM      5  N   UNL     1     -12.257  11.075  28.325  0.00  0.00    -0.236 N 
ATOM      6  N   UNL     1     -13.402  11.754  28.142  0.00  0.00    -0.171 NA
ATOM     10  C   UNL     1     -12.645  10.843  26.189  0.00  0.00    +0.003 A 
ATOM     15  C   UNL     1     -11.762  10.511  27.186  0.00  0.00    +0.046 A 
ATOM     17  C   UNL     1     -13.635  11.609  26.834  0.00  0.00    +0.064 A 
ATOM     21  C   UNL     1     -10.515   9.720  27.149  0.00  0.00    +0.066 C 
ATOM     22  C   UNL     1     -14.830  12.229  26.238  0.00  0.00    +0.068 C 
BRANCH   5  23
ATOM     23  C   UNL     1     -11.691  11.004  29.599  0.00  0.00    +0.066 A 
ATOM     25  C   UNL     1     -10.904  12.053  30.072  0.00  0.00    +0.028 A 
ATOM     26  C   UNL     1     -11.914   9.882  30.399  0.00  0.00    +0.028 A 
ATOM     27  C   UNL     1     -10.340  11.982  31.346  0.00  0.00    +0.002 A 
ATOM     28  C   UNL     1     -11.350   9.811  31.672  0.00  0.00    +0.002 A 
ATOM     29  C   UNL     1     -10.562  10.861  32.146  0.00  0.00    +0.000 A 
ENDBRANCH   5  23
ENDBRANCH   7  10
BRANCH   9   4
ATOM      1  O   UNL     1     -13.923  10.745  19.762  0.00  0.00    -0.276 OA
ATOM      4  N   UNL     1     -13.575   9.554  21.722  0.00  0.00    -0.309 N 
ATOM     16  C   UNL     1     -13.626   9.706  20.347  0.00  0.00    +0.214 C 
ATOM     30  H   UNL     1     -13.345   8.645  22.113  0.00  0.00    +0.149 HD
BRANCH  16  14
ATOM     14  C   UNL     1     -13.268   8.436  19.592  0.00  0.00    +0.102 C 
BRANCH  14  12
ATOM     12  C   UNL     1     -11.761   8.074  19.606  0.00  0.00    -0.017 C 
ATOM     19  C   UNL     1     -11.438   7.160  20.807  0.00  0.00    +0.012 C 
ATOM     20  C   UNL     1     -11.452   7.274  18.323  0.00  0.00    +0.012 C 
BRANCH  12  18
ATOM     18  C   UNL     1     -10.844   9.317  19.692  0.00  0.00    +0.127 C 
BRANCH  18  24
ATOM      3  O   UNL     1     -11.219  10.702  17.741  0.00  0.00    -0.251 OA
ATOM     24  C   UNL     1     -10.489   9.938  18.359  0.00  0.00    +0.305 C 
BRANCH  24   2
ATOM      2  O   UNL     1      -9.269   9.553  17.906  0.00  0.00    -0.481 OA
ATOM     31  H   UNL     1      -8.734   9.130  18.611  0.00  0.00    +0.295 HD
ENDBRANCH  24   2
ENDBRANCH  18  24
ENDBRANCH  12  18
ENDBRANCH  14  12
ENDBRANCH  16  14
ENDBRANCH   9   4
TORSDOF 8
ENDMDL
