MODEL 1
REMARK VINA RESULT:      -7.6      0.000      0.000
REMARK  Name = 11879615
REMARK  9 active torsions:
REMARK  status: ('A' for Active; 'I' for Inactive)
REMARK    1  A    between atoms: S_1  and  N_9
REMARK    2  A    between atoms: S_1  and  C_23
REMARK    3  A    between atoms: O_4  and  C_22
REMARK    4  A    between atoms: O_4  and  C_26
REMARK    5  A    between atoms: N_9  and  C_18
REMARK    6  A    between atoms: N_10  and  C_19
REMARK    7  A    between atoms: N_14  and  C_31
REMARK    8  A    between atoms: N_15  and  C_30
REMARK    9  A    between atoms: C_39  and  C_40
REMARK                            x       y       z     vdW  Elec       q    Type
REMARK                         _______ _______ _______ _____ _____    ______ ____
ROOT
ATOM      2  O   UNL     1      10.399   8.437  20.769  0.00  0.00    -0.370 OA
ATOM      3  O   UNL     1      13.252   7.807  21.966  0.00  0.00    -0.370 OA
ATOM     16  C   UNL     1      12.614   8.985  21.450  0.00  0.00    +0.170 C 
ATOM     17  C   UNL     1      11.746   8.564  20.279  0.00  0.00    +0.175 C 
ATOM     18  C   UNL     1      11.638   9.534  22.463  0.00  0.00    +0.133 C 
ATOM     19  C   UNL     1      12.277   7.202  19.874  0.00  0.00    +0.171 C 
ATOM     20  C   UNL     1      10.371   8.758  22.166  0.00  0.00    +0.183 C 
ATOM     21  C   UNL     1      12.888   6.674  21.167  0.00  0.00    +0.190 C 
ENDROOT
BRANCH  19  10
ATOM     10  N   UNL     1      13.200   7.273  18.738  0.00  0.00    -0.187 N 
ATOM     11  N   UNL     1      12.786   7.694  17.534  0.00  0.00    -0.041 NA
ATOM     12  N   UNL     1      14.954   7.176  17.467  0.00  0.00    -0.071 NA
ATOM     13  N   UNL     1      13.864   7.632  16.760  0.00  0.00    -0.020 NA
ATOM     22  C   UNL     1      14.521   6.962  18.687  0.00  0.00    +0.342 A 
BRANCH  22   4
ATOM      4  O   UNL     1      15.229   6.516  19.709  0.00  0.00    -0.423 OA
BRANCH   4  26
ATOM     26  C   UNL     1      16.318   7.206  20.222  0.00  0.00    +0.134 A 
ATOM     29  C   UNL     1      17.498   6.526  20.521  0.00  0.00    +0.069 A 
ATOM     31  C   UNL     1      18.592   7.219  21.039  0.00  0.00    +0.033 A 
ATOM     32  C   UNL     1      16.232   8.581  20.439  0.00  0.00    +0.046 A 
ATOM     37  C   UNL     1      18.506   8.595  21.256  0.00  0.00    +0.023 A 
ATOM     38  C   UNL     1      17.326   9.276  20.956  0.00  0.00    +0.005 A 
BRANCH  31  14
ATOM      7  O   UNL     1      21.994   4.948  22.010  0.00  0.00    -0.377 OA
ATOM     14  N   UNL     1      19.775   6.538  21.338  0.00  0.00    -0.325 N 
ATOM     33  C   UNL     1      20.134   5.376  20.513  0.00  0.00    +0.133 C 
ATOM     34  C   UNL     1      20.267   6.498  22.720  0.00  0.00    +0.133 C 
ATOM     35  C   UNL     1      21.628   5.097  20.639  0.00  0.00    +0.178 C 
ATOM     36  C   UNL     1      21.754   6.157  22.728  0.00  0.00    +0.178 C 
ENDBRANCH  31  14
ENDBRANCH   4  26
ENDBRANCH  22   4
ENDBRANCH  19  10
BRANCH  18   9
ATOM      9  N   UNL     1      11.407  10.977  22.211  0.00  0.00    -0.182 NA
ATOM     41  H   UNL     1      10.658  11.233  21.558  0.00  0.00    +0.148 HD
BRANCH   9   1
ATOM      1  S   UNL     1      12.589  12.110  22.660  0.00  0.00    +0.059 S 
ATOM      5  O   UNL     1      13.478  11.518  23.642  0.00  0.00    -0.153 OA
ATOM      6  O   UNL     1      11.939  13.377  22.936  0.00  0.00    -0.153 OA
BRANCH   1  23
ATOM     23  C   UNL     1      13.493  12.312  21.156  0.00  0.00    +0.105 A 
ATOM     24  C   UNL     1      12.813  12.517  19.955  0.00  0.00    +0.030 A 
ATOM     25  C   UNL     1      14.887  12.267  21.168  0.00  0.00    +0.030 A 
ATOM     27  C   UNL     1      13.526  12.676  18.767  0.00  0.00    +0.025 A 
ATOM     28  C   UNL     1      15.602  12.426  19.980  0.00  0.00    +0.025 A 
ATOM     30  C   UNL     1      14.922  12.631  18.781  0.00  0.00    +0.033 A 
BRANCH  30  15
ATOM      8  O   UNL     1      15.068  10.876  16.338  0.00  0.00    -0.276 OA
ATOM     15  N   UNL     1      15.635  12.791  17.592  0.00  0.00    -0.286 N 
ATOM     39  C   UNL     1      15.668  11.937  16.482  0.00  0.00    +0.214 C 
ATOM     40  C   UNL     1      16.566  12.470  15.393  0.00  0.00    +0.109 C 
ATOM     42  H   UNL     1      16.198  13.637  17.534  0.00  0.00    +0.155 HD
ENDBRANCH  30  15
ENDBRANCH   1  23
ENDBRANCH   9   1
ENDBRANCH  18   9
TORSDOF 8
ENDMDL
MODEL 2
REMARK VINA RESULT:      -7.5     27.588     30.587
REMARK  Name = 11879615
REMARK  9 active torsions:
REMARK  status: ('A' for Active; 'I' for Inactive)
REMARK    1  A    between atoms: S_1  and  N_9
REMARK    2  A    between atoms: S_1  and  C_23
REMARK    3  A    between atoms: O_4  and  C_22
REMARK    4  A    between atoms: O_4  and  C_26
REMARK    5  A    between atoms: N_9  and  C_18
REMARK    6  A    between atoms: N_10  and  C_19
REMARK    7  A    between atoms: N_14  and  C_31
REMARK    8  A    between atoms: N_15  and  C_30
REMARK    9  A    between atoms: C_39  and  C_40
REMARK                            x       y       z     vdW  Elec       q    Type
REMARK                         _______ _______ _______ _____ _____    ______ ____
ROOT
ATOM      2  O   UNL     1      -3.643  -9.988  17.065  0.00  0.00    -0.370 OA
ATOM      3  O   UNL     1      -4.551 -13.012  17.141  0.00  0.00    -0.370 OA
ATOM     16  C   UNL     1      -4.817 -11.901  16.271  0.00  0.00    +0.170 C 
ATOM     17  C   UNL     1      -4.916 -10.655  17.130  0.00  0.00    +0.175 C 
ATOM     18  C   UNL     1      -3.629 -11.646  15.374  0.00  0.00    +0.133 C 
ATOM     19  C   UNL     1      -5.155 -11.172  18.536  0.00  0.00    +0.171 C 
ATOM     20  C   UNL     1      -2.760 -10.735  16.217  0.00  0.00    +0.183 C 
ATOM     21  C   UNL     1      -4.526 -12.560  18.502  0.00  0.00    +0.190 C 
ENDROOT
BRANCH  19  10
ATOM     10  N   UNL     1      -6.572 -11.143  18.913  0.00  0.00    -0.187 N 
ATOM     11  N   UNL     1      -7.061 -11.985  19.835  0.00  0.00    -0.041 NA
ATOM     12  N   UNL     1      -8.680 -10.660  19.064  0.00  0.00    -0.071 NA
ATOM     13  N   UNL     1      -8.351 -11.685  19.922  0.00  0.00    -0.020 NA
ATOM     22  C   UNL     1      -7.564 -10.340  18.450  0.00  0.00    +0.342 A 
BRANCH  22   4
ATOM      4  O   UNL     1      -7.409  -9.403  17.534  0.00  0.00    -0.423 OA
BRANCH   4  26
ATOM     26  C   UNL     1      -8.216  -9.316  16.408  0.00  0.00    +0.134 A 
ATOM     29  C   UNL     1      -9.399  -8.580  16.453  0.00  0.00    +0.069 A 
ATOM     31  C   UNL     1     -10.211  -8.494  15.321  0.00  0.00    +0.033 A 
ATOM     32  C   UNL     1      -7.843  -9.966  15.232  0.00  0.00    +0.046 A 
ATOM     37  C   UNL     1      -9.837  -9.144  14.145  0.00  0.00    +0.023 A 
ATOM     38  C   UNL     1      -8.654  -9.880  14.100  0.00  0.00    +0.005 A 
BRANCH  31  14
ATOM      7  O   UNL     1     -13.677  -6.142  15.678  0.00  0.00    -0.377 OA
ATOM     14  N   UNL     1     -11.397  -7.755  15.365  0.00  0.00    -0.325 N 
ATOM     33  C   UNL     1     -11.322  -6.308  15.123  0.00  0.00    +0.133 C 
ATOM     34  C   UNL     1     -12.496  -8.186  16.237  0.00  0.00    +0.133 C 
ATOM     35  C   UNL     1     -12.693  -5.783  14.709  0.00  0.00    +0.178 C 
ATOM     36  C   UNL     1     -13.804  -7.560  15.764  0.00  0.00    +0.178 C 
ENDBRANCH  31  14
ENDBRANCH   4  26
ENDBRANCH  22   4
ENDBRANCH  19  10
BRANCH  18   9
ATOM      9  N   UNL     1      -4.064 -10.928  14.152  0.00  0.00    -0.182 NA
ATOM     41  H   UNL     1      -5.048 -10.642  14.091  0.00  0.00    +0.148 HD
BRANCH   9   1
ATOM      1  S   UNL     1      -3.084 -10.953  12.766  0.00  0.00    +0.059 S 
ATOM      5  O   UNL     1      -2.989 -12.312  12.266  0.00  0.00    -0.153 OA
ATOM      6  O   UNL     1      -1.881 -10.187  13.031  0.00  0.00    -0.153 OA
BRANCH   1  23
ATOM     23  C   UNL     1      -4.049 -10.017  11.619  0.00  0.00    +0.105 A 
ATOM     24  C   UNL     1      -5.351  -9.638  11.948  0.00  0.00    +0.030 A 
ATOM     25  C   UNL     1      -3.509  -9.655  10.384  0.00  0.00    +0.030 A 
ATOM     27  C   UNL     1      -6.112  -8.899  11.043  0.00  0.00    +0.025 A 
ATOM     28  C   UNL     1      -4.270  -8.916   9.479  0.00  0.00    +0.025 A 
ATOM     30  C   UNL     1      -5.570  -8.538   9.808  0.00  0.00    +0.033 A 
BRANCH  30  15
ATOM      8  O   UNL     1      -8.051  -9.284   8.273  0.00  0.00    -0.276 OA
ATOM     15  N   UNL     1      -6.332  -7.797   8.903  0.00  0.00    -0.286 N 
ATOM     39  C   UNL     1      -7.484  -8.197   8.212  0.00  0.00    +0.214 C 
ATOM     40  C   UNL     1      -8.013  -7.099   7.324  0.00  0.00    +0.109 C 
ATOM     42  H   UNL     1      -6.003  -6.850   8.731  0.00  0.00    +0.155 HD
ENDBRANCH  30  15
ENDBRANCH   1  23
ENDBRANCH   9   1
ENDBRANCH  18   9
TORSDOF 8
ENDMDL
MODEL 3
REMARK VINA RESULT:      -7.4     28.053     31.104
REMARK  Name = 11879615
REMARK  9 active torsions:
REMARK  status: ('A' for Active; 'I' for Inactive)
REMARK    1  A    between atoms: S_1  and  N_9
REMARK    2  A    between atoms: S_1  and  C_23
REMARK    3  A    between atoms: O_4  and  C_22
REMARK    4  A    between atoms: O_4  and  C_26
REMARK    5  A    between atoms: N_9  and  C_18
REMARK    6  A    between atoms: N_10  and  C_19
REMARK    7  A    between atoms: N_14  and  C_31
REMARK    8  A    between atoms: N_15  and  C_30
REMARK    9  A    between atoms: C_39  and  C_40
REMARK                            x       y       z     vdW  Elec       q    Type
REMARK                         _______ _______ _______ _____ _____    ______ ____
ROOT
ATOM      2  O   UNL     1      -6.646 -11.970  14.715  0.00  0.00    -0.370 OA
ATOM      3  O   UNL     1      -5.595  -9.292  16.018  0.00  0.00    -0.370 OA
ATOM     16  C   UNL     1      -5.014 -10.576  15.745  0.00  0.00    +0.170 C 
ATOM     17  C   UNL     1      -6.078 -11.628  15.992  0.00  0.00    +0.175 C 
ATOM     18  C   UNL     1      -4.695 -10.702  14.274  0.00  0.00    +0.133 C 
ATOM     19  C   UNL     1      -7.120 -10.930  16.847  0.00  0.00    +0.171 C 
ATOM     20  C   UNL     1      -5.999 -11.205  13.689  0.00  0.00    +0.183 C 
ATOM     21  C   UNL     1      -6.944  -9.463  16.472  0.00  0.00    +0.190 C 
ENDROOT
BRANCH  19  10
ATOM     10  N   UNL     1      -6.965 -11.226  18.275  0.00  0.00    -0.187 N 
ATOM     11  N   UNL     1      -5.818 -10.964  18.916  0.00  0.00    -0.041 NA
ATOM     12  N   UNL     1      -7.302 -11.855  20.322  0.00  0.00    -0.071 NA
ATOM     13  N   UNL     1      -6.029 -11.351  20.169  0.00  0.00    -0.020 NA
ATOM     22  C   UNL     1      -7.862 -11.767  19.138  0.00  0.00    +0.342 A 
BRANCH  22   4
ATOM      4  O   UNL     1      -9.088 -12.138  18.817  0.00  0.00    -0.423 OA
BRANCH   4  26
ATOM     26  C   UNL     1     -10.191 -11.315  18.999  0.00  0.00    +0.134 A 
ATOM     29  C   UNL     1     -10.447 -10.283  18.096  0.00  0.00    +0.069 A 
ATOM     31  C   UNL     1     -11.555  -9.455  18.279  0.00  0.00    +0.033 A 
ATOM     32  C   UNL     1     -11.041 -11.519  20.085  0.00  0.00    +0.046 A 
ATOM     37  C   UNL     1     -12.406  -9.660  19.365  0.00  0.00    +0.023 A 
ATOM     38  C   UNL     1     -12.150 -10.692  20.268  0.00  0.00    +0.005 A 
BRANCH  31  14
ATOM      7  O   UNL     1     -12.262  -6.522  15.352  0.00  0.00    -0.377 OA
ATOM     14  N   UNL     1     -11.813  -8.422  17.374  0.00  0.00    -0.325 N 
ATOM     33  C   UNL     1     -12.933  -8.585  16.436  0.00  0.00    +0.133 C 
ATOM     34  C   UNL     1     -10.714  -7.577  16.893  0.00  0.00    +0.133 C 
ATOM     35  C   UNL     1     -13.371  -7.221  15.914  0.00  0.00    +0.178 C 
ATOM     36  C   UNL     1     -11.271  -6.268  16.346  0.00  0.00    +0.178 C 
ENDBRANCH  31  14
ENDBRANCH   4  26
ENDBRANCH  22   4
ENDBRANCH  19  10
BRANCH  18   9
ATOM      9  N   UNL     1      -3.635 -11.718  14.072  0.00  0.00    -0.182 NA
ATOM     41  H   UNL     1      -3.616 -12.522  14.710  0.00  0.00    +0.148 HD
BRANCH   9   1
ATOM      1  S   UNL     1      -2.288 -11.350  13.106  0.00  0.00    +0.059 S 
ATOM      5  O   UNL     1      -1.459 -12.532  12.962  0.00  0.00    -0.153 OA
ATOM      6  O   UNL     1      -1.708 -10.104  13.570  0.00  0.00    -0.153 OA
BRANCH   1  23
ATOM     23  C   UNL     1      -3.039 -11.017  11.541  0.00  0.00    +0.105 A 
ATOM     24  C   UNL     1      -3.655 -12.048  10.830  0.00  0.00    +0.030 A 
ATOM     25  C   UNL     1      -3.018  -9.725  11.018  0.00  0.00    +0.030 A 
ATOM     27  C   UNL     1      -4.249 -11.786   9.596  0.00  0.00    +0.025 A 
ATOM     28  C   UNL     1      -3.611  -9.462   9.783  0.00  0.00    +0.025 A 
ATOM     30  C   UNL     1      -4.227 -10.492   9.072  0.00  0.00    +0.033 A 
BRANCH  30  15
ATOM      8  O   UNL     1      -7.011  -9.562   8.402  0.00  0.00    -0.276 OA
ATOM     15  N   UNL     1      -4.821 -10.230   7.837  0.00  0.00    -0.286 N 
ATOM     39  C   UNL     1      -6.129  -9.798   7.581  0.00  0.00    +0.214 C 
ATOM     40  C   UNL     1      -6.384  -9.630   6.104  0.00  0.00    +0.109 C 
ATOM     42  H   UNL     1      -4.221 -10.372   7.027  0.00  0.00    +0.155 HD
ENDBRANCH  30  15
ENDBRANCH   1  23
ENDBRANCH   9   1
ENDBRANCH  18   9
TORSDOF 8
ENDMDL
MODEL 4
REMARK VINA RESULT:      -7.2     27.761     30.629
REMARK  Name = 11879615
REMARK  9 active torsions:
REMARK  status: ('A' for Active; 'I' for Inactive)
REMARK    1  A    between atoms: S_1  and  N_9
REMARK    2  A    between atoms: S_1  and  C_23
REMARK    3  A    between atoms: O_4  and  C_22
REMARK    4  A    between atoms: O_4  and  C_26
REMARK    5  A    between atoms: N_9  and  C_18
REMARK    6  A    between atoms: N_10  and  C_19
REMARK    7  A    between atoms: N_14  and  C_31
REMARK    8  A    between atoms: N_15  and  C_30
REMARK    9  A    between atoms: C_39  and  C_40
REMARK                            x       y       z     vdW  Elec       q    Type
REMARK                         _______ _______ _______ _____ _____    ______ ____
ROOT
ATOM      2  O   UNL     1      -4.165  -9.959  16.895  0.00  0.00    -0.370 OA
ATOM      3  O   UNL     1      -4.556 -13.077  17.207  0.00  0.00    -0.370 OA
ATOM     16  C   UNL     1      -4.943 -12.106  16.223  0.00  0.00    +0.170 C 
ATOM     17  C   UNL     1      -5.310 -10.829  16.953  0.00  0.00    +0.175 C 
ATOM     18  C   UNL     1      -3.755 -11.726  15.373  0.00  0.00    +0.133 C 
ATOM     19  C   UNL     1      -5.556 -11.259  18.387  0.00  0.00    +0.171 C 
ATOM     20  C   UNL     1      -3.112 -10.611  16.171  0.00  0.00    +0.183 C 
ATOM     21  C   UNL     1      -4.703 -12.516  18.518  0.00  0.00    +0.190 C 
ENDROOT
BRANCH  19  10
ATOM     10  N   UNL     1      -6.981 -11.445  18.681  0.00  0.00    -0.187 N 
ATOM     11  N   UNL     1      -7.428 -12.570  19.257  0.00  0.00    -0.041 NA
ATOM     12  N   UNL     1      -9.123 -11.172  18.874  0.00  0.00    -0.071 NA
ATOM     13  N   UNL     1      -8.740 -12.397  19.372  0.00  0.00    -0.020 NA
ATOM     22  C   UNL     1      -8.018 -10.600  18.452  0.00  0.00    +0.342 A 
BRANCH  22   4
ATOM      4  O   UNL     1      -7.912  -9.408  17.895  0.00  0.00    -0.423 OA
BRANCH   4  26
ATOM     26  C   UNL     1      -8.829  -8.928  16.972  0.00  0.00    +0.134 A 
ATOM     29  C   UNL     1      -8.913  -9.508  15.706  0.00  0.00    +0.069 A 
ATOM     31  C   UNL     1      -9.835  -9.025  14.777  0.00  0.00    +0.033 A 
ATOM     32  C   UNL     1      -9.667  -7.866  17.310  0.00  0.00    +0.046 A 
ATOM     37  C   UNL     1     -10.674  -7.962  15.115  0.00  0.00    +0.023 A 
ATOM     38  C   UNL     1     -10.590  -7.383  16.381  0.00  0.00    +0.005 A 
BRANCH  31  14
ATOM      7  O   UNL     1     -10.278 -10.949  11.066  0.00  0.00    -0.377 OA
ATOM     14  N   UNL     1      -9.920  -9.605  13.508  0.00  0.00    -0.325 N 
ATOM     33  C   UNL     1     -11.193  -9.500  12.782  0.00  0.00    +0.133 C 
ATOM     34  C   UNL     1      -9.115 -10.790  13.189  0.00  0.00    +0.133 C 
ATOM     35  C   UNL     1     -10.955  -9.713  11.291  0.00  0.00    +0.178 C 
ATOM     36  C   UNL     1      -8.989 -10.935  11.677  0.00  0.00    +0.178 C 
ENDBRANCH  31  14
ENDBRANCH   4  26
ENDBRANCH  22   4
ENDBRANCH  19  10
BRANCH  18   9
ATOM      9  N   UNL     1      -4.217 -11.199  14.066  0.00  0.00    -0.182 NA
ATOM     41  H   UNL     1      -5.228 -11.182  13.889  0.00  0.00    +0.148 HD
BRANCH   9   1
ATOM      1  S   UNL     1      -3.112 -11.026  12.788  0.00  0.00    +0.059 S 
ATOM      5  O   UNL     1      -2.878 -12.319  12.174  0.00  0.00    -0.153 OA
ATOM      6  O   UNL     1      -1.995 -10.221  13.244  0.00  0.00    -0.153 OA
BRANCH   1  23
ATOM     23  C   UNL     1      -4.027 -10.037  11.645  0.00  0.00    +0.105 A 
ATOM     24  C   UNL     1      -5.316  -9.609  11.967  0.00  0.00    +0.030 A 
ATOM     25  C   UNL     1      -3.462  -9.682  10.420  0.00  0.00    +0.030 A 
ATOM     27  C   UNL     1      -6.038  -8.828  11.065  0.00  0.00    +0.025 A 
ATOM     28  C   UNL     1      -4.184  -8.901   9.517  0.00  0.00    +0.025 A 
ATOM     30  C   UNL     1      -5.471  -8.474   9.840  0.00  0.00    +0.033 A 
BRANCH  30  15
ATOM      8  O   UNL     1      -8.398  -8.507   9.134  0.00  0.00    -0.276 OA
ATOM     15  N   UNL     1      -6.194  -7.693   8.938  0.00  0.00    -0.286 N 
ATOM     39  C   UNL     1      -7.563  -7.752   8.646  0.00  0.00    +0.214 C 
ATOM     40  C   UNL     1      -7.958  -6.732   7.607  0.00  0.00    +0.109 C 
ATOM     42  H   UNL     1      -5.650  -6.994   8.434  0.00  0.00    +0.155 HD
ENDBRANCH  30  15
ENDBRANCH   1  23
ENDBRANCH   9   1
ENDBRANCH  18   9
TORSDOF 8
ENDMDL
MODEL 5
REMARK VINA RESULT:      -7.2     27.091     31.773
REMARK  Name = 11879615
REMARK  9 active torsions:
REMARK  status: ('A' for Active; 'I' for Inactive)
REMARK    1  A    between atoms: S_1  and  N_9
REMARK    2  A    between atoms: S_1  and  C_23
REMARK    3  A    between atoms: O_4  and  C_22
REMARK    4  A    between atoms: O_4  and  C_26
REMARK    5  A    between atoms: N_9  and  C_18
REMARK    6  A    between atoms: N_10  and  C_19
REMARK    7  A    between atoms: N_14  and  C_31
REMARK    8  A    between atoms: N_15  and  C_30
REMARK    9  A    between atoms: C_39  and  C_40
REMARK                            x       y       z     vdW  Elec       q    Type
REMARK                         _______ _______ _______ _____ _____    ______ ____
ROOT
ATOM      2  O   UNL     1     -17.893   3.515  23.915  0.00  0.00    -0.370 OA
ATOM      3  O   UNL     1     -14.794   4.073  24.153  0.00  0.00    -0.370 OA
ATOM     16  C   UNL     1     -15.915   4.214  25.040  0.00  0.00    +0.170 C 
ATOM     17  C   UNL     1     -17.100   4.677  24.216  0.00  0.00    +0.175 C 
ATOM     18  C   UNL     1     -16.331   2.863  25.571  0.00  0.00    +0.133 C 
ATOM     19  C   UNL     1     -16.493   5.230  22.940  0.00  0.00    +0.171 C 
ATOM     20  C   UNL     1     -17.281   2.359  24.504  0.00  0.00    +0.183 C 
ATOM     21  C   UNL     1     -15.178   4.467  22.829  0.00  0.00    +0.190 C 
ENDROOT
BRANCH  19  10
ATOM     10  N   UNL     1     -16.361   6.689  22.965  0.00  0.00    -0.187 N 
ATOM     11  N   UNL     1     -16.717   7.398  24.046  0.00  0.00    -0.041 NA
ATOM     12  N   UNL     1     -15.956   8.756  22.449  0.00  0.00    -0.071 NA
ATOM     13  N   UNL     1     -16.468   8.662  23.724  0.00  0.00    -0.020 NA
ATOM     22  C   UNL     1     -15.898   7.524  22.000  0.00  0.00    +0.342 A 
BRANCH  22   4
ATOM      4  O   UNL     1     -15.469   7.138  20.812  0.00  0.00    -0.423 OA
BRANCH   4  26
ATOM     26  C   UNL     1     -14.137   7.229  20.432  0.00  0.00    +0.134 A 
ATOM     29  C   UNL     1     -13.804   7.726  19.172  0.00  0.00    +0.069 A 
ATOM     31  C   UNL     1     -12.466   7.816  18.789  0.00  0.00    +0.033 A 
ATOM     32  C   UNL     1     -13.133   6.822  21.309  0.00  0.00    +0.046 A 
ATOM     37  C   UNL     1     -11.461   7.410  19.668  0.00  0.00    +0.023 A 
ATOM     38  C   UNL     1     -11.794   6.913  20.927  0.00  0.00    +0.005 A 
BRANCH  31  14
ATOM      7  O   UNL     1     -11.309   9.513  15.121  0.00  0.00    -0.377 OA
ATOM     14  N   UNL     1     -12.131   8.315  17.527  0.00  0.00    -0.325 N 
ATOM     33  C   UNL     1     -10.725   8.246  17.106  0.00  0.00    +0.133 C 
ATOM     34  C   UNL     1     -12.904   9.419  16.947  0.00  0.00    +0.133 C 
ATOM     35  C   UNL     1     -10.637   8.343  15.586  0.00  0.00    +0.178 C 
ATOM     36  C   UNL     1     -12.699   9.453  15.436  0.00  0.00    +0.178 C 
ENDBRANCH  31  14
ENDBRANCH   4  26
ENDBRANCH  22   4
ENDBRANCH  19  10
BRANCH  18   9
ATOM      9  N   UNL     1     -17.062   3.027  26.851  0.00  0.00    -0.182 NA
ATOM     41  H   UNL     1     -17.181   3.981  27.214  0.00  0.00    +0.148 HD
BRANCH   9   1
ATOM      1  S   UNL     1     -17.318   1.682  27.854  0.00  0.00    +0.059 S 
ATOM      5  O   UNL     1     -16.461   0.591  27.428  0.00  0.00    -0.153 OA
ATOM      6  O   UNL     1     -18.746   1.474  28.001  0.00  0.00    -0.153 OA
BRANCH   1  23
ATOM     23  C   UNL     1     -16.720   2.268  29.411  0.00  0.00    +0.105 A 
ATOM     24  C   UNL     1     -17.268   3.418  29.981  0.00  0.00    +0.030 A 
ATOM     25  C   UNL     1     -15.701   1.581  30.071  0.00  0.00    +0.030 A 
ATOM     27  C   UNL     1     -16.797   3.880  31.209  0.00  0.00    +0.025 A 
ATOM     28  C   UNL     1     -15.229   2.043  31.300  0.00  0.00    +0.025 A 
ATOM     30  C   UNL     1     -15.777   3.192  31.869  0.00  0.00    +0.033 A 
BRANCH  30  15
ATOM      8  O   UNL     1     -14.032   5.555  32.529  0.00  0.00    -0.276 OA
ATOM     15  N   UNL     1     -15.307   3.655  33.098  0.00  0.00    -0.286 N 
ATOM     39  C   UNL     1     -14.491   4.766  33.349  0.00  0.00    +0.214 C 
ATOM     40  C   UNL     1     -14.204   4.929  34.821  0.00  0.00    +0.109 C 
ATOM     42  H   UNL     1     -15.599   3.111  33.908  0.00  0.00    +0.155 HD
ENDBRANCH  30  15
ENDBRANCH   1  23
ENDBRANCH   9   1
ENDBRANCH  18   9
TORSDOF 8
ENDMDL
MODEL 6
REMARK VINA RESULT:      -7.1     27.703     31.083
REMARK  Name = 11879615
REMARK  9 active torsions:
REMARK  status: ('A' for Active; 'I' for Inactive)
REMARK    1  A    between atoms: S_1  and  N_9
REMARK    2  A    between atoms: S_1  and  C_23
REMARK    3  A    between atoms: O_4  and  C_22
REMARK    4  A    between atoms: O_4  and  C_26
REMARK    5  A    between atoms: N_9  and  C_18
REMARK    6  A    between atoms: N_10  and  C_19
REMARK    7  A    between atoms: N_14  and  C_31
REMARK    8  A    between atoms: N_15  and  C_30
REMARK    9  A    between atoms: C_39  and  C_40
REMARK                            x       y       z     vdW  Elec       q    Type
REMARK                         _______ _______ _______ _____ _____    ______ ____
ROOT
ATOM      2  O   UNL     1      -6.174 -10.318  16.224  0.00  0.00    -0.370 OA
ATOM      3  O   UNL     1      -4.882 -11.056  19.009  0.00  0.00    -0.370 OA
ATOM     16  C   UNL     1      -4.921 -11.684  17.718  0.00  0.00    +0.170 C 
ATOM     17  C   UNL     1      -6.294 -11.434  17.124  0.00  0.00    +0.175 C 
ATOM     18  C   UNL     1      -3.971 -10.989  16.773  0.00  0.00    +0.133 C 
ATOM     19  C   UNL     1      -7.163 -11.049  18.307  0.00  0.00    +0.171 C 
ATOM     20  C   UNL     1      -4.815  -9.862  16.214  0.00  0.00    +0.183 C 
ATOM     21  C   UNL     1      -6.158 -10.469  19.296  0.00  0.00    +0.190 C 
ENDROOT
BRANCH  19  10
ATOM     10  N   UNL     1      -7.952 -12.175  18.816  0.00  0.00    -0.187 N 
ATOM     11  N   UNL     1      -7.654 -13.438  18.478  0.00  0.00    -0.041 NA
ATOM     12  N   UNL     1      -9.420 -13.399  19.839  0.00  0.00    -0.071 NA
ATOM     13  N   UNL     1      -8.556 -14.183  19.106  0.00  0.00    -0.020 NA
ATOM     22  C   UNL     1      -9.026 -12.162  19.645  0.00  0.00    +0.342 A 
BRANCH  22   4
ATOM      4  O   UNL     1      -9.570 -11.073  20.157  0.00  0.00    -0.423 OA
BRANCH   4  26
ATOM     26  C   UNL     1     -10.736 -10.512  19.656  0.00  0.00    +0.134 A 
ATOM     29  C   UNL     1     -10.680  -9.638  18.571  0.00  0.00    +0.069 A 
ATOM     31  C   UNL     1     -11.853  -9.074  18.068  0.00  0.00    +0.033 A 
ATOM     32  C   UNL     1     -11.964 -10.822  20.239  0.00  0.00    +0.046 A 
ATOM     37  C   UNL     1     -13.081  -9.384  18.651  0.00  0.00    +0.023 A 
ATOM     38  C   UNL     1     -13.138 -10.258  19.736  0.00  0.00    +0.005 A 
BRANCH  31  14
ATOM      7  O   UNL     1     -11.551  -6.640  14.653  0.00  0.00    -0.377 OA
ATOM     14  N   UNL     1     -11.797  -8.198  16.980  0.00  0.00    -0.325 N 
ATOM     33  C   UNL     1     -12.542  -8.556  15.764  0.00  0.00    +0.133 C 
ATOM     34  C   UNL     1     -10.601  -7.377  16.760  0.00  0.00    +0.133 C 
ATOM     35  C   UNL     1     -12.784  -7.307  14.923  0.00  0.00    +0.178 C 
ATOM     36  C   UNL     1     -10.947  -6.192  15.865  0.00  0.00    +0.178 C 
ENDBRANCH  31  14
ENDBRANCH   4  26
ENDBRANCH  22   4
ENDBRANCH  19  10
BRANCH  18   9
ATOM      9  N   UNL     1      -3.584 -11.911  15.678  0.00  0.00    -0.182 NA
ATOM     41  H   UNL     1      -3.995 -12.852  15.678  0.00  0.00    +0.148 HD
BRANCH   9   1
ATOM      1  S   UNL     1      -2.223 -11.562  14.723  0.00  0.00    +0.059 S 
ATOM      5  O   UNL     1      -1.477 -12.782  14.483  0.00  0.00    -0.153 OA
ATOM      6  O   UNL     1      -1.558 -10.395  15.269  0.00  0.00    -0.153 OA
BRANCH   1  23
ATOM     23  C   UNL     1      -2.964 -11.066  13.198  0.00  0.00    +0.105 A 
ATOM     24  C   UNL     1      -4.320 -11.306  12.970  0.00  0.00    +0.030 A 
ATOM     25  C   UNL     1      -2.195 -10.435  12.221  0.00  0.00    +0.030 A 
ATOM     27  C   UNL     1      -4.905 -10.914  11.766  0.00  0.00    +0.025 A 
ATOM     28  C   UNL     1      -2.779 -10.043  11.016  0.00  0.00    +0.025 A 
ATOM     30  C   UNL     1      -4.134 -10.282  10.789  0.00  0.00    +0.033 A 
BRANCH  30  15
ATOM      8  O   UNL     1      -4.349 -11.730   8.158  0.00  0.00    -0.276 OA
ATOM     15  N   UNL     1      -4.720  -9.890   9.585  0.00  0.00    -0.286 N 
ATOM     39  C   UNL     1      -4.790 -10.608   8.384  0.00  0.00    +0.214 C 
ATOM     40  C   UNL     1      -5.511  -9.832   7.309  0.00  0.00    +0.109 C 
ATOM     42  H   UNL     1      -5.148  -8.966   9.590  0.00  0.00    +0.155 HD
ENDBRANCH  30  15
ENDBRANCH   1  23
ENDBRANCH   9   1
ENDBRANCH  18   9
TORSDOF 8
ENDMDL
MODEL 7
REMARK VINA RESULT:      -7.1      2.353      3.421
REMARK  Name = 11879615
REMARK  9 active torsions:
REMARK  status: ('A' for Active; 'I' for Inactive)
REMARK    1  A    between atoms: S_1  and  N_9
REMARK    2  A    between atoms: S_1  and  C_23
REMARK    3  A    between atoms: O_4  and  C_22
REMARK    4  A    between atoms: O_4  and  C_26
REMARK    5  A    between atoms: N_9  and  C_18
REMARK    6  A    between atoms: N_10  and  C_19
REMARK    7  A    between atoms: N_14  and  C_31
REMARK    8  A    between atoms: N_15  and  C_30
REMARK    9  A    between atoms: C_39  and  C_40
REMARK                            x       y       z     vdW  Elec       q    Type
REMARK                         _______ _______ _______ _____ _____    ______ ____
ROOT
ATOM      2  O   UNL     1      10.346   8.457  20.847  0.00  0.00    -0.370 OA
ATOM      3  O   UNL     1      13.251   8.043  22.012  0.00  0.00    -0.370 OA
ATOM     16  C   UNL     1      12.545   9.153  21.436  0.00  0.00    +0.170 C 
ATOM     17  C   UNL     1      11.674   8.615  20.317  0.00  0.00    +0.175 C 
ATOM     18  C   UNL     1      11.566   9.722  22.434  0.00  0.00    +0.133 C 
ATOM     19  C   UNL     1      12.262   7.254  19.989  0.00  0.00    +0.171 C 
ATOM     20  C   UNL     1      10.332   8.868  22.221  0.00  0.00    +0.183 C 
ATOM     21  C   UNL     1      12.925   6.844  21.299  0.00  0.00    +0.190 C 
ENDROOT
BRANCH  19  10
ATOM     10  N   UNL     1      13.156   7.293  18.828  0.00  0.00    -0.187 N 
ATOM     11  N   UNL     1      12.703   7.646  17.616  0.00  0.00    -0.041 NA
ATOM     12  N   UNL     1      14.881   7.177  17.520  0.00  0.00    -0.071 NA
ATOM     13  N   UNL     1      13.763   7.572  16.820  0.00  0.00    -0.020 NA
ATOM     22  C   UNL     1      14.482   7.011  18.760  0.00  0.00    +0.342 A 
BRANCH  22   4
ATOM      4  O   UNL     1      15.225   6.632  19.782  0.00  0.00    -0.423 OA
BRANCH   4  26
ATOM     26  C   UNL     1      16.230   7.428  20.314  0.00  0.00    +0.134 A 
ATOM     29  C   UNL     1      17.368   6.840  20.865  0.00  0.00    +0.069 A 
ATOM     31  C   UNL     1      18.377   7.641  21.400  0.00  0.00    +0.033 A 
ATOM     32  C   UNL     1      16.101   8.816  20.296  0.00  0.00    +0.046 A 
ATOM     37  C   UNL     1      18.248   9.030  21.382  0.00  0.00    +0.023 A 
ATOM     38  C   UNL     1      17.110   9.618  20.830  0.00  0.00    +0.005 A 
BRANCH  31  14
ATOM      7  O   UNL     1      21.957   6.084  22.960  0.00  0.00    -0.377 OA
ATOM     14  N   UNL     1      19.518   7.052  21.953  0.00  0.00    -0.325 N 
ATOM     33  C   UNL     1      20.212   7.766  23.035  0.00  0.00    +0.133 C 
ATOM     34  C   UNL     1      20.372   6.190  21.127  0.00  0.00    +0.133 C 
ATOM     35  C   UNL     1      21.071   6.788  23.829  0.00  0.00    +0.178 C 
ATOM     36  C   UNL     1      21.223   5.298  22.023  0.00  0.00    +0.178 C 
ENDBRANCH  31  14
ENDBRANCH   4  26
ENDBRANCH  22   4
ENDBRANCH  19  10
BRANCH  18   9
ATOM      9  N   UNL     1      11.260  11.132  22.094  0.00  0.00    -0.182 NA
ATOM     41  H   UNL     1      11.409  11.432  21.123  0.00  0.00    +0.148 HD
BRANCH   9   1
ATOM      1  S   UNL     1      11.073  12.277  23.333  0.00  0.00    +0.059 S 
ATOM      5  O   UNL     1      10.381  11.668  24.453  0.00  0.00    -0.153 OA
ATOM      6  O   UNL     1      10.580  13.514  22.756  0.00  0.00    -0.153 OA
BRANCH   1  23
ATOM     23  C   UNL     1      12.747  12.567  23.819  0.00  0.00    +0.105 A 
ATOM     24  C   UNL     1      13.287  11.881  24.907  0.00  0.00    +0.030 A 
ATOM     25  C   UNL     1      13.530  13.481  23.114  0.00  0.00    +0.030 A 
ATOM     27  C   UNL     1      14.609  12.109  25.290  0.00  0.00    +0.025 A 
ATOM     28  C   UNL     1      14.852  13.711  23.497  0.00  0.00    +0.025 A 
ATOM     30  C   UNL     1      15.391  13.024  24.584  0.00  0.00    +0.033 A 
BRANCH  30  15
ATOM      8  O   UNL     1      17.963  11.907  23.488  0.00  0.00    -0.276 OA
ATOM     15  N   UNL     1      16.713  13.252  24.967  0.00  0.00    -0.286 N 
ATOM     39  C   UNL     1      17.879  12.701  24.420  0.00  0.00    +0.214 C 
ATOM     40  C   UNL     1      19.117  13.204  25.120  0.00  0.00    +0.109 C 
ATOM     42  H   UNL     1      16.835  13.903  25.741  0.00  0.00    +0.155 HD
ENDBRANCH  30  15
ENDBRANCH   1  23
ENDBRANCH   9   1
ENDBRANCH  18   9
TORSDOF 8
ENDMDL
MODEL 8
REMARK VINA RESULT:      -7.1     26.993     31.067
REMARK  Name = 11879615
REMARK  9 active torsions:
REMARK  status: ('A' for Active; 'I' for Inactive)
REMARK    1  A    between atoms: S_1  and  N_9
REMARK    2  A    between atoms: S_1  and  C_23
REMARK    3  A    between atoms: O_4  and  C_22
REMARK    4  A    between atoms: O_4  and  C_26
REMARK    5  A    between atoms: N_9  and  C_18
REMARK    6  A    between atoms: N_10  and  C_19
REMARK    7  A    between atoms: N_14  and  C_31
REMARK    8  A    between atoms: N_15  and  C_30
REMARK    9  A    between atoms: C_39  and  C_40
REMARK                            x       y       z     vdW  Elec       q    Type
REMARK                         _______ _______ _______ _____ _____    ______ ____
ROOT
ATOM      2  O   UNL     1     -13.588   4.858  22.315  0.00  0.00    -0.370 OA
ATOM      3  O   UNL     1     -16.052   6.671  23.096  0.00  0.00    -0.370 OA
ATOM     16  C   UNL     1     -15.889   5.288  22.748  0.00  0.00    +0.170 C 
ATOM     17  C   UNL     1     -14.825   5.206  21.670  0.00  0.00    +0.175 C 
ATOM     18  C   UNL     1     -15.304   4.524  23.911  0.00  0.00    +0.133 C 
ATOM     19  C   UNL     1     -14.735   6.612  21.107  0.00  0.00    +0.171 C 
ATOM     20  C   UNL     1     -13.813   4.712  23.724  0.00  0.00    +0.183 C 
ATOM     21  C   UNL     1     -15.199   7.478  22.273  0.00  0.00    +0.190 C 
ENDROOT
BRANCH  19  10
ATOM     10  N   UNL     1     -15.506   6.774  19.871  0.00  0.00    -0.187 N 
ATOM     11  N   UNL     1     -16.462   5.898  19.531  0.00  0.00    -0.041 NA
ATOM     12  N   UNL     1     -16.297   7.498  17.987  0.00  0.00    -0.071 NA
ATOM     13  N   UNL     1     -16.942   6.346  18.377  0.00  0.00    -0.020 NA
ATOM     22  C   UNL     1     -15.414   7.745  18.926  0.00  0.00    +0.342 A 
BRANCH  22   4
ATOM      4  O   UNL     1     -14.567   8.757  18.965  0.00  0.00    -0.423 OA
BRANCH   4  26
ATOM     26  C   UNL     1     -13.276   8.672  18.465  0.00  0.00    +0.134 A 
ATOM     29  C   UNL     1     -13.062   8.629  17.088  0.00  0.00    +0.069 A 
ATOM     31  C   UNL     1     -11.764   8.542  16.585  0.00  0.00    +0.033 A 
ATOM     32  C   UNL     1     -12.191   8.629  19.341  0.00  0.00    +0.046 A 
ATOM     37  C   UNL     1     -10.679   8.500  17.461  0.00  0.00    +0.023 A 
ATOM     38  C   UNL     1     -10.892   8.543  18.839  0.00  0.00    +0.005 A 
BRANCH  31  14
ATOM      7  O   UNL     1     -10.890   8.569  12.473  0.00  0.00    -0.377 OA
ATOM     14  N   UNL     1     -11.549   8.499  15.205  0.00  0.00    -0.325 N 
ATOM     33  C   UNL     1     -10.355   7.800  14.710  0.00  0.00    +0.133 C 
ATOM     34  C   UNL     1     -12.027   9.596  14.354  0.00  0.00    +0.133 C 
ATOM     35  C   UNL     1     -10.550   7.419  13.247  0.00  0.00    +0.178 C 
ATOM     36  C   UNL     1     -12.132   9.119  12.910  0.00  0.00    +0.178 C 
ENDBRANCH  31  14
ENDBRANCH   4  26
ENDBRANCH  22   4
ENDBRANCH  19  10
BRANCH  18   9
ATOM      9  N   UNL     1     -15.643   3.085  23.791  0.00  0.00    -0.182 NA
ATOM     41  H   UNL     1     -15.104   2.522  23.122  0.00  0.00    +0.148 HD
BRANCH   9   1
ATOM      1  S   UNL     1     -17.110   2.508  24.423  0.00  0.00    +0.059 S 
ATOM      5  O   UNL     1     -17.393   1.199  23.866  0.00  0.00    -0.153 OA
ATOM      6  O   UNL     1     -18.099   3.565  24.343  0.00  0.00    -0.153 OA
BRANCH   1  23
ATOM     23  C   UNL     1     -16.715   2.300  26.133  0.00  0.00    +0.105 A 
ATOM     24  C   UNL     1     -16.797   1.036  26.719  0.00  0.00    +0.030 A 
ATOM     25  C   UNL     1     -16.321   3.398  26.897  0.00  0.00    +0.030 A 
ATOM     27  C   UNL     1     -16.485   0.871  28.068  0.00  0.00    +0.025 A 
ATOM     28  C   UNL     1     -16.009   3.234  28.247  0.00  0.00    +0.025 A 
ATOM     30  C   UNL     1     -16.090   1.971  28.832  0.00  0.00    +0.033 A 
BRANCH  30  15
ATOM      8  O   UNL     1     -13.429   1.608  30.192  0.00  0.00    -0.276 OA
ATOM     15  N   UNL     1     -15.778   1.806  30.182  0.00  0.00    -0.286 N 
ATOM     39  C   UNL     1     -14.515   1.639  30.763  0.00  0.00    +0.214 C 
ATOM     40  C   UNL     1     -14.602   1.493  32.262  0.00  0.00    +0.109 C 
ATOM     42  H   UNL     1     -16.575   1.811  30.816  0.00  0.00    +0.155 HD
ENDBRANCH  30  15
ENDBRANCH   1  23
ENDBRANCH   9   1
ENDBRANCH  18   9
TORSDOF 8
ENDMDL
MODEL 9
REMARK VINA RESULT:      -7.0     22.414     25.526
REMARK  Name = 11879615
REMARK  9 active torsions:
REMARK  status: ('A' for Active; 'I' for Inactive)
REMARK    1  A    between atoms: S_1  and  N_9
REMARK    2  A    between atoms: S_1  and  C_23
REMARK    3  A    between atoms: O_4  and  C_22
REMARK    4  A    between atoms: O_4  and  C_26
REMARK    5  A    between atoms: N_9  and  C_18
REMARK    6  A    between atoms: N_10  and  C_19
REMARK    7  A    between atoms: N_14  and  C_31
REMARK    8  A    between atoms: N_15  and  C_30
REMARK    9  A    between atoms: C_39  and  C_40
REMARK                            x       y       z     vdW  Elec       q    Type
REMARK                         _______ _______ _______ _____ _____    ______ ____
ROOT
ATOM      2  O   UNL     1       8.134   7.012  -3.393  0.00  0.00    -0.370 OA
ATOM      3  O   UNL     1       8.314   5.215  -5.983  0.00  0.00    -0.370 OA
ATOM     16  C   UNL     1       7.355   5.365  -4.924  0.00  0.00    +0.170 C 
ATOM     17  C   UNL     1       8.122   5.595  -3.636  0.00  0.00    +0.175 C 
ATOM     18  C   UNL     1       6.559   6.633  -5.119  0.00  0.00    +0.133 C 
ATOM     19  C   UNL     1       9.530   5.111  -3.932  0.00  0.00    +0.171 C 
ATOM     20  C   UNL     1       7.420   7.679  -4.442  0.00  0.00    +0.183 C 
ATOM     21  C   UNL     1       9.640   5.283  -5.443  0.00  0.00    +0.190 C 
ENDROOT
BRANCH  19  10
ATOM     10  N   UNL     1       9.770   3.750  -3.445  0.00  0.00    -0.187 N 
ATOM     11  N   UNL     1       8.990   2.729  -3.828  0.00  0.00    -0.041 NA
ATOM     12  N   UNL     1      10.576   2.008  -2.436  0.00  0.00    -0.071 NA
ATOM     13  N   UNL     1       9.488   1.666  -3.206  0.00  0.00    -0.020 NA
ATOM     22  C   UNL     1      10.733   3.301  -2.599  0.00  0.00    +0.342 A 
BRANCH  22   4
ATOM      4  O   UNL     1      11.660   4.059  -2.043  0.00  0.00    -0.423 OA
BRANCH   4  26
ATOM     26  C   UNL     1      11.925   4.040  -0.681  0.00  0.00    +0.134 A 
ATOM     29  C   UNL     1      11.153   4.806   0.191  0.00  0.00    +0.069 A 
ATOM     31  C   UNL     1      11.420   4.788   1.560  0.00  0.00    +0.033 A 
ATOM     32  C   UNL     1      12.965   3.254  -0.185  0.00  0.00    +0.046 A 
ATOM     37  C   UNL     1      12.460   4.002   2.057  0.00  0.00    +0.023 A 
ATOM     38  C   UNL     1      13.232   3.235   1.185  0.00  0.00    +0.005 A 
BRANCH  31  14
ATOM      7  O   UNL     1       9.308   7.271   4.214  0.00  0.00    -0.377 OA
ATOM     14  N   UNL     1      10.645   5.556   2.435  0.00  0.00    -0.325 N 
ATOM     33  C   UNL     1      10.262   6.910   2.014  0.00  0.00    +0.133 C 
ATOM     34  C   UNL     1      10.771   5.364   3.884  0.00  0.00    +0.133 C 
ATOM     35  C   UNL     1       9.050   7.375   2.814  0.00  0.00    +0.178 C 
ATOM     36  C   UNL     1       9.532   5.912   4.585  0.00  0.00    +0.178 C 
ENDBRANCH  31  14
ENDBRANCH   4  26
ENDBRANCH  22   4
ENDBRANCH  19  10
BRANCH  18   9
ATOM      9  N   UNL     1       5.259   6.526  -4.413  0.00  0.00    -0.182 NA
ATOM     41  H   UNL     1       5.230   5.976  -3.546  0.00  0.00    +0.148 HD
BRANCH   9   1
ATOM      1  S   UNL     1       3.825   6.944  -5.219  0.00  0.00    +0.059 S 
ATOM      5  O   UNL     1       4.131   7.317  -6.587  0.00  0.00    -0.153 OA
ATOM      6  O   UNL     1       3.058   7.839  -4.373  0.00  0.00    -0.153 OA
BRANCH   1  23
ATOM     23  C   UNL     1       2.961   5.403  -5.254  0.00  0.00    +0.105 A 
ATOM     24  C   UNL     1       3.451   4.346  -6.023  0.00  0.00    +0.030 A 
ATOM     25  C   UNL     1       1.791   5.241  -4.512  0.00  0.00    +0.030 A 
ATOM     27  C   UNL     1       2.770   3.129  -6.050  0.00  0.00    +0.025 A 
ATOM     28  C   UNL     1       1.109   4.024  -4.539  0.00  0.00    +0.025 A 
ATOM     30  C   UNL     1       1.599   2.969  -5.307  0.00  0.00    +0.033 A 
BRANCH  30  15
ATOM      8  O   UNL     1      -0.218   1.792  -7.400  0.00  0.00    -0.276 OA
ATOM     15  N   UNL     1       0.918   1.751  -5.334  0.00  0.00    -0.286 N 
ATOM     39  C   UNL     1       0.079   1.251  -6.339  0.00  0.00    +0.214 C 
ATOM     40  C   UNL     1      -0.466  -0.110  -5.987  0.00  0.00    +0.109 C 
ATOM     42  H   UNL     1       1.055   1.158  -4.518  0.00  0.00    +0.155 HD
ENDBRANCH  30  15
ENDBRANCH   1  23
ENDBRANCH   9   1
ENDBRANCH  18   9
TORSDOF 8
ENDMDL
MODEL 10
REMARK VINA RESULT:      -7.0     26.823     31.703
REMARK  Name = 11879615
REMARK  9 active torsions:
REMARK  status: ('A' for Active; 'I' for Inactive)
REMARK    1  A    between atoms: S_1  and  N_9
REMARK    2  A    between atoms: S_1  and  C_23
REMARK    3  A    between atoms: O_4  and  C_22
REMARK    4  A    between atoms: O_4  and  C_26
REMARK    5  A    between atoms: N_9  and  C_18
REMARK    6  A    between atoms: N_10  and  C_19
REMARK    7  A    between atoms: N_14  and  C_31
REMARK    8  A    between atoms: N_15  and  C_30
REMARK    9  A    between atoms: C_39  and  C_40
REMARK                            x       y       z     vdW  Elec       q    Type
REMARK                         _______ _______ _______ _____ _____    ______ ____
ROOT
ATOM      2  O   UNL     1     -14.170   4.755  22.022  0.00  0.00    -0.370 OA
ATOM      3  O   UNL     1     -16.815   6.257  22.870  0.00  0.00    -0.370 OA
ATOM     16  C   UNL     1     -16.404   4.882  22.835  0.00  0.00    +0.170 C 
ATOM     17  C   UNL     1     -15.544   4.688  21.601  0.00  0.00    +0.175 C 
ATOM     18  C   UNL     1     -15.476   4.587  23.989  0.00  0.00    +0.133 C 
ATOM     19  C   UNL     1     -15.869   5.874  20.713  0.00  0.00    +0.171 C 
ATOM     20  C   UNL     1     -14.119   4.972  23.438  0.00  0.00    +0.183 C 
ATOM     21  C   UNL     1     -16.316   6.937  21.711  0.00  0.00    +0.190 C 
ENDROOT
BRANCH  19  10
ATOM     10  N   UNL     1     -16.852   5.548  19.675  0.00  0.00    -0.187 N 
ATOM     11  N   UNL     1     -17.472   4.360  19.658  0.00  0.00    -0.041 NA
ATOM     12  N   UNL     1     -18.170   5.619  17.955  0.00  0.00    -0.071 NA
ATOM     13  N   UNL     1     -18.277   4.409  18.603  0.00  0.00    -0.020 NA
ATOM     22  C   UNL     1     -17.283   6.308  18.636  0.00  0.00    +0.342 A 
BRANCH  22   4
ATOM      4  O   UNL     1     -16.865   7.532  18.373  0.00  0.00    -0.423 OA
BRANCH   4  26
ATOM     26  C   UNL     1     -15.763   7.789  17.570  0.00  0.00    +0.134 A 
ATOM     29  C   UNL     1     -14.567   8.219  18.144  0.00  0.00    +0.069 A 
ATOM     31  C   UNL     1     -13.459   8.479  17.338  0.00  0.00    +0.033 A 
ATOM     32  C   UNL     1     -15.852   7.620  16.189  0.00  0.00    +0.046 A 
ATOM     37  C   UNL     1     -13.548   8.309  15.956  0.00  0.00    +0.023 A 
ATOM     38  C   UNL     1     -14.744   7.880  15.381  0.00  0.00    +0.005 A 
BRANCH  31  14
ATOM      7  O   UNL     1      -9.794   9.504  19.125  0.00  0.00    -0.377 OA
ATOM     14  N   UNL     1     -12.259   8.909  17.913  0.00  0.00    -0.325 N 
ATOM     33  C   UNL     1     -10.999   8.503  17.274  0.00  0.00    +0.133 C 
ATOM     34  C   UNL     1     -12.180   9.133  19.361  0.00  0.00    +0.133 C 
ATOM     35  C   UNL     1      -9.879   9.444  17.702  0.00  0.00    +0.178 C 
ATOM     36  C   UNL     1     -10.996  10.040  19.677  0.00  0.00    +0.178 C 
ENDBRANCH  31  14
ENDBRANCH   4  26
ENDBRANCH  22   4
ENDBRANCH  19  10
BRANCH  18   9
ATOM      9  N   UNL     1     -15.495   3.136  24.294  0.00  0.00    -0.182 NA
ATOM     41  H   UNL     1     -14.742   2.556  23.906  0.00  0.00    +0.148 HD
BRANCH   9   1
ATOM      1  S   UNL     1     -16.911   2.420  24.901  0.00  0.00    +0.059 S 
ATOM      5  O   UNL     1     -17.038   1.076  24.371  0.00  0.00    -0.153 OA
ATOM      6  O   UNL     1     -18.005   3.364  24.767  0.00  0.00    -0.153 OA
BRANCH   1  23
ATOM     23  C   UNL     1     -16.547   2.295  26.626  0.00  0.00    +0.105 A 
ATOM     24  C   UNL     1     -16.685   1.071  27.281  0.00  0.00    +0.030 A 
ATOM     25  C   UNL     1     -16.122   3.420  27.333  0.00  0.00    +0.030 A 
ATOM     27  C   UNL     1     -16.398   0.971  28.642  0.00  0.00    +0.025 A 
ATOM     28  C   UNL     1     -15.834   3.321  28.695  0.00  0.00    +0.025 A 
ATOM     30  C   UNL     1     -15.972   2.098  29.348  0.00  0.00    +0.033 A 
BRANCH  30  15
ATOM      8  O   UNL     1     -13.595   0.905  30.761  0.00  0.00    -0.276 OA
ATOM     15  N   UNL     1     -15.684   1.998  30.710  0.00  0.00    -0.286 N 
ATOM     39  C   UNL     1     -14.557   1.428  31.317  0.00  0.00    +0.214 C 
ATOM     40  C   UNL     1     -14.623   1.520  32.821  0.00  0.00    +0.109 C 
ATOM     42  H   UNL     1     -16.386   2.392  31.333  0.00  0.00    +0.155 HD
ENDBRANCH  30  15
ENDBRANCH   1  23
ENDBRANCH   9   1
ENDBRANCH  18   9
TORSDOF 8
ENDMDL
