MODEL 1
REMARK VINA RESULT:      -7.3      0.000      0.000
REMARK  Name = 7673825
REMARK  5 active torsions:
REMARK  status: ('A' for Active; 'I' for Inactive)
REMARK    1  A    between atoms: S_1  and  C_19
REMARK    2  A    between atoms: S_1  and  C_25
REMARK    3  A    between atoms: C_16  and  C_19
REMARK    4  A    between atoms: C_17  and  C_20
REMARK    5  A    between atoms: C_23  and  C_27
REMARK                            x       y       z     vdW  Elec       q    Type
REMARK                         _______ _______ _______ _____ _____    ______ ____
ROOT
ATOM      2  O   UNL     1      15.345   5.929  19.770  0.00  0.00    -0.267 OA
ATOM      3  O   UNL     1      13.723   8.514  15.378  0.00  0.00    -0.275 OA
ATOM      4  N   UNL     1      13.029   9.633  17.293  0.00  0.00    -0.300 N 
ATOM      5  N   UNL     1      14.256   7.991  19.742  0.00  0.00    -0.311 N 
ATOM      7  C   UNL     1      11.822   8.254  18.991  0.00  0.00    +0.027 C 
ATOM      8  C   UNL     1      13.101  10.229  19.708  0.00  0.00    +0.054 C 
ATOM      9  C   UNL     1      11.807   9.451  19.935  0.00  0.00    +0.018 C 
ATOM     10  C   UNL     1      11.906   8.722  17.528  0.00  0.00    +0.113 C 
ATOM     11  C   UNL     1      12.993   7.340  19.371  0.00  0.00    +0.130 C 
ATOM     12  C   UNL     1      13.147  10.739  18.254  0.00  0.00    +0.117 C 
ATOM     13  C   UNL     1      14.316   9.365  19.987  0.00  0.00    +0.027 A 
ATOM     14  C   UNL     1      15.451   9.920  20.441  0.00  0.00    +0.022 A 
ATOM     15  C   UNL     1      15.368   7.149  19.942  0.00  0.00    +0.259 A 
ATOM     16  C   UNL     1      13.839   9.452  16.173  0.00  0.00    +0.225 C 
ATOM     17  C   UNL     1      16.636   7.805  20.415  0.00  0.00    +0.047 A 
ATOM     18  C   UNL     1      16.627   9.126  20.652  0.00  0.00    +0.015 A 
ENDROOT
BRANCH  17  20
ATOM     20  C   UNL     1      17.871   7.026  20.612  0.00  0.00    -0.011 A 
ATOM     21  C   UNL     1      18.705   7.300  21.696  0.00  0.00    +0.027 A 
ATOM     22  C   UNL     1      18.208   6.014  19.713  0.00  0.00    +0.009 A 
ATOM     23  C   UNL     1      19.875   6.562  21.881  0.00  0.00    +0.052 A 
ATOM     24  C   UNL     1      19.377   5.275  19.898  0.00  0.00    +0.002 A 
ATOM     26  C   UNL     1      20.210   5.550  20.982  0.00  0.00    +0.019 A 
BRANCH  23  27
ATOM      6  N   UNL     1      21.426   7.071  23.893  0.00  0.00    -0.191 NA
ATOM     27  C   UNL     1      20.730   6.844  22.991  0.00  0.00    +0.099 C 
ENDBRANCH  23  27
ENDBRANCH  17  20
BRANCH  16  19
ATOM     19  C   UNL     1      14.921  10.478  15.949  0.00  0.00    +0.164 C 
BRANCH  19   1
ATOM      1  S   UNL     1      14.320  11.646  14.720  0.00  0.00    -0.155 S 
ATOM     25  C   UNL     1      15.722  11.593  13.576  0.00  0.00    +0.085 C 
ENDBRANCH  19   1
ENDBRANCH  16  19
TORSDOF 4
ENDMDL
MODEL 2
REMARK VINA RESULT:      -6.9     14.832     18.909
REMARK  Name = 7673825
REMARK  5 active torsions:
REMARK  status: ('A' for Active; 'I' for Inactive)
REMARK    1  A    between atoms: S_1  and  C_19
REMARK    2  A    between atoms: S_1  and  C_25
REMARK    3  A    between atoms: C_16  and  C_19
REMARK    4  A    between atoms: C_17  and  C_20
REMARK    5  A    between atoms: C_23  and  C_27
REMARK                            x       y       z     vdW  Elec       q    Type
REMARK                         _______ _______ _______ _____ _____    ______ ____
ROOT
ATOM      2  O   UNL     1      12.410   7.554   2.967  0.00  0.00    -0.267 OA
ATOM      3  O   UNL     1      12.895   6.461  -2.245  0.00  0.00    -0.275 OA
ATOM      4  N   UNL     1      13.506   4.623  -0.960  0.00  0.00    -0.300 N 
ATOM      5  N   UNL     1      12.971   5.476   2.071  0.00  0.00    -0.311 N 
ATOM      7  C   UNL     1      15.179   5.055   0.845  0.00  0.00    +0.027 C 
ATOM      8  C   UNL     1      13.554   3.226   1.098  0.00  0.00    +0.054 C 
ATOM      9  C   UNL     1      15.012   3.619   1.327  0.00  0.00    +0.018 C 
ATOM     10  C   UNL     1      14.831   5.166  -0.650  0.00  0.00    +0.113 C 
ATOM     11  C   UNL     1      14.306   5.972   1.709  0.00  0.00    +0.130 C 
ATOM     12  C   UNL     1      13.234   3.288  -0.408  0.00  0.00    +0.117 C 
ATOM     13  C   UNL     1      12.615   4.141   1.861  0.00  0.00    +0.027 A 
ATOM     14  C   UNL     1      11.436   3.680   2.309  0.00  0.00    +0.022 A 
ATOM     15  C   UNL     1      12.118   6.381   2.734  0.00  0.00    +0.259 A 
ATOM     16  C   UNL     1      12.647   5.339  -1.792  0.00  0.00    +0.225 C 
ATOM     17  C   UNL     1      10.789   5.844   3.190  0.00  0.00    +0.047 A 
ATOM     18  C   UNL     1      10.511   4.549   2.978  0.00  0.00    +0.015 A 
ENDROOT
BRANCH  17  20
ATOM     20  C   UNL     1       9.801   6.714   3.852  0.00  0.00    -0.011 A 
ATOM     21  C   UNL     1       9.716   6.744   5.244  0.00  0.00    +0.027 A 
ATOM     22  C   UNL     1       8.950   7.511   3.086  0.00  0.00    +0.009 A 
ATOM     23  C   UNL     1       8.780   7.568   5.870  0.00  0.00    +0.052 A 
ATOM     24  C   UNL     1       8.014   8.336   3.711  0.00  0.00    +0.002 A 
ATOM     26  C   UNL     1       7.929   8.364   5.102  0.00  0.00    +0.019 A 
BRANCH  23  27
ATOM      6  N   UNL     1       8.620   7.618   8.455  0.00  0.00    -0.191 NA
ATOM     27  C   UNL     1       8.692   7.596   7.296  0.00  0.00    +0.099 C 
ENDBRANCH  23  27
ENDBRANCH  17  20
BRANCH  16  19
ATOM     19  C   UNL     1      11.336   4.680  -2.137  0.00  0.00    +0.164 C 
BRANCH  19   1
ATOM      1  S   UNL     1      10.075   5.370  -1.056  0.00  0.00    -0.155 S 
ATOM     25  C   UNL     1       8.839   5.799  -2.306  0.00  0.00    +0.085 C 
ENDBRANCH  19   1
ENDBRANCH  16  19
TORSDOF 4
ENDMDL
MODEL 3
REMARK VINA RESULT:      -6.8      4.178      7.383
REMARK  Name = 7673825
REMARK  5 active torsions:
REMARK  status: ('A' for Active; 'I' for Inactive)
REMARK    1  A    between atoms: S_1  and  C_19
REMARK    2  A    between atoms: S_1  and  C_25
REMARK    3  A    between atoms: C_16  and  C_19
REMARK    4  A    between atoms: C_17  and  C_20
REMARK    5  A    between atoms: C_23  and  C_27
REMARK                            x       y       z     vdW  Elec       q    Type
REMARK                         _______ _______ _______ _____ _____    ______ ____
ROOT
ATOM      2  O   UNL     1      14.186  11.852  22.348  0.00  0.00    -0.267 OA
ATOM      3  O   UNL     1      14.766   9.587  17.539  0.00  0.00    -0.275 OA
ATOM      4  N   UNL     1      14.459   7.968  19.177  0.00  0.00    -0.300 N 
ATOM      5  N   UNL     1      13.976   9.574  21.895  0.00  0.00    -0.311 N 
ATOM      7  C   UNL     1      15.958   8.125  21.169  0.00  0.00    +0.027 C 
ATOM      8  C   UNL     1      13.727   7.117  21.398  0.00  0.00    +0.054 C 
ATOM      9  C   UNL     1      15.187   6.987  21.826  0.00  0.00    +0.018 C 
ATOM     10  C   UNL     1      15.848   8.039  19.637  0.00  0.00    +0.113 C 
ATOM     11  C   UNL     1      15.429   9.458  21.711  0.00  0.00    +0.130 C 
ATOM     12  C   UNL     1      13.623   6.974  19.867  0.00  0.00    +0.117 C 
ATOM     13  C   UNL     1      13.147   8.451  21.829  0.00  0.00    +0.027 A 
ATOM     14  C   UNL     1      11.841   8.560  22.120  0.00  0.00    +0.022 A 
ATOM     15  C   UNL     1      13.482  10.846  22.247  0.00  0.00    +0.259 A 
ATOM     16  C   UNL     1      14.048   8.757  18.104  0.00  0.00    +0.225 C 
ATOM     17  C   UNL     1      12.008  10.944  22.530  0.00  0.00    +0.047 A 
ATOM     18  C   UNL     1      11.266   9.827  22.469  0.00  0.00    +0.015 A 
ENDROOT
BRANCH  17  20
ATOM     20  C   UNL     1      11.378  12.234  22.860  0.00  0.00    -0.011 A 
ATOM     21  C   UNL     1      11.389  12.701  24.174  0.00  0.00    +0.027 A 
ATOM     22  C   UNL     1      10.769  12.990  21.858  0.00  0.00    +0.009 A 
ATOM     23  C   UNL     1      10.792  13.923  24.487  0.00  0.00    +0.052 A 
ATOM     24  C   UNL     1      10.173  14.212  22.169  0.00  0.00    +0.002 A 
ATOM     26  C   UNL     1      10.184  14.678  23.484  0.00  0.00    +0.019 A 
BRANCH  23  27
ATOM      6  N   UNL     1      10.811  14.790  26.928  0.00  0.00    -0.191 NA
ATOM     27  C   UNL     1      10.802  14.400  25.834  0.00  0.00    +0.099 C 
ENDBRANCH  23  27
ENDBRANCH  17  20
BRANCH  16  19
ATOM     19  C   UNL     1      12.629   8.567  17.630  0.00  0.00    +0.164 C 
BRANCH  19   1
ATOM      1  S   UNL     1      12.461   9.414  16.053  0.00  0.00    -0.155 S 
ATOM     25  C   UNL     1      10.712   9.072  15.737  0.00  0.00    +0.085 C 
ENDBRANCH  19   1
ENDBRANCH  16  19
TORSDOF 4
ENDMDL
MODEL 4
REMARK VINA RESULT:      -6.5     16.622     19.538
REMARK  Name = 7673825
REMARK  5 active torsions:
REMARK  status: ('A' for Active; 'I' for Inactive)
REMARK    1  A    between atoms: S_1  and  C_19
REMARK    2  A    between atoms: S_1  and  C_25
REMARK    3  A    between atoms: C_16  and  C_19
REMARK    4  A    between atoms: C_17  and  C_20
REMARK    5  A    between atoms: C_23  and  C_27
REMARK                            x       y       z     vdW  Elec       q    Type
REMARK                         _______ _______ _______ _____ _____    ______ ____
ROOT
ATOM      2  O   UNL     1      12.272   7.703   2.836  0.00  0.00    -0.267 OA
ATOM      3  O   UNL     1      13.098   6.271  -2.249  0.00  0.00    -0.275 OA
ATOM      4  N   UNL     1      13.559   4.503  -0.813  0.00  0.00    -0.300 N 
ATOM      5  N   UNL     1      12.833   5.558   2.112  0.00  0.00    -0.311 N 
ATOM      7  C   UNL     1      15.109   5.003   1.080  0.00  0.00    +0.027 C 
ATOM      8  C   UNL     1      13.415   3.237   1.324  0.00  0.00    +0.054 C 
ATOM      9  C   UNL     1      14.864   3.606   1.636  0.00  0.00    +0.018 C 
ATOM     10  C   UNL     1      14.874   5.029  -0.440  0.00  0.00    +0.113 C 
ATOM     11  C   UNL     1      14.205   5.996   1.820  0.00  0.00    +0.130 C 
ATOM     12  C   UNL     1      13.206   3.213  -0.203  0.00  0.00    +0.117 C 
ATOM     13  C   UNL     1      12.452   4.223   1.958  0.00  0.00    +0.027 A 
ATOM     14  C   UNL     1      11.230   3.822   2.345  0.00  0.00    +0.022 A 
ATOM     15  C   UNL     1      11.962   6.525   2.654  0.00  0.00    +0.259 A 
ATOM     16  C   UNL     1      12.784   5.187  -1.749  0.00  0.00    +0.225 C 
ATOM     17  C   UNL     1      10.588   6.053   3.043  0.00  0.00    +0.047 A 
ATOM     18  C   UNL     1      10.286   4.755   2.890  0.00  0.00    +0.015 A 
ENDROOT
BRANCH  17  20
ATOM     20  C   UNL     1       9.582   6.989   3.575  0.00  0.00    -0.011 A 
ATOM     21  C   UNL     1       8.863   7.811   2.708  0.00  0.00    +0.027 A 
ATOM     22  C   UNL     1       9.347   7.053   4.949  0.00  0.00    +0.009 A 
ATOM     23  C   UNL     1       7.911   8.697   3.213  0.00  0.00    +0.052 A 
ATOM     24  C   UNL     1       8.395   7.938   5.455  0.00  0.00    +0.002 A 
ATOM     26  C   UNL     1       7.677   8.760   4.587  0.00  0.00    +0.019 A 
BRANCH  23  27
ATOM      6  N   UNL     1       6.577  10.225   1.601  0.00  0.00    -0.191 NA
ATOM     27  C   UNL     1       7.175   9.540   2.323  0.00  0.00    +0.099 C 
ENDBRANCH  23  27
ENDBRANCH  17  20
BRANCH  16  19
ATOM     19  C   UNL     1      11.481   4.542  -2.149  0.00  0.00    +0.164 C 
BRANCH  19   1
ATOM      1  S   UNL     1      10.180   5.264  -1.139  0.00  0.00    -0.155 S 
ATOM     25  C   UNL     1       8.940   5.530  -2.429  0.00  0.00    +0.085 C 
ENDBRANCH  19   1
ENDBRANCH  16  19
TORSDOF 4
ENDMDL
MODEL 5
REMARK VINA RESULT:      -6.5     28.023     29.797
REMARK  Name = 7673825
REMARK  5 active torsions:
REMARK  status: ('A' for Active; 'I' for Inactive)
REMARK    1  A    between atoms: S_1  and  C_19
REMARK    2  A    between atoms: S_1  and  C_25
REMARK    3  A    between atoms: C_16  and  C_19
REMARK    4  A    between atoms: C_17  and  C_20
REMARK    5  A    between atoms: C_23  and  C_27
REMARK                            x       y       z     vdW  Elec       q    Type
REMARK                         _______ _______ _______ _____ _____    ______ ____
ROOT
ATOM      2  O   UNL     1      -5.633 -13.347  15.037  0.00  0.00    -0.267 OA
ATOM      3  O   UNL     1     -10.174 -10.628  15.798  0.00  0.00    -0.275 OA
ATOM      4  N   UNL     1      -9.014 -10.864  17.798  0.00  0.00    -0.300 N 
ATOM      5  N   UNL     1      -6.294 -12.359  17.043  0.00  0.00    -0.311 N 
ATOM      7  C   UNL     1      -8.309 -13.187  18.388  0.00  0.00    +0.027 C 
ATOM      8  C   UNL     1      -7.001 -11.271  19.202  0.00  0.00    +0.054 C 
ATOM      9  C   UNL     1      -7.553 -12.640  19.593  0.00  0.00    +0.018 C 
ATOM     10  C   UNL     1      -9.461 -12.245  18.000  0.00  0.00    +0.113 C 
ATOM     11  C   UNL     1      -7.320 -13.393  17.235  0.00  0.00    +0.130 C 
ATOM     12  C   UNL     1      -8.167 -10.320  18.869  0.00  0.00    +0.117 C 
ATOM     13  C   UNL     1      -6.068 -11.377  18.011  0.00  0.00    +0.027 A 
ATOM     14  C   UNL     1      -5.047 -10.516  17.871  0.00  0.00    +0.022 A 
ATOM     15  C   UNL     1      -5.486 -12.475  15.894  0.00  0.00    +0.259 A 
ATOM     16  C   UNL     1      -9.463 -10.150  16.688  0.00  0.00    +0.225 C 
ATOM     17  C   UNL     1      -4.374 -11.472  15.748  0.00  0.00    +0.047 A 
ATOM     18  C   UNL     1      -4.194 -10.564  16.719  0.00  0.00    +0.015 A 
ENDROOT
BRANCH  17  20
ATOM     20  C   UNL     1      -3.498 -11.472  14.563  0.00  0.00    -0.011 A 
ATOM     21  C   UNL     1      -3.810 -10.673  13.463  0.00  0.00    +0.027 A 
ATOM     22  C   UNL     1      -2.355 -12.271  14.540  0.00  0.00    +0.009 A 
ATOM     23  C   UNL     1      -2.981 -10.674  12.341  0.00  0.00    +0.052 A 
ATOM     24  C   UNL     1      -1.524 -12.271  13.420  0.00  0.00    +0.002 A 
ATOM     26  C   UNL     1      -1.838 -11.473  12.320  0.00  0.00    +0.019 A 
BRANCH  23  27
ATOM      6  N   UNL     1      -3.562  -9.192  10.297  0.00  0.00    -0.191 NA
ATOM     27  C   UNL     1      -3.302  -9.857  11.213  0.00  0.00    +0.099 C 
ENDBRANCH  23  27
ENDBRANCH  17  20
BRANCH  16  19
ATOM     19  C   UNL     1      -9.031  -8.709  16.591  0.00  0.00    +0.164 C 
BRANCH  19   1
ATOM      1  S   UNL     1     -10.443  -7.685  17.029  0.00  0.00    -0.155 S 
ATOM     25  C   UNL     1     -10.408  -6.545  15.624  0.00  0.00    +0.085 C 
ENDBRANCH  19   1
ENDBRANCH  16  19
TORSDOF 4
ENDMDL
MODEL 6
REMARK VINA RESULT:      -6.5     27.484     29.717
REMARK  Name = 7673825
REMARK  5 active torsions:
REMARK  status: ('A' for Active; 'I' for Inactive)
REMARK    1  A    between atoms: S_1  and  C_19
REMARK    2  A    between atoms: S_1  and  C_25
REMARK    3  A    between atoms: C_16  and  C_19
REMARK    4  A    between atoms: C_17  and  C_20
REMARK    5  A    between atoms: C_23  and  C_27
REMARK                            x       y       z     vdW  Elec       q    Type
REMARK                         _______ _______ _______ _____ _____    ______ ____
ROOT
ATOM      2  O   UNL     1      -6.652 -10.418  14.054  0.00  0.00    -0.267 OA
ATOM      3  O   UNL     1      -4.091 -14.835  12.462  0.00  0.00    -0.275 OA
ATOM      4  N   UNL     1      -2.585 -13.109  12.856  0.00  0.00    -0.300 N 
ATOM      5  N   UNL     1      -4.336 -10.669  13.943  0.00  0.00    -0.311 N 
ATOM      7  C   UNL     1      -3.084 -10.938  11.726  0.00  0.00    +0.027 C 
ATOM      8  C   UNL     1      -1.835 -10.952  13.844  0.00  0.00    +0.054 C 
ATOM      9  C   UNL     1      -1.917 -10.296  12.467  0.00  0.00    +0.018 C 
ATOM     10  C   UNL     1      -2.861 -12.453  11.576  0.00  0.00    +0.113 C 
ATOM     11  C   UNL     1      -4.383 -10.619  12.475  0.00  0.00    +0.130 C 
ATOM     12  C   UNL     1      -1.556 -12.459  13.681  0.00  0.00    +0.117 C 
ATOM     13  C   UNL     1      -3.119 -10.748  14.625  0.00  0.00    +0.027 A 
ATOM     14  C   UNL     1      -3.091 -10.672  15.965  0.00  0.00    +0.022 A 
ATOM     15  C   UNL     1      -5.563 -10.525  14.620  0.00  0.00    +0.259 A 
ATOM     16  C   UNL     1      -3.228 -14.306  13.169  0.00  0.00    +0.225 C 
ATOM     17  C   UNL     1      -5.503 -10.480  16.123  0.00  0.00    +0.047 A 
ATOM     18  C   UNL     1      -4.304 -10.541  16.721  0.00  0.00    +0.015 A 
ENDROOT
BRANCH  17  20
ATOM     20  C   UNL     1      -6.730 -10.379  16.933  0.00  0.00    -0.011 A 
ATOM     21  C   UNL     1      -7.628  -9.334  16.715  0.00  0.00    +0.027 A 
ATOM     22  C   UNL     1      -6.995 -11.329  17.920  0.00  0.00    +0.009 A 
ATOM     23  C   UNL     1      -8.789  -9.239  17.482  0.00  0.00    +0.052 A 
ATOM     24  C   UNL     1      -8.156 -11.235  18.687  0.00  0.00    +0.002 A 
ATOM     26  C   UNL     1      -9.052 -10.190  18.469  0.00  0.00    +0.019 A 
BRANCH  23  27
ATOM      6  N   UNL     1     -10.456  -7.297  17.079  0.00  0.00    -0.191 NA
ATOM     27  C   UNL     1      -9.708  -8.167  17.259  0.00  0.00    +0.099 C 
ENDBRANCH  23  27
ENDBRANCH  17  20
BRANCH  16  19
ATOM     19  C   UNL     1      -2.830 -14.968  14.464  0.00  0.00    +0.164 C 
BRANCH  19   1
ATOM      1  S   UNL     1      -4.319 -15.642  15.214  0.00  0.00    -0.155 S 
ATOM     25  C   UNL     1      -5.019 -14.109  15.873  0.00  0.00    +0.085 C 
ENDBRANCH  19   1
ENDBRANCH  16  19
TORSDOF 4
ENDMDL
MODEL 7
REMARK VINA RESULT:      -6.3     13.471     17.555
REMARK  Name = 7673825
REMARK  5 active torsions:
REMARK  status: ('A' for Active; 'I' for Inactive)
REMARK    1  A    between atoms: S_1  and  C_19
REMARK    2  A    between atoms: S_1  and  C_25
REMARK    3  A    between atoms: C_16  and  C_19
REMARK    4  A    between atoms: C_17  and  C_20
REMARK    5  A    between atoms: C_23  and  C_27
REMARK                            x       y       z     vdW  Elec       q    Type
REMARK                         _______ _______ _______ _____ _____    ______ ____
ROOT
ATOM      2  O   UNL     1      10.173   7.050   1.771  0.00  0.00    -0.267 OA
ATOM      3  O   UNL     1      12.436   9.795   5.763  0.00  0.00    -0.275 OA
ATOM      4  N   UNL     1      10.697   8.474   6.557  0.00  0.00    -0.300 N 
ATOM      5  N   UNL     1       9.639   6.832   4.031  0.00  0.00    -0.311 N 
ATOM      7  C   UNL     1       8.513   8.704   5.367  0.00  0.00    +0.027 C 
ATOM      8  C   UNL     1       9.082   6.583   6.475  0.00  0.00    +0.054 C 
ATOM      9  C   UNL     1       7.946   7.569   6.211  0.00  0.00    +0.018 C 
ATOM     10  C   UNL     1       9.661   9.408   6.110  0.00  0.00    +0.113 C 
ATOM     11  C   UNL     1       8.964   8.137   4.015  0.00  0.00    +0.130 C 
ATOM     12  C   UNL     1      10.201   7.286   7.267  0.00  0.00    +0.117 C 
ATOM     13  C   UNL     1       9.640   6.033   5.176  0.00  0.00    +0.027 A 
ATOM     14  C   UNL     1      10.157   4.794   5.133  0.00  0.00    +0.022 A 
ATOM     15  C   UNL     1      10.185   6.388   2.810  0.00  0.00    +0.259 A 
ATOM     16  C   UNL     1      12.041   8.792   6.363  0.00  0.00    +0.225 C 
ATOM     17  C   UNL     1      10.791   5.011   2.803  0.00  0.00    +0.047 A 
ATOM     18  C   UNL     1      10.745   4.282   3.929  0.00  0.00    +0.015 A 
ENDROOT
BRANCH  17  20
ATOM     20  C   UNL     1      11.431   4.465   1.593  0.00  0.00    -0.011 A 
ATOM     21  C   UNL     1      10.704   4.350   0.409  0.00  0.00    +0.027 A 
ATOM     22  C   UNL     1      12.767   4.063   1.632  0.00  0.00    +0.009 A 
ATOM     23  C   UNL     1      11.311   3.833  -0.736  0.00  0.00    +0.052 A 
ATOM     24  C   UNL     1      13.375   3.547   0.488  0.00  0.00    +0.002 A 
ATOM     26  C   UNL     1      12.647   3.431  -0.696  0.00  0.00    +0.019 A 
BRANCH  23  27
ATOM      6  N   UNL     1       9.958   3.615  -2.935  0.00  0.00    -0.191 NA
ATOM     27  C   UNL     1      10.565   3.713  -1.949  0.00  0.00    +0.099 C 
ENDBRANCH  23  27
ENDBRANCH  17  20
BRANCH  16  19
ATOM     19  C   UNL     1      13.051   7.825   6.927  0.00  0.00    +0.164 C 
BRANCH  19   1
ATOM      1  S   UNL     1      14.210   7.418   5.613  0.00  0.00    -0.155 S 
ATOM     25  C   UNL     1      15.635   8.372   6.191  0.00  0.00    +0.085 C 
ENDBRANCH  19   1
ENDBRANCH  16  19
TORSDOF 4
ENDMDL
MODEL 8
REMARK VINA RESULT:      -6.2     27.920     30.437
REMARK  Name = 7673825
REMARK  5 active torsions:
REMARK  status: ('A' for Active; 'I' for Inactive)
REMARK    1  A    between atoms: S_1  and  C_19
REMARK    2  A    between atoms: S_1  and  C_25
REMARK    3  A    between atoms: C_16  and  C_19
REMARK    4  A    between atoms: C_17  and  C_20
REMARK    5  A    between atoms: C_23  and  C_27
REMARK                            x       y       z     vdW  Elec       q    Type
REMARK                         _______ _______ _______ _____ _____    ______ ____
ROOT
ATOM      2  O   UNL     1      -4.738 -12.967   9.128  0.00  0.00    -0.267 OA
ATOM      3  O   UNL     1      -6.486 -12.310  14.139  0.00  0.00    -0.275 OA
ATOM      4  N   UNL     1      -4.267 -11.646  13.949  0.00  0.00    -0.300 N 
ATOM      5  N   UNL     1      -3.529 -11.979  10.860  0.00  0.00    -0.311 N 
ATOM      7  C   UNL     1      -2.714 -13.297  12.898  0.00  0.00    +0.027 C 
ATOM      8  C   UNL     1      -2.235 -10.891  12.727  0.00  0.00    +0.054 C 
ATOM      9  C   UNL     1      -1.597 -12.261  12.947  0.00  0.00    +0.018 C 
ATOM     10  C   UNL     1      -3.757 -13.019  13.994  0.00  0.00    +0.113 C 
ATOM     11  C   UNL     1      -3.336 -13.289  11.497  0.00  0.00    +0.130 C 
ATOM     12  C   UNL     1      -3.237 -10.601  13.862  0.00  0.00    +0.117 C 
ATOM     13  C   UNL     1      -2.943 -10.826  11.387  0.00  0.00    +0.027 A 
ATOM     14  C   UNL     1      -3.032  -9.661  10.725  0.00  0.00    +0.022 A 
ATOM     15  C   UNL     1      -4.237 -11.966   9.641  0.00  0.00    +0.259 A 
ATOM     16  C   UNL     1      -5.637 -11.416  14.068  0.00  0.00    +0.225 C 
ATOM     17  C   UNL     1      -4.352 -10.639   8.941  0.00  0.00    +0.047 A 
ATOM     18  C   UNL     1      -3.752  -9.570   9.487  0.00  0.00    +0.015 A 
ENDROOT
BRANCH  17  20
ATOM     20  C   UNL     1      -5.110 -10.502   7.685  0.00  0.00    -0.011 A 
ATOM     21  C   UNL     1      -4.754 -11.256   6.567  0.00  0.00    +0.027 A 
ATOM     22  C   UNL     1      -6.186  -9.618   7.614  0.00  0.00    +0.009 A 
ATOM     23  C   UNL     1      -5.472 -11.126   5.379  0.00  0.00    +0.052 A 
ATOM     24  C   UNL     1      -6.906  -9.487   6.426  0.00  0.00    +0.002 A 
ATOM     26  C   UNL     1      -6.548 -10.241   5.308  0.00  0.00    +0.019 A 
BRANCH  23  27
ATOM      6  N   UNL     1      -4.807 -12.523   3.300  0.00  0.00    -0.191 NA
ATOM     27  C   UNL     1      -5.105 -11.897   4.233  0.00  0.00    +0.099 C 
ENDBRANCH  23  27
ENDBRANCH  17  20
BRANCH  16  19
ATOM     19  C   UNL     1      -6.079  -9.976  14.100  0.00  0.00    +0.164 C 
BRANCH  19   1
ATOM      1  S   UNL     1      -6.516  -9.500  12.421  0.00  0.00    -0.155 S 
ATOM     25  C   UNL     1      -8.303  -9.778  12.508  0.00  0.00    +0.085 C 
ENDBRANCH  19   1
ENDBRANCH  16  19
TORSDOF 4
ENDMDL
MODEL 9
REMARK VINA RESULT:      -6.1     33.854     35.840
REMARK  Name = 7673825
REMARK  5 active torsions:
REMARK  status: ('A' for Active; 'I' for Inactive)
REMARK    1  A    between atoms: S_1  and  C_19
REMARK    2  A    between atoms: S_1  and  C_25
REMARK    3  A    between atoms: C_16  and  C_19
REMARK    4  A    between atoms: C_17  and  C_20
REMARK    5  A    between atoms: C_23  and  C_27
REMARK                            x       y       z     vdW  Elec       q    Type
REMARK                         _______ _______ _______ _____ _____    ______ ____
ROOT
ATOM      2  O   UNL     1      -9.801  -6.829  39.314  0.00  0.00    -0.267 OA
ATOM      3  O   UNL     1      -8.911 -11.284  42.135  0.00  0.00    -0.275 OA
ATOM      4  N   UNL     1      -7.374 -11.088  40.403  0.00  0.00    -0.300 N 
ATOM      5  N   UNL     1      -8.015  -8.294  38.995  0.00  0.00    -0.311 N 
ATOM      7  C   UNL     1      -8.330 -10.683  38.130  0.00  0.00    +0.027 C 
ATOM      8  C   UNL     1      -6.074  -9.866  38.669  0.00  0.00    +0.054 C 
ATOM      9  C   UNL     1      -6.919 -10.520  37.578  0.00  0.00    +0.018 C 
ATOM     10  C   UNL     1      -8.318 -11.567  39.390  0.00  0.00    +0.113 C 
ATOM     11  C   UNL     1      -8.916  -9.294  38.407  0.00  0.00    +0.130 C 
ATOM     12  C   UNL     1      -6.024 -10.786  39.904  0.00  0.00    +0.117 C 
ATOM     13  C   UNL     1      -6.636  -8.512  39.059  0.00  0.00    +0.027 A 
ATOM     14  C   UNL     1      -5.819  -7.538  39.488  0.00  0.00    +0.022 A 
ATOM     15  C   UNL     1      -8.595  -7.071  39.387  0.00  0.00    +0.259 A 
ATOM     16  C   UNL     1      -7.770 -11.026  41.738  0.00  0.00    +0.225 C 
ATOM     17  C   UNL     1      -7.658  -6.012  39.900  0.00  0.00    +0.047 A 
ATOM     18  C   UNL     1      -6.342  -6.273  39.919  0.00  0.00    +0.015 A 
ENDROOT
BRANCH  17  20
ATOM     20  C   UNL     1      -8.162  -4.714  40.380  0.00  0.00    -0.011 A 
ATOM     21  C   UNL     1      -8.557  -3.736  39.467  0.00  0.00    +0.027 A 
ATOM     22  C   UNL     1      -8.246  -4.461  41.749  0.00  0.00    +0.009 A 
ATOM     23  C   UNL     1      -9.034  -2.507  39.922  0.00  0.00    +0.052 A 
ATOM     24  C   UNL     1      -8.724  -3.233  42.206  0.00  0.00    +0.002 A 
ATOM     26  C   UNL     1      -9.117  -2.255  41.292  0.00  0.00    +0.019 A 
BRANCH  23  27
ATOM      6  N   UNL     1      -9.764  -0.689  38.227  0.00  0.00    -0.191 NA
ATOM     27  C   UNL     1      -9.437  -1.504  38.986  0.00  0.00    +0.099 C 
ENDBRANCH  23  27
ENDBRANCH  17  20
BRANCH  16  19
ATOM     19  C   UNL     1      -6.720 -10.608  42.735  0.00  0.00    +0.164 C 
BRANCH  19   1
ATOM      1  S   UNL     1      -6.908  -8.841  43.018  0.00  0.00    -0.155 S 
ATOM     25  C   UNL     1      -5.159  -8.380  43.073  0.00  0.00    +0.085 C 
ENDBRANCH  19   1
ENDBRANCH  16  19
TORSDOF 4
ENDMDL
MODEL 10
REMARK VINA RESULT:      -6.1     31.562     33.324
REMARK  Name = 7673825
REMARK  5 active torsions:
REMARK  status: ('A' for Active; 'I' for Inactive)
REMARK    1  A    between atoms: S_1  and  C_19
REMARK    2  A    between atoms: S_1  and  C_25
REMARK    3  A    between atoms: C_16  and  C_19
REMARK    4  A    between atoms: C_17  and  C_20
REMARK    5  A    between atoms: C_23  and  C_27
REMARK                            x       y       z     vdW  Elec       q    Type
REMARK                         _______ _______ _______ _____ _____    ______ ____
ROOT
ATOM      2  O   UNL     1     -11.471  -7.586   9.974  0.00  0.00    -0.267 OA
ATOM      3  O   UNL     1     -16.545  -5.948  10.392  0.00  0.00    -0.275 OA
ATOM      4  N   UNL     1     -15.130  -4.554  11.598  0.00  0.00    -0.300 N 
ATOM      5  N   UNL     1     -12.177  -5.641  11.050  0.00  0.00    -0.311 N 
ATOM      7  C   UNL     1     -13.576  -5.683  13.195  0.00  0.00    +0.027 C 
ATOM      8  C   UNL     1     -12.941  -3.530  12.192  0.00  0.00    +0.054 C 
ATOM      9  C   UNL     1     -12.916  -4.341  13.485  0.00  0.00    +0.018 C 
ATOM     10  C   UNL     1     -15.027  -5.482  12.727  0.00  0.00    +0.113 C 
ATOM     11  C   UNL     1     -12.735  -6.433  12.155  0.00  0.00    +0.130 C 
ATOM     12  C   UNL     1     -14.401  -3.287  11.763  0.00  0.00    +0.117 C 
ATOM     13  C   UNL     1     -12.193  -4.245  11.083  0.00  0.00    +0.027 A 
ATOM     14  C   UNL     1     -11.571  -3.541  10.123  0.00  0.00    +0.022 A 
ATOM     15  C   UNL     1     -11.535  -6.357  10.020  0.00  0.00    +0.259 A 
ATOM     16  C   UNL     1     -15.942  -4.877  10.512  0.00  0.00    +0.225 C 
ATOM     17  C   UNL     1     -10.881  -5.541   8.938  0.00  0.00    +0.047 A 
ATOM     18  C   UNL     1     -10.912  -4.203   9.033  0.00  0.00    +0.015 A 
ENDROOT
BRANCH  17  20
ATOM     20  C   UNL     1     -10.222  -6.186   7.789  0.00  0.00    -0.011 A 
ATOM     21  C   UNL     1     -10.970  -6.554   6.670  0.00  0.00    +0.027 A 
ATOM     22  C   UNL     1      -8.849  -6.429   7.818  0.00  0.00    +0.009 A 
ATOM     23  C   UNL     1     -10.346  -7.165   5.583  0.00  0.00    +0.052 A 
ATOM     24  C   UNL     1      -8.223  -7.039   6.730  0.00  0.00    +0.002 A 
ATOM     26  C   UNL     1      -8.972  -7.407   5.613  0.00  0.00    +0.019 A 
BRANCH  23  27
ATOM      6  N   UNL     1     -11.735  -7.852   3.506  0.00  0.00    -0.191 NA
ATOM     27  C   UNL     1     -11.113  -7.544   4.438  0.00  0.00    +0.099 C 
ENDBRANCH  23  27
ENDBRANCH  17  20
BRANCH  16  19
ATOM     19  C   UNL     1     -16.067  -3.837   9.428  0.00  0.00    +0.164 C 
BRANCH  19   1
ATOM      1  S   UNL     1     -14.976  -4.318   8.081  0.00  0.00    -0.155 S 
ATOM     25  C   UNL     1     -15.848  -3.512   6.715  0.00  0.00    +0.085 C 
ENDBRANCH  19   1
ENDBRANCH  16  19
TORSDOF 4
ENDMDL
