REMARK  Name = 45361575
REMARK  10 active torsions:
REMARK  status: ('A' for Active; 'I' for Inactive)
REMARK    1  A    between atoms: O_2  and  C_11
REMARK    2  A    between atoms: N_5  and  C_15
REMARK    3  A    between atoms: N_6  and  C_25
REMARK    4  A    between atoms: C_8  and  C_18
REMARK    5  A    between atoms: C_10  and  C_20
REMARK    6  A    between atoms: C_14  and  C_19
REMARK    7  A    between atoms: C_19  and  C_21
REMARK    8  A    between atoms: C_19  and  C_22
REMARK    9  A    between atoms: C_23  and  C_24
REMARK   10  A    between atoms: C_25  and  C_28
REMARK                            x       y       z     vdW  Elec       q    Type
REMARK                         _______ _______ _______ _____ _____    ______ ____
ROOT
ATOM      8  C   UNL     1       0.023   0.225   1.530  0.00  0.00    -0.027 C 
ATOM      9  C   UNL     1      -0.193  -0.329   0.082  0.00  0.00    +0.028 C 
ATOM     10  C   UNL     1      -1.698  -0.714  -0.150  0.00  0.00    +0.012 C 
ATOM     11  C   UNL     1       0.841  -1.441  -0.256  0.00  0.00    +0.122 C 
ATOM     12  C   UNL     1       1.487   0.699   1.688  0.00  0.00    +0.007 C 
ATOM     13  C   UNL     1      -0.894   1.452   1.743  0.00  0.00    +0.009 C 
ATOM     14  C   UNL     1       2.299  -0.995   0.003  0.00  0.00    +0.029 C 
ATOM     15  C   UNL     1      -2.617   0.507   0.140  0.00  0.00    +0.076 C 
ATOM     16  C   UNL     1       2.502  -0.398   1.395  0.00  0.00    +0.007 C 
ATOM     17  C   UNL     1      -2.366   1.146   1.505  0.00  0.00    +0.023 C 
ATOM     18  C   UNL     1      -0.278  -0.832   2.622  0.00  0.00    +0.011 C 
ATOM     20  C   UNL     1      -1.988  -1.240  -1.566  0.00  0.00    +0.010 C 
ENDROOT
BRANCH  15   5
ATOM      4  O   UNL     1      -4.760   2.217  -0.713  0.00  0.00    -0.270 OA
ATOM      5  N   UNL     1      -4.019   0.156   0.049  0.00  0.00    -0.308 N 
ATOM     23  C   UNL     1      -4.981   1.056  -0.377  0.00  0.00    +0.244 C 
ATOM     34  H   UNL     1      -4.290  -0.750   0.417  0.00  0.00    +0.149 HD
BRANCH  23  24
ATOM      7  N   UNL     1      -9.005  -0.403  -0.408  0.00  0.00    -0.263 NA
ATOM     24  C   UNL     1      -6.378   0.550  -0.389  0.00  0.00    +0.040 A 
ATOM     26  C   UNL     1      -7.441   1.433  -0.240  0.00  0.00    +0.033 A 
ATOM     27  C   UNL     1      -6.626  -0.808  -0.548  0.00  0.00    +0.033 A 
ATOM     29  C   UNL     1      -8.725   0.911  -0.256  0.00  0.00    +0.111 A 
ATOM     30  C   UNL     1      -7.946  -1.230  -0.551  0.00  0.00    +0.111 A 
ENDBRANCH  23  24
ENDBRANCH  15   5
BRANCH  11   2
ATOM      2  O   UNL     1       0.754  -1.766  -1.644  0.00  0.00    -0.391 OA
ATOM     35  H   UNL     1       0.946  -0.962  -2.156  0.00  0.00    +0.210 HD
ENDBRANCH  11   2
BRANCH  14  19
ATOM     19  C   UNL     1       3.292  -2.145  -0.211  0.00  0.00    +0.077 C 
ATOM     21  C   UNL     1       2.966  -3.301   0.728  0.00  0.00    +0.017 C 
BRANCH  19  22
ATOM      3  O   UNL     1       5.287  -1.692   1.084  0.00  0.00    -0.276 OA
ATOM      6  N   UNL     1       5.279  -1.142  -1.169  0.00  0.00    -0.310 N 
ATOM     22  C   UNL     1       4.718  -1.645  -0.004  0.00  0.00    +0.216 C 
ATOM     36  H   UNL     1       4.726  -1.119  -2.021  0.00  0.00    +0.149 HD
BRANCH   6  25
ATOM     25  C   UNL     1       6.621  -0.610  -1.224  0.00  0.00    +0.146 C 
BRANCH  25  28
ATOM      1  S   UNL     1       8.050   1.509  -0.136  0.00  0.00    -0.100 S 
ATOM     28  C   UNL     1       6.658   0.853  -0.887  0.00  0.00    +0.007 A 
ATOM     31  C   UNL     1       5.688   1.807  -1.101  0.00  0.00    +0.013 A 
ATOM     32  C   UNL     1       6.093   3.094  -0.642  0.00  0.00    +0.008 A 
ATOM     33  C   UNL     1       7.357   3.074  -0.095  0.00  0.00    +0.045 A 
ENDBRANCH  25  28
ENDBRANCH   6  25
ENDBRANCH  19  22
ENDBRANCH  14  19
TORSDOF 7
