MODEL 1
REMARK VINA RESULT:      -7.5      0.000      0.000
REMARK  Name = 11886259
REMARK  7 active torsions:
REMARK  status: ('A' for Active; 'I' for Inactive)
REMARK    1  A    between atoms: O_3  and  C_19
REMARK    2  A    between atoms: O_3  and  C_24
REMARK    3  A    between atoms: N_5  and  C_15
REMARK    4  A    between atoms: N_6  and  C_16
REMARK    5  A    between atoms: N_10  and  C_33
REMARK    6  A    between atoms: C_20  and  C_21
REMARK    7  A    between atoms: C_27  and  C_32
REMARK                            x       y       z     vdW  Elec       q    Type
REMARK                         _______ _______ _______ _____ _____    ______ ____
ROOT
ATOM      1  O   UNL     1      13.761  11.723  17.525  0.00  0.00    -0.370 OA
ATOM      2  O   UNL     1      15.614  11.049  19.945  0.00  0.00    -0.370 OA
ATOM     13  C   UNL     1      14.352  10.520  19.495  0.00  0.00    +0.176 C 
ATOM     14  C   UNL     1      13.554  11.687  18.947  0.00  0.00    +0.171 C 
ATOM     15  C   UNL     1      14.573   9.614  18.300  0.00  0.00    +0.171 C 
ATOM     16  C   UNL     1      14.176  12.906  19.596  0.00  0.00    +0.130 C 
ATOM     17  C   UNL     1      14.538  10.585  17.124  0.00  0.00    +0.190 C 
ATOM     18  C   UNL     1      15.624  12.471  19.751  0.00  0.00    +0.185 C 
ENDROOT
BRANCH  15   5
ATOM      5  N   UNL     1      13.600   8.521  18.236  0.00  0.00    -0.187 N 
ATOM      7  N   UNL     1      12.773   8.398  17.194  0.00  0.00    -0.041 NA
ATOM      8  N   UNL     1      12.411   6.769  18.672  0.00  0.00    -0.071 NA
ATOM      9  N   UNL     1      12.045   7.321  17.465  0.00  0.00    -0.020 NA
ATOM     19  C   UNL     1      13.378   7.530  19.131  0.00  0.00    +0.342 A 
BRANCH  19   3
ATOM      3  O   UNL     1      14.031   7.375  20.267  0.00  0.00    -0.423 OA
BRANCH   3  24
ATOM     24  C   UNL     1      15.383   7.063  20.315  0.00  0.00    +0.132 A 
ATOM     28  C   UNL     1      15.906   6.204  19.367  0.00  0.00    +0.048 A 
ATOM     29  C   UNL     1      16.166   7.620  21.307  0.00  0.00    +0.048 A 
ATOM     30  C   UNL     1      17.265   5.890  19.415  0.00  0.00    +0.031 A 
ATOM     31  C   UNL     1      17.524   7.307  21.355  0.00  0.00    +0.031 A 
ATOM     33  C   UNL     1      18.074   6.442  20.408  0.00  0.00    +0.067 A 
BRANCH  33  10
ATOM     10  N   UNL     1      19.420   6.131  20.455  0.00  0.00    -0.220 N 
ATOM     11  N   UNL     1      19.887   4.923  20.089  0.00  0.00    -0.154 NA
ATOM     12  N   UNL     1      21.584   6.301  20.761  0.00  0.00    -0.222 NA
ATOM     34  C   UNL     1      20.442   6.942  20.854  0.00  0.00    +0.225 A 
ATOM     35  C   UNL     1      21.196   5.078  20.293  0.00  0.00    +0.245 A 
ENDBRANCH  33  10
ENDBRANCH   3  24
ENDBRANCH  19   3
ENDBRANCH  15   5
BRANCH  16   6
ATOM      4  O   UNL     1      11.600  14.068  20.161  0.00  0.00    -0.270 OA
ATOM      6  N   UNL     1      13.588  13.141  20.913  0.00  0.00    -0.304 N 
ATOM     20  C   UNL     1      12.333  13.710  21.079  0.00  0.00    +0.244 C 
ATOM     36  H   UNL     1      14.185  12.975  21.716  0.00  0.00    +0.149 HD
BRANCH  20  21
ATOM     21  C   UNL     1      11.889  13.907  22.484  0.00  0.00    +0.037 A 
ATOM     22  C   UNL     1      12.838  14.157  23.453  0.00  0.00    +0.013 A 
ATOM     23  C   UNL     1      10.543  13.835  22.773  0.00  0.00    +0.013 A 
ATOM     25  C   UNL     1      12.422  14.343  24.771  0.00  0.00    +0.004 A 
ATOM     26  C   UNL     1      10.126  14.021  24.091  0.00  0.00    +0.004 A 
ATOM     27  C   UNL     1      11.066  14.275  25.091  0.00  0.00    -0.050 A 
ATOM     32  C   UNL     1      10.621  14.473  26.500  0.00  0.00    +0.044 C 
ENDBRANCH  20  21
ENDBRANCH  16   6
TORSDOF 6
ENDMDL
MODEL 2
REMARK VINA RESULT:      -7.4      3.347      7.495
REMARK  Name = 11886259
REMARK  7 active torsions:
REMARK  status: ('A' for Active; 'I' for Inactive)
REMARK    1  A    between atoms: O_3  and  C_19
REMARK    2  A    between atoms: O_3  and  C_24
REMARK    3  A    between atoms: N_5  and  C_15
REMARK    4  A    between atoms: N_6  and  C_16
REMARK    5  A    between atoms: N_10  and  C_33
REMARK    6  A    between atoms: C_20  and  C_21
REMARK    7  A    between atoms: C_27  and  C_32
REMARK                            x       y       z     vdW  Elec       q    Type
REMARK                         _______ _______ _______ _____ _____    ______ ____
ROOT
ATOM      1  O   UNL     1      13.099   7.382  17.278  0.00  0.00    -0.370 OA
ATOM      2  O   UNL     1      13.433   9.226  19.774  0.00  0.00    -0.370 OA
ATOM     13  C   UNL     1      14.054   9.208  18.475  0.00  0.00    +0.176 C 
ATOM     14  C   UNL     1      14.227   7.751  18.089  0.00  0.00    +0.171 C 
ATOM     15  C   UNL     1      13.096   9.766  17.441  0.00  0.00    +0.171 C 
ATOM     16  C   UNL     1      14.189   7.006  19.407  0.00  0.00    +0.130 C 
ATOM     17  C   UNL     1      12.289   8.540  17.026  0.00  0.00    +0.190 C 
ATOM     18  C   UNL     1      13.256   7.878  20.230  0.00  0.00    +0.185 C 
ENDROOT
BRANCH  15   5
ATOM      5  N   UNL     1      13.788  10.456  16.349  0.00  0.00    -0.187 N 
ATOM      7  N   UNL     1      14.061   9.826  15.202  0.00  0.00    -0.041 NA
ATOM      8  N   UNL     1      14.797  11.928  15.131  0.00  0.00    -0.071 NA
ATOM      9  N   UNL     1      14.680  10.733  14.457  0.00  0.00    -0.020 NA
ATOM     19  C   UNL     1      14.237  11.732  16.302  0.00  0.00    +0.342 A 
BRANCH  19   3
ATOM      3  O   UNL     1      14.122  12.612  17.278  0.00  0.00    -0.423 OA
BRANCH   3  24
ATOM     24  C   UNL     1      14.876  12.540  18.442  0.00  0.00    +0.132 A 
ATOM     28  C   UNL     1      14.241  12.686  19.661  0.00  0.00    +0.048 A 
ATOM     29  C   UNL     1      16.236  12.323  18.348  0.00  0.00    +0.048 A 
ATOM     30  C   UNL     1      14.999  12.613  20.831  0.00  0.00    +0.031 A 
ATOM     31  C   UNL     1      16.993  12.250  19.517  0.00  0.00    +0.031 A 
ATOM     33  C   UNL     1      16.374  12.395  20.759  0.00  0.00    +0.067 A 
BRANCH  33  10
ATOM     10  N   UNL     1      17.124  12.323  21.918  0.00  0.00    -0.220 N 
ATOM     11  N   UNL     1      16.883  13.120  22.975  0.00  0.00    -0.154 NA
ATOM     12  N   UNL     1      18.634  11.706  23.382  0.00  0.00    -0.222 NA
ATOM     34  C   UNL     1      18.171  11.485  22.174  0.00  0.00    +0.225 A 
ATOM     35  C   UNL     1      17.821  12.708  23.829  0.00  0.00    +0.245 A 
ENDBRANCH  33  10
ENDBRANCH   3  24
ENDBRANCH  19   3
ENDBRANCH  15   5
BRANCH  16   6
ATOM      4  O   UNL     1      16.533   5.646  18.426  0.00  0.00    -0.270 OA
ATOM      6  N   UNL     1      15.515   6.986  20.021  0.00  0.00    -0.304 N 
ATOM     20  C   UNL     1      16.584   6.296  19.467  0.00  0.00    +0.244 C 
ATOM     36  H   UNL     1      15.599   7.406  20.941  0.00  0.00    +0.149 HD
BRANCH  20  21
ATOM     21  C   UNL     1      17.859   6.351  20.228  0.00  0.00    +0.037 A 
ATOM     22  C   UNL     1      17.992   7.282  21.237  0.00  0.00    +0.013 A 
ATOM     23  C   UNL     1      18.868   5.469  19.902  0.00  0.00    +0.013 A 
ATOM     25  C   UNL     1      19.188   7.334  21.953  0.00  0.00    +0.004 A 
ATOM     26  C   UNL     1      20.064   5.521  20.617  0.00  0.00    +0.004 A 
ATOM     27  C   UNL     1      20.225   6.454  21.643  0.00  0.00    -0.050 A 
ATOM     32  C   UNL     1      21.504   6.509  22.407  0.00  0.00    +0.044 C 
ENDBRANCH  20  21
ENDBRANCH  16   6
TORSDOF 6
ENDMDL
MODEL 3
REMARK VINA RESULT:      -7.3      2.961      7.845
REMARK  Name = 11886259
REMARK  7 active torsions:
REMARK  status: ('A' for Active; 'I' for Inactive)
REMARK    1  A    between atoms: O_3  and  C_19
REMARK    2  A    between atoms: O_3  and  C_24
REMARK    3  A    between atoms: N_5  and  C_15
REMARK    4  A    between atoms: N_6  and  C_16
REMARK    5  A    between atoms: N_10  and  C_33
REMARK    6  A    between atoms: C_20  and  C_21
REMARK    7  A    between atoms: C_27  and  C_32
REMARK                            x       y       z     vdW  Elec       q    Type
REMARK                         _______ _______ _______ _____ _____    ______ ____
ROOT
ATOM      1  O   UNL     1      15.634  12.996  25.072  0.00  0.00    -0.370 OA
ATOM      2  O   UNL     1      15.339  13.015  21.966  0.00  0.00    -0.370 OA
ATOM     13  C   UNL     1      14.634  12.328  23.016  0.00  0.00    +0.176 C 
ATOM     14  C   UNL     1      15.659  11.964  24.072  0.00  0.00    +0.171 C 
ATOM     15  C   UNL     1      13.690  13.288  23.714  0.00  0.00    +0.171 C 
ATOM     16  C   UNL     1      16.981  11.984  23.334  0.00  0.00    +0.130 C 
ATOM     17  C   UNL     1      14.577  13.922  24.781  0.00  0.00    +0.190 C 
ATOM     18  C   UNL     1      16.736  13.056  22.286  0.00  0.00    +0.185 C 
ENDROOT
BRANCH  15   5
ATOM      5  N   UNL     1      12.485  12.625  24.218  0.00  0.00    -0.187 N 
ATOM      7  N   UNL     1      12.365  12.308  25.511  0.00  0.00    -0.041 NA
ATOM      8  N   UNL     1      10.545  11.687  24.383  0.00  0.00    -0.071 NA
ATOM      9  N   UNL     1      11.173  11.733  25.608  0.00  0.00    -0.020 NA
ATOM     19  C   UNL     1      11.378  12.247  23.537  0.00  0.00    +0.342 A 
BRANCH  19   3
ATOM      3  O   UNL     1      11.189  12.419  22.242  0.00  0.00    -0.423 OA
BRANCH   3  24
ATOM     24  C   UNL     1      11.723  11.561  21.289  0.00  0.00    +0.132 A 
ATOM     28  C   UNL     1      11.469  10.207  21.390  0.00  0.00    +0.048 A 
ATOM     29  C   UNL     1      12.489  12.087  20.267  0.00  0.00    +0.048 A 
ATOM     30  C   UNL     1      12.005   9.345  20.433  0.00  0.00    +0.031 A 
ATOM     31  C   UNL     1      13.025  11.226  19.310  0.00  0.00    +0.031 A 
ATOM     33  C   UNL     1      12.782   9.854  19.392  0.00  0.00    +0.067 A 
BRANCH  33  10
ATOM     10  N   UNL     1      13.313   8.999  18.444  0.00  0.00    -0.220 N 
ATOM     11  N   UNL     1      14.125   7.980  18.777  0.00  0.00    -0.154 NA
ATOM     12  N   UNL     1      13.783   8.067  16.517  0.00  0.00    -0.222 NA
ATOM     34  C   UNL     1      13.118   9.041  17.094  0.00  0.00    +0.225 A 
ATOM     35  C   UNL     1      14.379   7.450  17.579  0.00  0.00    +0.245 A 
ENDBRANCH  33  10
ENDBRANCH   3  24
ENDBRANCH  19   3
ENDBRANCH  15   5
BRANCH  16   6
ATOM      4  O   UNL     1      19.529  10.891  22.544  0.00  0.00    -0.270 OA
ATOM      6  N   UNL     1      17.222  10.700  22.680  0.00  0.00    -0.304 N 
ATOM     20  C   UNL     1      18.494  10.262  22.338  0.00  0.00    +0.244 C 
ATOM     36  H   UNL     1      16.404  10.181  22.377  0.00  0.00    +0.149 HD
BRANCH  20  21
ATOM     21  C   UNL     1      18.567   8.946  21.653  0.00  0.00    +0.037 A 
ATOM     22  C   UNL     1      17.417   8.416  21.105  0.00  0.00    +0.013 A 
ATOM     23  C   UNL     1      19.782   8.296  21.587  0.00  0.00    +0.013 A 
ATOM     25  C   UNL     1      17.485   7.180  20.461  0.00  0.00    +0.004 A 
ATOM     26  C   UNL     1      19.850   7.061  20.944  0.00  0.00    +0.004 A 
ATOM     27  C   UNL     1      18.702   6.502  20.381  0.00  0.00    -0.050 A 
ATOM     32  C   UNL     1      18.775   5.181  19.693  0.00  0.00    +0.044 C 
ENDBRANCH  20  21
ENDBRANCH  16   6
TORSDOF 6
ENDMDL
MODEL 4
REMARK VINA RESULT:      -7.3     14.255     17.845
REMARK  Name = 11886259
REMARK  7 active torsions:
REMARK  status: ('A' for Active; 'I' for Inactive)
REMARK    1  A    between atoms: O_3  and  C_19
REMARK    2  A    between atoms: O_3  and  C_24
REMARK    3  A    between atoms: N_5  and  C_15
REMARK    4  A    between atoms: N_6  and  C_16
REMARK    5  A    between atoms: N_10  and  C_33
REMARK    6  A    between atoms: C_20  and  C_21
REMARK    7  A    between atoms: C_27  and  C_32
REMARK                            x       y       z     vdW  Elec       q    Type
REMARK                         _______ _______ _______ _____ _____    ______ ____
ROOT
ATOM      1  O   UNL     1      12.526   9.774   7.496  0.00  0.00    -0.370 OA
ATOM      2  O   UNL     1      13.078   9.170   4.484  0.00  0.00    -0.370 OA
ATOM     13  C   UNL     1      12.879   8.328   5.636  0.00  0.00    +0.176 C 
ATOM     14  C   UNL     1      13.541   9.022   6.810  0.00  0.00    +0.171 C 
ATOM     15  C   UNL     1      11.406   8.291   5.995  0.00  0.00    +0.171 C 
ATOM     16  C   UNL     1      14.546   9.960   6.175  0.00  0.00    +0.130 C 
ATOM     17  C   UNL     1      11.247   9.504   6.906  0.00  0.00    +0.190 C 
ATOM     18  C   UNL     1      13.859  10.312   4.866  0.00  0.00    +0.185 C 
ENDROOT
BRANCH  15   5
ATOM      5  N   UNL     1      11.004   7.011   6.582  0.00  0.00    -0.187 N 
ATOM      7  N   UNL     1      11.485   6.618   7.766  0.00  0.00    -0.041 NA
ATOM      8  N   UNL     1      10.087   5.088   6.945  0.00  0.00    -0.071 NA
ATOM      9  N   UNL     1      10.920   5.437   7.985  0.00  0.00    -0.020 NA
ATOM     19  C   UNL     1      10.155   6.079   6.088  0.00  0.00    +0.342 A 
BRANCH  19   3
ATOM      3  O   UNL     1       9.518   6.172   4.936  0.00  0.00    -0.423 OA
BRANCH   3  24
ATOM     24  C   UNL     1      10.024   5.641   3.757  0.00  0.00    +0.132 A 
ATOM     28  C   UNL     1      10.636   4.403   3.789  0.00  0.00    +0.048 A 
ATOM     29  C   UNL     1       9.900   6.365   2.587  0.00  0.00    +0.048 A 
ATOM     30  C   UNL     1      11.145   3.869   2.604  0.00  0.00    +0.031 A 
ATOM     31  C   UNL     1      10.408   5.832   1.403  0.00  0.00    +0.031 A 
ATOM     33  C   UNL     1      11.031   4.583   1.412  0.00  0.00    +0.067 A 
BRANCH  33  10
ATOM     10  N   UNL     1      11.535   4.053   0.238  0.00  0.00    -0.220 N 
ATOM     11  N   UNL     1      10.762   3.855  -0.845  0.00  0.00    -0.154 NA
ATOM     12  N   UNL     1      12.922   3.212  -1.236  0.00  0.00    -0.222 NA
ATOM     34  C   UNL     1      12.820   3.665  -0.008  0.00  0.00    +0.225 A 
ATOM     35  C   UNL     1      11.647   3.347  -1.705  0.00  0.00    +0.245 A 
ENDBRANCH  33  10
ENDBRANCH   3  24
ENDBRANCH  19   3
ENDBRANCH  15   5
BRANCH  16   6
ATOM      4  O   UNL     1      17.216  11.013   6.444  0.00  0.00    -0.270 OA
ATOM      6  N   UNL     1      15.799   9.259   5.901  0.00  0.00    -0.304 N 
ATOM     20  C   UNL     1      17.040   9.858   6.063  0.00  0.00    +0.244 C 
ATOM     36  H   UNL     1      15.725   8.341   5.474  0.00  0.00    +0.149 HD
BRANCH  20  21
ATOM     21  C   UNL     1      18.217   9.020   5.717  0.00  0.00    +0.037 A 
ATOM     22  C   UNL     1      19.190   8.810   6.673  0.00  0.00    +0.013 A 
ATOM     23  C   UNL     1      18.300   8.478   4.451  0.00  0.00    +0.013 A 
ATOM     25  C   UNL     1      20.294   8.023   6.348  0.00  0.00    +0.004 A 
ATOM     26  C   UNL     1      19.405   7.691   4.127  0.00  0.00    +0.004 A 
ATOM     27  C   UNL     1      20.402   7.464   5.075  0.00  0.00    -0.050 A 
ATOM     32  C   UNL     1      21.584   6.622   4.728  0.00  0.00    +0.044 C 
ENDBRANCH  20  21
ENDBRANCH  16   6
TORSDOF 6
ENDMDL
MODEL 5
REMARK VINA RESULT:      -7.3     28.240     31.348
REMARK  Name = 11886259
REMARK  7 active torsions:
REMARK  status: ('A' for Active; 'I' for Inactive)
REMARK    1  A    between atoms: O_3  and  C_19
REMARK    2  A    between atoms: O_3  and  C_24
REMARK    3  A    between atoms: N_5  and  C_15
REMARK    4  A    between atoms: N_6  and  C_16
REMARK    5  A    between atoms: N_10  and  C_33
REMARK    6  A    between atoms: C_20  and  C_21
REMARK    7  A    between atoms: C_27  and  C_32
REMARK                            x       y       z     vdW  Elec       q    Type
REMARK                         _______ _______ _______ _____ _____    ______ ____
ROOT
ATOM      1  O   UNL     1      -4.456 -13.068  17.422  0.00  0.00    -0.370 OA
ATOM      2  O   UNL     1      -4.153 -10.007  16.897  0.00  0.00    -0.370 OA
ATOM     13  C   UNL     1      -5.282 -10.901  16.876  0.00  0.00    +0.176 C 
ATOM     14  C   UNL     1      -4.790 -12.220  16.311  0.00  0.00    +0.171 C 
ATOM     15  C   UNL     1      -5.704 -11.227  18.295  0.00  0.00    +0.171 C 
ATOM     16  C   UNL     1      -3.540 -11.854  15.538  0.00  0.00    +0.130 C 
ATOM     17  C   UNL     1      -4.819 -12.419  18.649  0.00  0.00    +0.190 C 
ATOM     18  C   UNL     1      -3.013 -10.675  16.339  0.00  0.00    +0.185 C 
ENDROOT
BRANCH  15   5
ATOM      5  N   UNL     1      -7.145 -11.463  18.413  0.00  0.00    -0.187 N 
ATOM      7  N   UNL     1      -7.614 -12.634  18.855  0.00  0.00    -0.041 NA
ATOM      8  N   UNL     1      -9.295 -11.250  18.378  0.00  0.00    -0.071 NA
ATOM      9  N   UNL     1      -8.935 -12.498  18.832  0.00  0.00    -0.020 NA
ATOM     19  C   UNL     1      -8.168 -10.625  18.125  0.00  0.00    +0.342 A 
BRANCH  19   3
ATOM      3  O   UNL     1      -8.033  -9.395  17.666  0.00  0.00    -0.423 OA
BRANCH   3  24
ATOM     24  C   UNL     1      -9.003  -8.778  16.887  0.00  0.00    +0.132 A 
ATOM     28  C   UNL     1      -9.814  -7.819  17.463  0.00  0.00    +0.048 A 
ATOM     29  C   UNL     1      -9.127  -9.138  15.560  0.00  0.00    +0.048 A 
ATOM     30  C   UNL     1     -10.788  -7.198  16.681  0.00  0.00    +0.031 A 
ATOM     31  C   UNL     1     -10.101  -8.518  14.777  0.00  0.00    +0.031 A 
ATOM     33  C   UNL     1     -10.932  -7.546  15.338  0.00  0.00    +0.067 A 
BRANCH  33  10
ATOM     10  N   UNL     1     -11.897  -6.931  14.564  0.00  0.00    -0.220 N 
ATOM     11  N   UNL     1     -12.507  -5.796  14.952  0.00  0.00    -0.154 NA
ATOM     12  N   UNL     1     -13.280  -6.502  12.919  0.00  0.00    -0.222 NA
ATOM     34  C   UNL     1     -12.368  -7.341  13.351  0.00  0.00    +0.225 A 
ATOM     35  C   UNL     1     -13.331  -5.581  13.925  0.00  0.00    +0.245 A 
ENDBRANCH  33  10
ENDBRANCH   3  24
ENDBRANCH  19   3
ENDBRANCH  15   5
BRANCH  16   6
ATOM      4  O   UNL     1      -1.858 -11.974  13.201  0.00  0.00    -0.270 OA
ATOM      6  N   UNL     1      -3.883 -11.420  14.186  0.00  0.00    -0.304 N 
ATOM     20  C   UNL     1      -2.997 -11.520  13.123  0.00  0.00    +0.244 C 
ATOM     36  H   UNL     1      -4.764 -10.930  14.073  0.00  0.00    +0.149 HD
BRANCH  20  21
ATOM     21  C   UNL     1      -3.487 -11.009  11.816  0.00  0.00    +0.037 A 
ATOM     22  C   UNL     1      -4.544 -11.651  11.204  0.00  0.00    +0.013 A 
ATOM     23  C   UNL     1      -2.871  -9.908  11.258  0.00  0.00    +0.013 A 
ATOM     25  C   UNL     1      -5.005 -11.171   9.979  0.00  0.00    +0.004 A 
ATOM     26  C   UNL     1      -3.333  -9.428  10.033  0.00  0.00    +0.004 A 
ATOM     27  C   UNL     1      -4.399 -10.060   9.393  0.00  0.00    -0.050 A 
ATOM     32  C   UNL     1      -4.892  -9.547   8.081  0.00  0.00    +0.044 C 
ENDBRANCH  20  21
ENDBRANCH  16   6
TORSDOF 6
ENDMDL
MODEL 6
REMARK VINA RESULT:      -7.3     28.251     31.664
REMARK  Name = 11886259
REMARK  7 active torsions:
REMARK  status: ('A' for Active; 'I' for Inactive)
REMARK    1  A    between atoms: O_3  and  C_19
REMARK    2  A    between atoms: O_3  and  C_24
REMARK    3  A    between atoms: N_5  and  C_15
REMARK    4  A    between atoms: N_6  and  C_16
REMARK    5  A    between atoms: N_10  and  C_33
REMARK    6  A    between atoms: C_20  and  C_21
REMARK    7  A    between atoms: C_27  and  C_32
REMARK                            x       y       z     vdW  Elec       q    Type
REMARK                         _______ _______ _______ _____ _____    ______ ____
ROOT
ATOM      1  O   UNL     1     -16.923   6.207  24.928  0.00  0.00    -0.370 OA
ATOM      2  O   UNL     1     -17.747   6.992  22.022  0.00  0.00    -0.370 OA
ATOM     13  C   UNL     1     -17.090   5.838  22.580  0.00  0.00    +0.176 C 
ATOM     14  C   UNL     1     -16.193   6.337  23.696  0.00  0.00    +0.171 C 
ATOM     15  C   UNL     1     -18.109   4.955  23.274  0.00  0.00    +0.171 C 
ATOM     16  C   UNL     1     -15.970   7.800  23.373  0.00  0.00    +0.130 C 
ATOM     17  C   UNL     1     -18.172   5.548  24.679  0.00  0.00    +0.190 C 
ATOM     18  C   UNL     1     -17.276   8.170  22.691  0.00  0.00    +0.185 C 
ENDROOT
BRANCH  15   5
ATOM      5  N   UNL     1     -17.757   3.535  23.211  0.00  0.00    -0.187 N 
ATOM      7  N   UNL     1     -17.246   3.004  22.096  0.00  0.00    -0.041 NA
ATOM      8  N   UNL     1     -17.439   1.450  23.683  0.00  0.00    -0.071 NA
ATOM      9  N   UNL     1     -17.052   1.723  22.391  0.00  0.00    -0.020 NA
ATOM     19  C   UNL     1     -17.873   2.589  24.172  0.00  0.00    +0.342 A 
BRANCH  19   3
ATOM      3  O   UNL     1     -18.346   2.797  25.387  0.00  0.00    -0.423 OA
BRANCH   3  24
ATOM     24  C   UNL     1     -17.706   2.333  26.528  0.00  0.00    +0.132 A 
ATOM     28  C   UNL     1     -16.578   2.992  26.978  0.00  0.00    +0.048 A 
ATOM     29  C   UNL     1     -18.215   1.227  27.181  0.00  0.00    +0.048 A 
ATOM     30  C   UNL     1     -15.934   2.526  28.125  0.00  0.00    +0.031 A 
ATOM     31  C   UNL     1     -17.572   0.761  28.327  0.00  0.00    +0.031 A 
ATOM     33  C   UNL     1     -16.431   1.412  28.800  0.00  0.00    +0.067 A 
BRANCH  33  10
ATOM     10  N   UNL     1     -15.793   0.950  29.936  0.00  0.00    -0.220 N 
ATOM     11  N   UNL     1     -15.680  -0.362  30.208  0.00  0.00    -0.154 NA
ATOM     12  N   UNL     1     -14.701   0.911  31.836  0.00  0.00    -0.222 NA
ATOM     34  C   UNL     1     -15.206   1.698  30.915  0.00  0.00    +0.225 A 
ATOM     35  C   UNL     1     -15.014  -0.331  31.364  0.00  0.00    +0.245 A 
ENDBRANCH  33  10
ENDBRANCH   3  24
ENDBRANCH  19   3
ENDBRANCH  15   5
BRANCH  16   6
ATOM      4  O   UNL     1     -13.928   9.834  23.417  0.00  0.00    -0.270 OA
ATOM      6  N   UNL     1     -14.861   7.953  22.433  0.00  0.00    -0.304 N 
ATOM     20  C   UNL     1     -13.926   8.972  22.541  0.00  0.00    +0.244 C 
ATOM     36  H   UNL     1     -14.864   7.345  21.620  0.00  0.00    +0.149 HD
BRANCH  20  21
ATOM     21  C   UNL     1     -12.876   9.006  21.491  0.00  0.00    +0.037 A 
ATOM     22  C   UNL     1     -12.328  10.222  21.136  0.00  0.00    +0.013 A 
ATOM     23  C   UNL     1     -12.482   7.822  20.904  0.00  0.00    +0.013 A 
ATOM     25  C   UNL     1     -11.342  10.254  20.150  0.00  0.00    +0.004 A 
ATOM     26  C   UNL     1     -11.496   7.854  19.918  0.00  0.00    +0.004 A 
ATOM     27  C   UNL     1     -10.926   9.070  19.541  0.00  0.00    -0.050 A 
ATOM     32  C   UNL     1      -9.872   9.105  18.486  0.00  0.00    +0.044 C 
ENDBRANCH  20  21
ENDBRANCH  16   6
TORSDOF 6
ENDMDL
MODEL 7
REMARK VINA RESULT:      -7.1      3.784      7.522
REMARK  Name = 11886259
REMARK  7 active torsions:
REMARK  status: ('A' for Active; 'I' for Inactive)
REMARK    1  A    between atoms: O_3  and  C_19
REMARK    2  A    between atoms: O_3  and  C_24
REMARK    3  A    between atoms: N_5  and  C_15
REMARK    4  A    between atoms: N_6  and  C_16
REMARK    5  A    between atoms: N_10  and  C_33
REMARK    6  A    between atoms: C_20  and  C_21
REMARK    7  A    between atoms: C_27  and  C_32
REMARK                            x       y       z     vdW  Elec       q    Type
REMARK                         _______ _______ _______ _____ _____    ______ ____
ROOT
ATOM      1  O   UNL     1      12.583   7.164  19.492  0.00  0.00    -0.370 OA
ATOM      2  O   UNL     1      13.872   9.710  20.757  0.00  0.00    -0.370 OA
ATOM     13  C   UNL     1      14.000   9.079  19.469  0.00  0.00    +0.176 C 
ATOM     14  C   UNL     1      13.942   7.582  19.702  0.00  0.00    +0.171 C 
ATOM     15  C   UNL     1      12.777   9.382  18.626  0.00  0.00    +0.171 C 
ATOM     16  C   UNL     1      14.322   7.414  21.158  0.00  0.00    +0.130 C 
ATOM     17  C   UNL     1      11.805   8.275  19.024  0.00  0.00    +0.190 C 
ATOM     18  C   UNL     1      13.786   8.697  21.770  0.00  0.00    +0.185 C 
ENDROOT
BRANCH  15   5
ATOM      5  N   UNL     1      13.085   9.457  17.196  0.00  0.00    -0.187 N 
ATOM      7  N   UNL     1      12.882   8.407  16.394  0.00  0.00    -0.041 NA
ATOM      8  N   UNL     1      13.703  10.126  15.236  0.00  0.00    -0.071 NA
ATOM      9  N   UNL     1      13.262   8.822  15.191  0.00  0.00    -0.020 NA
ATOM     19  C   UNL     1      13.583  10.499  16.489  0.00  0.00    +0.342 A 
BRANCH  19   3
ATOM      3  O   UNL     1      13.892  11.678  16.994  0.00  0.00    -0.423 OA
BRANCH   3  24
ATOM     24  C   UNL     1      15.203  12.070  17.231  0.00  0.00    +0.132 A 
ATOM     28  C   UNL     1      16.009  12.393  16.156  0.00  0.00    +0.048 A 
ATOM     29  C   UNL     1      15.661  12.127  18.532  0.00  0.00    +0.048 A 
ATOM     30  C   UNL     1      17.327  12.787  16.393  0.00  0.00    +0.031 A 
ATOM     31  C   UNL     1      16.978  12.521  18.769  0.00  0.00    +0.031 A 
ATOM     33  C   UNL     1      17.811  12.852  17.700  0.00  0.00    +0.067 A 
BRANCH  33  10
ATOM     10  N   UNL     1      19.116  13.242  17.934  0.00  0.00    -0.220 N 
ATOM     11  N   UNL     1      19.415  14.418  18.517  0.00  0.00    -0.154 NA
ATOM     12  N   UNL     1      21.306  13.237  18.007  0.00  0.00    -0.222 NA
ATOM     34  C   UNL     1      20.252  12.549  17.635  0.00  0.00    +0.225 A 
ATOM     35  C   UNL     1      20.748  14.365  18.537  0.00  0.00    +0.245 A 
ENDBRANCH  33  10
ENDBRANCH   3  24
ENDBRANCH  19   3
ENDBRANCH  15   5
BRANCH  16   6
ATOM      4  O   UNL     1      16.187   5.970  19.501  0.00  0.00    -0.270 OA
ATOM      6  N   UNL     1      15.775   7.366  21.307  0.00  0.00    -0.304 N 
ATOM     20  C   UNL     1      16.589   6.636  20.451  0.00  0.00    +0.244 C 
ATOM     36  H   UNL     1      16.164   7.800  22.137  0.00  0.00    +0.149 HD
BRANCH  20  21
ATOM     21  C   UNL     1      18.043   6.668  20.753  0.00  0.00    +0.037 A 
ATOM     22  C   UNL     1      18.849   5.666  20.253  0.00  0.00    +0.013 A 
ATOM     23  C   UNL     1      18.542   7.699  21.522  0.00  0.00    +0.013 A 
ATOM     25  C   UNL     1      20.215   5.696  20.536  0.00  0.00    +0.004 A 
ATOM     26  C   UNL     1      19.907   7.729  21.804  0.00  0.00    +0.004 A 
ATOM     27  C   UNL     1      20.744   6.727  21.311  0.00  0.00    -0.050 A 
ATOM     32  C   UNL     1      22.204   6.759  21.614  0.00  0.00    +0.044 C 
ENDBRANCH  20  21
ENDBRANCH  16   6
TORSDOF 6
ENDMDL
MODEL 8
REMARK VINA RESULT:      -7.1     27.653     31.080
REMARK  Name = 11886259
REMARK  7 active torsions:
REMARK  status: ('A' for Active; 'I' for Inactive)
REMARK    1  A    between atoms: O_3  and  C_19
REMARK    2  A    between atoms: O_3  and  C_24
REMARK    3  A    between atoms: N_5  and  C_15
REMARK    4  A    between atoms: N_6  and  C_16
REMARK    5  A    between atoms: N_10  and  C_33
REMARK    6  A    between atoms: C_20  and  C_21
REMARK    7  A    between atoms: C_27  and  C_32
REMARK                            x       y       z     vdW  Elec       q    Type
REMARK                         _______ _______ _______ _____ _____    ______ ____
ROOT
ATOM      1  O   UNL     1     -15.749   3.699  23.391  0.00  0.00    -0.370 OA
ATOM      2  O   UNL     1     -18.190   4.233  25.262  0.00  0.00    -0.370 OA
ATOM     13  C   UNL     1     -16.974   4.959  25.001  0.00  0.00    +0.176 C 
ATOM     14  C   UNL     1     -15.878   3.929  24.804  0.00  0.00    +0.171 C 
ATOM     15  C   UNL     1     -17.077   5.667  23.663  0.00  0.00    +0.171 C 
ATOM     16  C   UNL     1     -16.403   2.686  25.490  0.00  0.00    +0.130 C 
ATOM     17  C   UNL     1     -16.605   4.603  22.677  0.00  0.00    +0.190 C 
ATOM     18  C   UNL     1     -17.902   2.827  25.285  0.00  0.00    +0.185 C 
ENDROOT
BRANCH  15   5
ATOM      5  N   UNL     1     -16.325   6.923  23.633  0.00  0.00    -0.187 N 
ATOM      7  N   UNL     1     -16.697   7.964  24.385  0.00  0.00    -0.041 NA
ATOM      8  N   UNL     1     -14.884   8.472  23.193  0.00  0.00    -0.071 NA
ATOM      9  N   UNL     1     -15.809   8.912  24.112  0.00  0.00    -0.020 NA
ATOM     19  C   UNL     1     -15.223   7.236  22.911  0.00  0.00    +0.342 A 
BRANCH  19   3
ATOM      3  O   UNL     1     -14.613   6.422  22.071  0.00  0.00    -0.423 OA
BRANCH   3  24
ATOM     24  C   UNL     1     -13.932   6.878  20.950  0.00  0.00    +0.132 A 
ATOM     28  C   UNL     1     -14.657   7.312  19.857  0.00  0.00    +0.048 A 
ATOM     29  C   UNL     1     -12.551   6.886  20.961  0.00  0.00    +0.048 A 
ATOM     30  C   UNL     1     -13.974   7.770  18.730  0.00  0.00    +0.031 A 
ATOM     31  C   UNL     1     -11.867   7.344  19.835  0.00  0.00    +0.031 A 
ATOM     33  C   UNL     1     -12.579   7.787  18.719  0.00  0.00    +0.067 A 
BRANCH  33  10
ATOM     10  N   UNL     1     -11.902   8.241  17.602  0.00  0.00    -0.220 N 
ATOM     11  N   UNL     1     -10.565   8.391  17.590  0.00  0.00    -0.154 NA
ATOM     12  N   UNL     1     -11.486   8.975  15.580  0.00  0.00    -0.222 NA
ATOM     34  C   UNL     1     -12.438   8.594  16.398  0.00  0.00    +0.225 A 
ATOM     35  C   UNL     1     -10.366   8.836  16.348  0.00  0.00    +0.245 A 
ENDBRANCH  33  10
ENDBRANCH   3  24
ENDBRANCH  19   3
ENDBRANCH  15   5
BRANCH  16   6
ATOM      4  O   UNL     1     -16.850   0.583  27.411  0.00  0.00    -0.270 OA
ATOM      6  N   UNL     1     -16.095   2.720  26.919  0.00  0.00    -0.304 N 
ATOM     20  C   UNL     1     -16.350   1.649  27.763  0.00  0.00    +0.244 C 
ATOM     36  H   UNL     1     -15.788   3.610  27.298  0.00  0.00    +0.149 HD
BRANCH  20  21
ATOM     21  C   UNL     1     -16.005   1.852  29.194  0.00  0.00    +0.037 A 
ATOM     22  C   UNL     1     -15.369   0.835  29.876  0.00  0.00    +0.013 A 
ATOM     23  C   UNL     1     -16.330   3.051  29.794  0.00  0.00    +0.013 A 
ATOM     25  C   UNL     1     -15.043   1.025  31.219  0.00  0.00    +0.004 A 
ATOM     26  C   UNL     1     -16.004   3.241  31.137  0.00  0.00    +0.004 A 
ATOM     27  C   UNL     1     -15.361   2.228  31.850  0.00  0.00    -0.050 A 
ATOM     32  C   UNL     1     -15.014   2.432  33.286  0.00  0.00    +0.044 C 
ENDBRANCH  20  21
ENDBRANCH  16   6
TORSDOF 6
ENDMDL
MODEL 9
REMARK VINA RESULT:      -6.9     14.744     19.357
REMARK  Name = 11886259
REMARK  7 active torsions:
REMARK  status: ('A' for Active; 'I' for Inactive)
REMARK    1  A    between atoms: O_3  and  C_19
REMARK    2  A    between atoms: O_3  and  C_24
REMARK    3  A    between atoms: N_5  and  C_15
REMARK    4  A    between atoms: N_6  and  C_16
REMARK    5  A    between atoms: N_10  and  C_33
REMARK    6  A    between atoms: C_20  and  C_21
REMARK    7  A    between atoms: C_27  and  C_32
REMARK                            x       y       z     vdW  Elec       q    Type
REMARK                         _______ _______ _______ _____ _____    ______ ____
ROOT
ATOM      1  O   UNL     1      13.747   7.506   6.544  0.00  0.00    -0.370 OA
ATOM      2  O   UNL     1      11.573   8.537   4.556  0.00  0.00    -0.370 OA
ATOM     13  C   UNL     1      11.628   7.415   5.459  0.00  0.00    +0.176 C 
ATOM     14  C   UNL     1      13.055   6.902   5.439  0.00  0.00    +0.171 C 
ATOM     15  C   UNL     1      11.414   7.893   6.882  0.00  0.00    +0.171 C 
ATOM     16  C   UNL     1      13.619   7.410   4.129  0.00  0.00    +0.130 C 
ATOM     17  C   UNL     1      12.822   8.270   7.331  0.00  0.00    +0.190 C 
ATOM     18  C   UNL     1      12.861   8.715   3.949  0.00  0.00    +0.185 C 
ENDROOT
BRANCH  15   5
ATOM      5  N   UNL     1      10.740   6.893   7.714  0.00  0.00    -0.187 N 
ATOM      7  N   UNL     1      11.425   5.889   8.270  0.00  0.00    -0.041 NA
ATOM      8  N   UNL     1       9.266   5.751   8.807  0.00  0.00    -0.071 NA
ATOM      9  N   UNL     1      10.516   5.191   8.941  0.00  0.00    -0.020 NA
ATOM     19  C   UNL     1       9.430   6.806   8.043  0.00  0.00    +0.342 A 
BRANCH  19   3
ATOM      3  O   UNL     1       8.493   7.648   7.649  0.00  0.00    -0.423 OA
BRANCH   3  24
ATOM     24  C   UNL     1       8.315   7.998   6.317  0.00  0.00    +0.132 A 
ATOM     28  C   UNL     1       8.188   6.997   5.373  0.00  0.00    +0.048 A 
ATOM     29  C   UNL     1       8.267   9.335   5.975  0.00  0.00    +0.048 A 
ATOM     30  C   UNL     1       8.009   7.348   4.035  0.00  0.00    +0.031 A 
ATOM     31  C   UNL     1       8.088   9.686   4.638  0.00  0.00    +0.031 A 
ATOM     33  C   UNL     1       7.958   8.692   3.667  0.00  0.00    +0.067 A 
BRANCH  33  10
ATOM     10  N   UNL     1       7.780   9.039   2.340  0.00  0.00    -0.220 N 
ATOM     11  N   UNL     1       6.669   9.663   1.909  0.00  0.00    -0.154 NA
ATOM     12  N   UNL     1       8.134   9.292   0.193  0.00  0.00    -0.222 NA
ATOM     34  C   UNL     1       8.645   8.824   1.307  0.00  0.00    +0.225 A 
ATOM     35  C   UNL     1       6.933   9.791   0.607  0.00  0.00    +0.245 A 
ENDBRANCH  33  10
ENDBRANCH   3  24
ENDBRANCH  19   3
ENDBRANCH  15   5
BRANCH  16   6
ATOM      4  O   UNL     1      15.357   6.560   1.992  0.00  0.00    -0.270 OA
ATOM      6  N   UNL     1      13.289   6.494   3.039  0.00  0.00    -0.304 N 
ATOM     20  C   UNL     1      14.202   6.146   2.054  0.00  0.00    +0.244 C 
ATOM     36  H   UNL     1      12.319   6.204   2.964  0.00  0.00    +0.149 HD
BRANCH  20  21
ATOM     21  C   UNL     1      13.703   5.225   1.000  0.00  0.00    +0.037 A 
ATOM     22  C   UNL     1      13.516   3.894   1.314  0.00  0.00    +0.013 A 
ATOM     23  C   UNL     1      13.442   5.729  -0.257  0.00  0.00    +0.013 A 
ATOM     25  C   UNL     1      13.047   3.029   0.326  0.00  0.00    +0.004 A 
ATOM     26  C   UNL     1      12.974   4.863  -1.245  0.00  0.00    +0.004 A 
ATOM     27  C   UNL     1      12.776   3.513  -0.954  0.00  0.00    -0.050 A 
ATOM     32  C   UNL     1      12.275   2.587  -2.011  0.00  0.00    +0.044 C 
ENDBRANCH  20  21
ENDBRANCH  16   6
TORSDOF 6
ENDMDL
MODEL 10
REMARK VINA RESULT:      -6.9     14.427     18.075
REMARK  Name = 11886259
REMARK  7 active torsions:
REMARK  status: ('A' for Active; 'I' for Inactive)
REMARK    1  A    between atoms: O_3  and  C_19
REMARK    2  A    between atoms: O_3  and  C_24
REMARK    3  A    between atoms: N_5  and  C_15
REMARK    4  A    between atoms: N_6  and  C_16
REMARK    5  A    between atoms: N_10  and  C_33
REMARK    6  A    between atoms: C_20  and  C_21
REMARK    7  A    between atoms: C_27  and  C_32
REMARK                            x       y       z     vdW  Elec       q    Type
REMARK                         _______ _______ _______ _____ _____    ______ ____
ROOT
ATOM      1  O   UNL     1       8.265   6.945   4.641  0.00  0.00    -0.370 OA
ATOM      2  O   UNL     1      10.756   5.709   6.056  0.00  0.00    -0.370 OA
ATOM     13  C   UNL     1      10.503   6.993   5.455  0.00  0.00    +0.176 C 
ATOM     14  C   UNL     1       9.631   6.747   4.240  0.00  0.00    +0.171 C 
ATOM     15  C   UNL     1       9.642   7.831   6.381  0.00  0.00    +0.171 C 
ATOM     16  C   UNL     1       9.869   5.292   3.895  0.00  0.00    +0.130 C 
ATOM     17  C   UNL     1       8.225   7.417   5.995  0.00  0.00    +0.190 C 
ATOM     18  C   UNL     1      10.136   4.688   5.263  0.00  0.00    +0.185 C 
ENDROOT
BRANCH  15   5
ATOM      5  N   UNL     1       9.926   9.263   6.269  0.00  0.00    -0.187 N 
ATOM      7  N   UNL     1       9.114  10.072   5.582  0.00  0.00    -0.041 NA
ATOM      8  N   UNL     1      10.820  11.223   6.438  0.00  0.00    -0.071 NA
ATOM      9  N   UNL     1       9.666  11.275   5.688  0.00  0.00    -0.020 NA
ATOM     19  C   UNL     1      10.961   9.966   6.787  0.00  0.00    +0.342 A 
BRANCH  19   3
ATOM      3  O   UNL     1      11.935   9.453   7.515  0.00  0.00    -0.423 OA
BRANCH   3  24
ATOM     24  C   UNL     1      13.211   9.239   7.011  0.00  0.00    +0.132 A 
ATOM     28  C   UNL     1      13.638   7.942   6.800  0.00  0.00    +0.048 A 
ATOM     29  C   UNL     1      14.015  10.327   6.734  0.00  0.00    +0.048 A 
ATOM     30  C   UNL     1      14.920   7.725   6.294  0.00  0.00    +0.031 A 
ATOM     31  C   UNL     1      15.296  10.111   6.228  0.00  0.00    +0.031 A 
ATOM     33  C   UNL     1      15.749   8.810   6.007  0.00  0.00    +0.067 A 
BRANCH  33  10
ATOM     10  N   UNL     1      17.019   8.595   5.505  0.00  0.00    -0.220 N 
ATOM     11  N   UNL     1      17.225   8.097   4.273  0.00  0.00    -0.154 NA
ATOM     12  N   UNL     1      19.203   8.509   5.343  0.00  0.00    -0.222 NA
ATOM     34  C   UNL     1      18.207   8.836   6.133  0.00  0.00    +0.225 A 
ATOM     35  C   UNL     1      18.557   8.065   4.225  0.00  0.00    +0.245 A 
ENDBRANCH  33  10
ENDBRANCH   3  24
ENDBRANCH  19   3
ENDBRANCH  15   5
BRANCH  16   6
ATOM      4  O   UNL     1      10.056   3.895   1.380  0.00  0.00    -0.270 OA
ATOM      6  N   UNL     1      11.055   5.153   3.053  0.00  0.00    -0.304 N 
ATOM     20  C   UNL     1      11.042   4.456   1.853  0.00  0.00    +0.244 C 
ATOM     36  H   UNL     1      11.930   5.493   3.438  0.00  0.00    +0.149 HD
BRANCH  20  21
ATOM     21  C   UNL     1      12.337   4.383   1.129  0.00  0.00    +0.037 A 
ATOM     22  C   UNL     1      13.347   3.599   1.648  0.00  0.00    +0.013 A 
ATOM     23  C   UNL     1      12.488   5.100  -0.039  0.00  0.00    +0.013 A 
ATOM     25  C   UNL     1      14.563   3.529   0.968  0.00  0.00    +0.004 A 
ATOM     26  C   UNL     1      13.704   5.031  -0.719  0.00  0.00    +0.004 A 
ATOM     27  C   UNL     1      14.742   4.246  -0.215  0.00  0.00    -0.050 A 
ATOM     32  C   UNL     1      16.042   4.172  -0.942  0.00  0.00    +0.044 C 
ENDBRANCH  20  21
ENDBRANCH  16   6
TORSDOF 6
ENDMDL
