MODEL 1
REMARK VINA RESULT:      -7.3      0.000      0.000
REMARK  Name = 45361617
REMARK  10 active torsions:
REMARK  status: ('A' for Active; 'I' for Inactive)
REMARK    1  A    between atoms: O_1  and  C_11
REMARK    2  A    between atoms: N_4  and  C_15
REMARK    3  A    between atoms: N_5  and  C_25
REMARK    4  A    between atoms: C_8  and  C_18
REMARK    5  A    between atoms: C_10  and  C_20
REMARK    6  A    between atoms: C_14  and  C_19
REMARK    7  A    between atoms: C_19  and  C_21
REMARK    8  A    between atoms: C_19  and  C_22
REMARK    9  A    between atoms: C_23  and  C_24
REMARK   10  A    between atoms: C_25  and  C_27
REMARK                            x       y       z     vdW  Elec       q    Type
REMARK                         _______ _______ _______ _____ _____    ______ ____
ROOT
ATOM      8  C   UNL     1     -17.393   5.384  22.095  0.00  0.00    -0.027 C 
ATOM      9  C   UNL     1     -16.057   5.033  22.829  0.00  0.00    +0.028 C 
ATOM     10  C   UNL     1     -14.817   5.383  21.930  0.00  0.00    +0.012 C 
ATOM     11  C   UNL     1     -16.086   3.583  23.393  0.00  0.00    +0.122 C 
ATOM     12  C   UNL     1     -18.586   5.135  23.049  0.00  0.00    +0.007 C 
ATOM     13  C   UNL     1     -17.389   6.886  21.730  0.00  0.00    +0.009 C 
ATOM     14  C   UNL     1     -17.335   3.308  24.262  0.00  0.00    +0.029 C 
ATOM     15  C   UNL     1     -14.863   6.878  21.506  0.00  0.00    +0.076 C 
ATOM     16  C   UNL     1     -18.640   3.706  23.572  0.00  0.00    +0.007 C 
ATOM     17  C   UNL     1     -16.194   7.291  20.878  0.00  0.00    +0.023 C 
ATOM     18  C   UNL     1     -17.601   4.546  20.808  0.00  0.00    +0.011 C 
ATOM     20  C   UNL     1     -13.465   5.089  22.602  0.00  0.00    +0.010 C 
ENDROOT
BRANCH  15   4
ATOM      3  O   UNL     1     -13.023   9.071  21.720  0.00  0.00    -0.269 OA
ATOM      4  N   UNL     1     -13.798   7.206  20.582  0.00  0.00    -0.307 N 
ATOM     23  C   UNL     1     -12.959   8.291  20.773  0.00  0.00    +0.263 C 
ATOM     35  H   UNL     1     -13.706   6.650  19.735  0.00  0.00    +0.149 HD
BRANCH  23  24
ATOM      6  N   UNL     1     -11.965   7.640  18.684  0.00  0.00    -0.250 NA
ATOM     24  C   UNL     1     -11.934   8.508  19.720  0.00  0.00    +0.125 A 
ATOM     26  C   UNL     1     -11.022   9.544  19.837  0.00  0.00    +0.033 A 
ATOM     28  C   UNL     1     -10.082   9.701  18.825  0.00  0.00    +0.004 A 
ATOM     29  C   UNL     1     -11.036   7.824  17.719  0.00  0.00    +0.111 A 
ATOM     32  C   UNL     1     -10.082   8.828  17.742  0.00  0.00    +0.020 A 
ENDBRANCH  23  24
ENDBRANCH  15   4
BRANCH  11   1
ATOM      1  O   UNL     1     -14.950   3.376  24.234  0.00  0.00    -0.391 OA
ATOM     36  H   UNL     1     -14.177   3.775  23.801  0.00  0.00    +0.210 HD
ENDBRANCH  11   1
BRANCH  14  19
ATOM     19  C   UNL     1     -17.413   1.840  24.699  0.00  0.00    +0.077 C 
ATOM     21  C   UNL     1     -18.483   1.110  23.895  0.00  0.00    +0.017 C 
BRANCH  19  22
ATOM      2  O   UNL     1     -18.539   1.012  26.676  0.00  0.00    -0.276 OA
ATOM      5  N   UNL     1     -16.878   2.610  26.934  0.00  0.00    -0.311 N 
ATOM     22  C   UNL     1     -17.688   1.758  26.197  0.00  0.00    +0.216 C 
ATOM     37  H   UNL     1     -16.160   3.156  26.468  0.00  0.00    +0.149 HD
BRANCH   5  25
ATOM     25  C   UNL     1     -16.954   2.710  28.373  0.00  0.00    +0.141 C 
BRANCH  25  27
ATOM      7  N   UNL     1     -14.902  -0.157  29.739  0.00  0.00    -0.263 NA
ATOM     27  C   UNL     1     -15.842   1.960  29.048  0.00  0.00    -0.012 A 
ATOM     30  C   UNL     1     -14.754   2.631  29.594  0.00  0.00    +0.008 A 
ATOM     31  C   UNL     1     -15.868   0.578  29.145  0.00  0.00    +0.115 A 
ATOM     33  C   UNL     1     -13.739   1.909  30.214  0.00  0.00    +0.020 A 
ATOM     34  C   UNL     1     -13.860   0.530  30.259  0.00  0.00    +0.111 A 
ENDBRANCH  25  27
ENDBRANCH   5  25
ENDBRANCH  19  22
ENDBRANCH  14  19
TORSDOF 7
ENDMDL
MODEL 2
REMARK VINA RESULT:      -7.1     18.652     21.734
REMARK  Name = 45361617
REMARK  10 active torsions:
REMARK  status: ('A' for Active; 'I' for Inactive)
REMARK    1  A    between atoms: O_1  and  C_11
REMARK    2  A    between atoms: N_4  and  C_15
REMARK    3  A    between atoms: N_5  and  C_25
REMARK    4  A    between atoms: C_8  and  C_18
REMARK    5  A    between atoms: C_10  and  C_20
REMARK    6  A    between atoms: C_14  and  C_19
REMARK    7  A    between atoms: C_19  and  C_21
REMARK    8  A    between atoms: C_19  and  C_22
REMARK    9  A    between atoms: C_23  and  C_24
REMARK   10  A    between atoms: C_25  and  C_27
REMARK                            x       y       z     vdW  Elec       q    Type
REMARK                         _______ _______ _______ _____ _____    ______ ____
ROOT
ATOM      8  C   UNL     1      -4.680 -11.090  16.907  0.00  0.00    -0.027 C 
ATOM      9  C   UNL     1      -5.485 -10.455  15.725  0.00  0.00    +0.028 C 
ATOM     10  C   UNL     1      -7.031 -10.551  15.986  0.00  0.00    +0.012 C 
ATOM     11  C   UNL     1      -5.003 -11.008  14.352  0.00  0.00    +0.122 C 
ATOM     12  C   UNL     1      -3.166 -10.877  16.673  0.00  0.00    +0.007 C 
ATOM     13  C   UNL     1      -5.058 -10.368  18.220  0.00  0.00    +0.009 C 
ATOM     14  C   UNL     1      -3.472 -10.888  14.167  0.00  0.00    +0.029 C 
ATOM     15  C   UNL     1      -7.390  -9.888  17.345  0.00  0.00    +0.076 C 
ATOM     16  C   UNL     1      -2.682 -11.453  15.347  0.00  0.00    +0.007 C 
ATOM     17  C   UNL     1      -6.551 -10.405  18.514  0.00  0.00    +0.023 C 
ATOM     18  C   UNL     1      -4.952 -12.608  17.063  0.00  0.00    +0.011 C 
ATOM     20  C   UNL     1      -7.885  -9.920  14.873  0.00  0.00    +0.010 C 
ENDROOT
BRANCH  15   4
ATOM      3  O   UNL     1      -9.411  -7.849  17.362  0.00  0.00    -0.269 OA
ATOM      4  N   UNL     1      -8.790 -10.061  17.673  0.00  0.00    -0.307 N 
ATOM     23  C   UNL     1      -9.690  -9.009  17.652  0.00  0.00    +0.263 C 
ATOM     35  H   UNL     1      -9.103 -10.977  17.983  0.00  0.00    +0.149 HD
BRANCH  23  24
ATOM      6  N   UNL     1     -12.046  -8.924  17.188  0.00  0.00    -0.250 NA
ATOM     24  C   UNL     1     -11.085  -9.345  18.040  0.00  0.00    +0.125 A 
ATOM     26  C   UNL     1     -11.335 -10.042  19.210  0.00  0.00    +0.033 A 
ATOM     28  C   UNL     1     -12.658 -10.328  19.526  0.00  0.00    +0.004 A 
ATOM     29  C   UNL     1     -13.321  -9.221  17.529  0.00  0.00    +0.111 A 
ATOM     32  C   UNL     1     -13.676  -9.913  18.675  0.00  0.00    +0.020 A 
ENDBRANCH  23  24
ENDBRANCH  15   4
BRANCH  11   1
ATOM      1  O   UNL     1      -5.603 -10.256  13.298  0.00  0.00    -0.391 OA
ATOM     36  H   UNL     1      -6.477  -9.957  13.599  0.00  0.00    +0.210 HD
ENDBRANCH  11   1
BRANCH  14  19
ATOM     19  C   UNL     1      -3.002 -11.556  12.869  0.00  0.00    +0.077 C 
ATOM     21  C   UNL     1      -1.832 -12.491  13.154  0.00  0.00    +0.017 C 
BRANCH  19  22
ATOM      2  O   UNL     1      -1.517  -9.964  11.808  0.00  0.00    -0.276 OA
ATOM      5  N   UNL     1      -3.669 -10.198  10.976  0.00  0.00    -0.311 N 
ATOM     22  C   UNL     1      -2.627 -10.492  11.843  0.00  0.00    +0.216 C 
ATOM     37  H   UNL     1      -4.540 -10.716  11.037  0.00  0.00    +0.149 HD
BRANCH   5  25
ATOM     25  C   UNL     1      -3.554  -9.220   9.919  0.00  0.00    +0.141 C 
BRANCH  25  27
ATOM      7  N   UNL     1      -6.108  -9.736   7.179  0.00  0.00    -0.263 NA
ATOM     27  C   UNL     1      -4.822  -9.099   9.125  0.00  0.00    -0.012 A 
ATOM     30  C   UNL     1      -5.861  -8.281   9.554  0.00  0.00    +0.008 A 
ATOM     31  C   UNL     1      -4.994  -9.799   7.942  0.00  0.00    +0.115 A 
ATOM     33  C   UNL     1      -7.024  -8.189   8.796  0.00  0.00    +0.020 A 
ATOM     34  C   UNL     1      -7.096  -8.929   7.628  0.00  0.00    +0.111 A 
ENDBRANCH  25  27
ENDBRANCH   5  25
ENDBRANCH  19  22
ENDBRANCH  14  19
TORSDOF 7
ENDMDL
MODEL 3
REMARK VINA RESULT:      -7.0     18.586     21.905
REMARK  Name = 45361617
REMARK  10 active torsions:
REMARK  status: ('A' for Active; 'I' for Inactive)
REMARK    1  A    between atoms: O_1  and  C_11
REMARK    2  A    between atoms: N_4  and  C_15
REMARK    3  A    between atoms: N_5  and  C_25
REMARK    4  A    between atoms: C_8  and  C_18
REMARK    5  A    between atoms: C_10  and  C_20
REMARK    6  A    between atoms: C_14  and  C_19
REMARK    7  A    between atoms: C_19  and  C_21
REMARK    8  A    between atoms: C_19  and  C_22
REMARK    9  A    between atoms: C_23  and  C_24
REMARK   10  A    between atoms: C_25  and  C_27
REMARK                            x       y       z     vdW  Elec       q    Type
REMARK                         _______ _______ _______ _____ _____    ______ ____
ROOT
ATOM      8  C   UNL     1      -4.836 -11.271  17.244  0.00  0.00    -0.027 C 
ATOM      9  C   UNL     1      -5.804 -10.460  16.321  0.00  0.00    +0.028 C 
ATOM     10  C   UNL     1      -7.270 -10.489  16.885  0.00  0.00    +0.012 C 
ATOM     11  C   UNL     1      -5.652 -10.883  14.831  0.00  0.00    +0.122 C 
ATOM     12  C   UNL     1      -3.386 -11.127  16.724  0.00  0.00    +0.007 C 
ATOM     13  C   UNL     1      -4.884 -10.680  18.671  0.00  0.00    +0.009 C 
ATOM     14  C   UNL     1      -4.184 -10.837  14.347  0.00  0.00    +0.029 C 
ATOM     15  C   UNL     1      -7.296  -9.962  18.347  0.00  0.00    +0.076 C 
ATOM     16  C   UNL     1      -3.225 -11.578  15.278  0.00  0.00    +0.007 C 
ATOM     17  C   UNL     1      -6.287 -10.658  19.262  0.00  0.00    +0.023 C 
ATOM     18  C   UNL     1      -5.196 -12.778  17.303  0.00  0.00    +0.011 C 
ATOM     20  C   UNL     1      -8.272  -9.685  16.039  0.00  0.00    +0.010 C 
ENDROOT
BRANCH  15   4
ATOM      3  O   UNL     1      -8.534 -12.375  19.287  0.00  0.00    -0.269 OA
ATOM      4  N   UNL     1      -8.612 -10.085  18.938  0.00  0.00    -0.307 N 
ATOM     23  C   UNL     1      -9.123 -11.300  19.362  0.00  0.00    +0.263 C 
ATOM     35  H   UNL     1      -9.198  -9.255  18.987  0.00  0.00    +0.149 HD
BRANCH  23  24
ATOM      6  N   UNL     1     -10.978 -12.441  20.377  0.00  0.00    -0.250 NA
ATOM     24  C   UNL     1     -10.499 -11.262  19.921  0.00  0.00    +0.125 A 
ATOM     26  C   UNL     1     -11.209 -10.073  19.948  0.00  0.00    +0.033 A 
ATOM     28  C   UNL     1     -12.493 -10.094  20.480  0.00  0.00    +0.004 A 
ATOM     29  C   UNL     1     -12.230 -12.422  20.887  0.00  0.00    +0.111 A 
ATOM     32  C   UNL     1     -13.021 -11.288  20.960  0.00  0.00    +0.020 A 
ENDBRANCH  23  24
ENDBRANCH  15   4
BRANCH  11   1
ATOM      1  O   UNL     1      -6.385  -9.981  14.002  0.00  0.00    -0.391 OA
ATOM     36  H   UNL     1      -6.805 -10.496  13.293  0.00  0.00    +0.210 HD
ENDBRANCH  11   1
BRANCH  14  19
ATOM     19  C   UNL     1      -4.038 -11.382  12.921  0.00  0.00    +0.077 C 
ATOM     21  C   UNL     1      -2.937 -12.436  12.872  0.00  0.00    +0.017 C 
BRANCH  19  22
ATOM      2  O   UNL     1      -2.623  -9.960  11.564  0.00  0.00    -0.276 OA
ATOM      5  N   UNL     1      -4.908  -9.563  11.577  0.00  0.00    -0.311 N 
ATOM     22  C   UNL     1      -3.756 -10.237  11.954  0.00  0.00    +0.216 C 
ATOM     37  H   UNL     1      -5.814  -9.887  11.901  0.00  0.00    +0.149 HD
BRANCH   5  25
ATOM     25  C   UNL     1      -4.895  -8.440  10.668  0.00  0.00    +0.141 C 
BRANCH  25  27
ATOM      7  N   UNL     1      -7.422  -8.523   7.857  0.00  0.00    -0.263 NA
ATOM     27  C   UNL     1      -5.541  -8.773   9.354  0.00  0.00    -0.012 A 
ATOM     30  C   UNL     1      -4.909  -9.603   8.435  0.00  0.00    +0.008 A 
ATOM     31  C   UNL     1      -6.785  -8.263   9.021  0.00  0.00    +0.115 A 
ATOM     33  C   UNL     1      -5.534  -9.894   7.227  0.00  0.00    +0.020 A 
ATOM     34  C   UNL     1      -6.778  -9.335   6.989  0.00  0.00    +0.111 A 
ENDBRANCH  25  27
ENDBRANCH   5  25
ENDBRANCH  19  22
ENDBRANCH  14  19
TORSDOF 7
ENDMDL
MODEL 4
REMARK VINA RESULT:      -7.0     19.089     22.202
REMARK  Name = 45361617
REMARK  10 active torsions:
REMARK  status: ('A' for Active; 'I' for Inactive)
REMARK    1  A    between atoms: O_1  and  C_11
REMARK    2  A    between atoms: N_4  and  C_15
REMARK    3  A    between atoms: N_5  and  C_25
REMARK    4  A    between atoms: C_8  and  C_18
REMARK    5  A    between atoms: C_10  and  C_20
REMARK    6  A    between atoms: C_14  and  C_19
REMARK    7  A    between atoms: C_19  and  C_21
REMARK    8  A    between atoms: C_19  and  C_22
REMARK    9  A    between atoms: C_23  and  C_24
REMARK   10  A    between atoms: C_25  and  C_27
REMARK                            x       y       z     vdW  Elec       q    Type
REMARK                         _______ _______ _______ _____ _____    ______ ____
ROOT
ATOM      8  C   UNL     1      -4.197 -10.614  11.148  0.00  0.00    -0.027 C 
ATOM      9  C   UNL     1      -5.607 -10.012  11.458  0.00  0.00    +0.028 C 
ATOM     10  C   UNL     1      -6.168 -10.572  12.815  0.00  0.00    +0.012 C 
ATOM     11  C   UNL     1      -6.560 -10.146  10.235  0.00  0.00    +0.122 C 
ATOM     12  C   UNL     1      -3.626  -9.959   9.869  0.00  0.00    +0.007 C 
ATOM     13  C   UNL     1      -3.238 -10.282  12.315  0.00  0.00    +0.009 C 
ATOM     14  C   UNL     1      -5.941  -9.582   8.935  0.00  0.00    +0.029 C 
ATOM     15  C   UNL     1      -5.162 -10.299  13.968  0.00  0.00    +0.076 C 
ATOM     16  C   UNL     1      -4.537 -10.122   8.659  0.00  0.00    +0.007 C 
ATOM     17  C   UNL     1      -3.743 -10.778  13.662  0.00  0.00    +0.023 C 
ATOM     18  C   UNL     1      -4.239 -12.151  10.944  0.00  0.00    +0.011 C 
ATOM     20  C   UNL     1      -7.544  -9.999  13.197  0.00  0.00    +0.010 C 
ENDROOT
BRANCH  15   4
ATOM      3  O   UNL     1      -5.936  -8.922  16.366  0.00  0.00    -0.269 OA
ATOM      4  N   UNL     1      -5.594 -10.903  15.211  0.00  0.00    -0.307 N 
ATOM     23  C   UNL     1      -5.947 -10.150  16.317  0.00  0.00    +0.263 C 
ATOM     35  H   UNL     1      -5.578 -11.917  15.285  0.00  0.00    +0.149 HD
BRANCH  23  24
ATOM      6  N   UNL     1      -7.392 -11.758  17.367  0.00  0.00    -0.250 NA
ATOM     24  C   UNL     1      -6.342 -10.920  17.524  0.00  0.00    +0.125 A 
ATOM     26  C   UNL     1      -5.652 -10.756  18.714  0.00  0.00    +0.033 A 
ATOM     28  C   UNL     1      -6.064 -11.500  19.813  0.00  0.00    +0.004 A 
ATOM     29  C   UNL     1      -7.764 -12.464  18.458  0.00  0.00    +0.111 A 
ATOM     32  C   UNL     1      -7.140 -12.372  19.691  0.00  0.00    +0.020 A 
ENDBRANCH  23  24
ENDBRANCH  15   4
BRANCH  11   1
ATOM      1  O   UNL     1      -7.753  -9.400  10.476  0.00  0.00    -0.391 OA
ATOM     36  H   UNL     1      -7.512  -8.463  10.562  0.00  0.00    +0.210 HD
ENDBRANCH  11   1
BRANCH  14  19
ATOM     19  C   UNL     1      -6.837  -9.841   7.718  0.00  0.00    +0.077 C 
ATOM     21  C   UNL     1      -6.069 -10.617   6.655  0.00  0.00    +0.017 C 
BRANCH  19  22
ATOM      2  O   UNL     1      -7.648  -8.356   5.985  0.00  0.00    -0.276 OA
ATOM      5  N   UNL     1      -7.483  -7.545   8.152  0.00  0.00    -0.311 N 
ATOM     22  C   UNL     1      -7.365  -8.519   7.171  0.00  0.00    +0.216 C 
ATOM     37  H   UNL     1      -7.279  -7.775   9.120  0.00  0.00    +0.149 HD
BRANCH   5  25
ATOM     25  C   UNL     1      -7.960  -6.210   7.875  0.00  0.00    +0.141 C 
BRANCH  25  27
ATOM      7  N   UNL     1     -11.238  -6.777   9.673  0.00  0.00    -0.263 NA
ATOM     27  C   UNL     1      -9.269  -5.930   8.556  0.00  0.00    -0.012 A 
ATOM     30  C   UNL     1      -9.732  -4.628   8.709  0.00  0.00    +0.008 A 
ATOM     31  C   UNL     1     -10.052  -6.959   9.051  0.00  0.00    +0.115 A 
ATOM     33  C   UNL     1     -10.948  -4.399   9.343  0.00  0.00    +0.020 A 
ATOM     34  C   UNL     1     -11.656  -5.497   9.802  0.00  0.00    +0.111 A 
ENDBRANCH  25  27
ENDBRANCH   5  25
ENDBRANCH  19  22
ENDBRANCH  14  19
TORSDOF 7
ENDMDL
MODEL 5
REMARK VINA RESULT:      -7.0     28.754     33.639
REMARK  Name = 45361617
REMARK  10 active torsions:
REMARK  status: ('A' for Active; 'I' for Inactive)
REMARK    1  A    between atoms: O_1  and  C_11
REMARK    2  A    between atoms: N_4  and  C_15
REMARK    3  A    between atoms: N_5  and  C_25
REMARK    4  A    between atoms: C_8  and  C_18
REMARK    5  A    between atoms: C_10  and  C_20
REMARK    6  A    between atoms: C_14  and  C_19
REMARK    7  A    between atoms: C_19  and  C_21
REMARK    8  A    between atoms: C_19  and  C_22
REMARK    9  A    between atoms: C_23  and  C_24
REMARK   10  A    between atoms: C_25  and  C_27
REMARK                            x       y       z     vdW  Elec       q    Type
REMARK                         _______ _______ _______ _____ _____    ______ ____
ROOT
ATOM      8  C   UNL     1       9.446   6.235   6.296  0.00  0.00    -0.027 C 
ATOM      9  C   UNL     1      10.505   7.287   5.830  0.00  0.00    +0.028 C 
ATOM     10  C   UNL     1      10.088   8.735   6.275  0.00  0.00    +0.012 C 
ATOM     11  C   UNL     1      10.840   7.122   4.320  0.00  0.00    +0.122 C 
ATOM     12  C   UNL     1       9.942   4.812   5.943  0.00  0.00    +0.007 C 
ATOM     13  C   UNL     1       9.297   6.313   7.832  0.00  0.00    +0.009 C 
ATOM     14  C   UNL     1      11.235   5.673   3.953  0.00  0.00    +0.029 C 
ATOM     15  C   UNL     1       9.868   8.784   7.813  0.00  0.00    +0.076 C 
ATOM     16  C   UNL     1      10.232   4.635   4.458  0.00  0.00    +0.007 C 
ATOM     17  C   UNL     1       8.918   7.702   8.326  0.00  0.00    +0.023 C 
ATOM     18  C   UNL     1       8.060   6.456   5.637  0.00  0.00    +0.011 C 
ATOM     20  C   UNL     1      11.102   9.820   5.873  0.00  0.00    +0.010 C 
ENDROOT
BRANCH  15   4
ATOM      3  O   UNL     1      11.318  10.779   9.283  0.00  0.00    -0.269 OA
ATOM      4  N   UNL     1       9.370  10.074   8.242  0.00  0.00    -0.307 N 
ATOM     23  C   UNL     1      10.151  10.971   8.951  0.00  0.00    +0.263 C 
ATOM     35  H   UNL     1       8.395  10.298   8.064  0.00  0.00    +0.149 HD
BRANCH  23  24
ATOM      6  N   UNL     1      10.107  13.374   8.946  0.00  0.00    -0.250 NA
ATOM     24  C   UNL     1       9.485  12.240   9.341  0.00  0.00    +0.125 A 
ATOM     26  C   UNL     1       8.306  12.215  10.067  0.00  0.00    +0.033 A 
ATOM     28  C   UNL     1       7.725  13.431  10.408  0.00  0.00    +0.004 A 
ATOM     29  C   UNL     1       9.513  14.537   9.297  0.00  0.00    +0.111 A 
ATOM     32  C   UNL     1       8.335  14.619  10.020  0.00  0.00    +0.020 A 
ENDBRANCH  23  24
ENDBRANCH  15   4
BRANCH  11   1
ATOM      1  O   UNL     1      11.957   7.947   3.985  0.00  0.00    -0.391 OA
ATOM     36  H   UNL     1      11.863   8.221   3.057  0.00  0.00    +0.210 HD
ENDBRANCH  11   1
BRANCH  14  19
ATOM     19  C   UNL     1      11.432   5.501   2.442  0.00  0.00    +0.077 C 
ATOM     21  C   UNL     1      10.599   4.330   1.933  0.00  0.00    +0.017 C 
BRANCH  19  22
ATOM      2  O   UNL     1      13.720   6.236   2.145  0.00  0.00    -0.276 OA
ATOM      5  N   UNL     1      13.228   3.991   1.833  0.00  0.00    -0.311 N 
ATOM     22  C   UNL     1      12.912   5.309   2.130  0.00  0.00    +0.216 C 
ATOM     37  H   UNL     1      12.513   3.273   1.895  0.00  0.00    +0.149 HD
BRANCH   5  25
ATOM     25  C   UNL     1      14.568   3.563   1.504  0.00  0.00    +0.141 C 
BRANCH  25  27
ATOM      7  N   UNL     1      14.304   4.277  -2.200  0.00  0.00    -0.263 NA
ATOM     27  C   UNL     1      14.954   3.952   0.106  0.00  0.00    -0.012 A 
ATOM     30  C   UNL     1      16.255   4.335  -0.198  0.00  0.00    +0.008 A 
ATOM     31  C   UNL     1      14.024   3.940  -0.921  0.00  0.00    +0.115 A 
ATOM     33  C   UNL     1      16.583   4.689  -1.503  0.00  0.00    +0.020 A 
ATOM     34  C   UNL     1      15.580   4.643  -2.457  0.00  0.00    +0.111 A 
ENDBRANCH  25  27
ENDBRANCH   5  25
ENDBRANCH  19  22
ENDBRANCH  14  19
TORSDOF 7
ENDMDL
MODEL 6
REMARK VINA RESULT:      -6.9     19.994     21.591
REMARK  Name = 45361617
REMARK  10 active torsions:
REMARK  status: ('A' for Active; 'I' for Inactive)
REMARK    1  A    between atoms: O_1  and  C_11
REMARK    2  A    between atoms: N_4  and  C_15
REMARK    3  A    between atoms: N_5  and  C_25
REMARK    4  A    between atoms: C_8  and  C_18
REMARK    5  A    between atoms: C_10  and  C_20
REMARK    6  A    between atoms: C_14  and  C_19
REMARK    7  A    between atoms: C_19  and  C_21
REMARK    8  A    between atoms: C_19  and  C_22
REMARK    9  A    between atoms: C_23  and  C_24
REMARK   10  A    between atoms: C_25  and  C_27
REMARK                            x       y       z     vdW  Elec       q    Type
REMARK                         _______ _______ _______ _____ _____    ______ ____
ROOT
ATOM      8  C   UNL     1      -3.158 -11.399  11.850  0.00  0.00    -0.027 C 
ATOM      9  C   UNL     1      -4.463 -10.871  12.534  0.00  0.00    +0.028 C 
ATOM     10  C   UNL     1      -5.249  -9.910  11.572  0.00  0.00    +0.012 C 
ATOM     11  C   UNL     1      -4.167 -10.302  13.952  0.00  0.00    +0.122 C 
ATOM     12  C   UNL     1      -2.469 -12.428  12.777  0.00  0.00    +0.007 C 
ATOM     13  C   UNL     1      -3.534 -12.126  10.538  0.00  0.00    +0.009 C 
ATOM     14  C   UNL     1      -3.385 -11.298  14.841  0.00  0.00    +0.029 C 
ATOM     15  C   UNL     1      -5.557 -10.627  10.227  0.00  0.00    +0.076 C 
ATOM     16  C   UNL     1      -2.141 -11.862  14.153  0.00  0.00    +0.007 C 
ATOM     17  C   UNL     1      -4.323 -11.251   9.575  0.00  0.00    +0.023 C 
ATOM     18  C   UNL     1      -2.153 -10.263  11.532  0.00  0.00    +0.011 C 
ATOM     20  C   UNL     1      -6.561  -9.375  12.172  0.00  0.00    +0.010 C 
ENDROOT
BRANCH  15   4
ATOM      3  O   UNL     1      -7.504 -11.329   8.237  0.00  0.00    -0.269 OA
ATOM      4  N   UNL     1      -6.179  -9.733   9.273  0.00  0.00    -0.307 N 
ATOM     23  C   UNL     1      -7.111 -10.171   8.348  0.00  0.00    +0.263 C 
ATOM     35  H   UNL     1      -5.872  -8.764   9.249  0.00  0.00    +0.149 HD
BRANCH  23  24
ATOM      6  N   UNL     1      -7.724  -9.502   6.122  0.00  0.00    -0.250 NA
ATOM     24  C   UNL     1      -7.636  -9.135   7.421  0.00  0.00    +0.125 A 
ATOM     26  C   UNL     1      -7.994  -7.886   7.899  0.00  0.00    +0.033 A 
ATOM     28  C   UNL     1      -8.476  -6.953   6.988  0.00  0.00    +0.004 A 
ATOM     29  C   UNL     1      -8.198  -8.569   5.266  0.00  0.00    +0.111 A 
ATOM     32  C   UNL     1      -8.583  -7.294   5.644  0.00  0.00    +0.020 A 
ENDBRANCH  23  24
ENDBRANCH  15   4
BRANCH  11   1
ATOM      1  O   UNL     1      -5.397 -10.033  14.624  0.00  0.00    -0.391 OA
ATOM     36  H   UNL     1      -6.111 -10.480  14.138  0.00  0.00    +0.210 HD
ENDBRANCH  11   1
BRANCH  14  19
ATOM     19  C   UNL     1      -2.988 -10.672  16.183  0.00  0.00    +0.077 C 
ATOM     21  C   UNL     1      -1.471 -10.672  16.335  0.00  0.00    +0.017 C 
BRANCH  19  22
ATOM      2  O   UNL     1      -3.222 -11.422  18.474  0.00  0.00    -0.276 OA
ATOM      5  N   UNL     1      -4.808 -12.094  16.920  0.00  0.00    -0.311 N 
ATOM     22  C   UNL     1      -3.663 -11.424  17.326  0.00  0.00    +0.216 C 
ATOM     37  H   UNL     1      -5.136 -12.002  15.964  0.00  0.00    +0.149 HD
BRANCH   5  25
ATOM     25  C   UNL     1      -5.617 -12.877  17.825  0.00  0.00    +0.141 C 
BRANCH  25  27
ATOM      7  N   UNL     1      -8.532 -11.829  19.993  0.00  0.00    -0.263 NA
ATOM     27  C   UNL     1      -6.806 -12.108  18.324  0.00  0.00    -0.012 A 
ATOM     30  C   UNL     1      -7.286 -11.003  17.630  0.00  0.00    +0.008 A 
ATOM     31  C   UNL     1      -7.458 -12.477  19.489  0.00  0.00    +0.115 A 
ATOM     33  C   UNL     1      -8.390 -10.310  18.117  0.00  0.00    +0.020 A 
ATOM     34  C   UNL     1      -8.972 -10.761  19.291  0.00  0.00    +0.111 A 
ENDBRANCH  25  27
ENDBRANCH   5  25
ENDBRANCH  19  22
ENDBRANCH  14  19
TORSDOF 7
ENDMDL
MODEL 7
REMARK VINA RESULT:      -6.7     29.777     35.792
REMARK  Name = 45361617
REMARK  10 active torsions:
REMARK  status: ('A' for Active; 'I' for Inactive)
REMARK    1  A    between atoms: O_1  and  C_11
REMARK    2  A    between atoms: N_4  and  C_15
REMARK    3  A    between atoms: N_5  and  C_25
REMARK    4  A    between atoms: C_8  and  C_18
REMARK    5  A    between atoms: C_10  and  C_20
REMARK    6  A    between atoms: C_14  and  C_19
REMARK    7  A    between atoms: C_19  and  C_21
REMARK    8  A    between atoms: C_19  and  C_22
REMARK    9  A    between atoms: C_23  and  C_24
REMARK   10  A    between atoms: C_25  and  C_27
REMARK                            x       y       z     vdW  Elec       q    Type
REMARK                         _______ _______ _______ _____ _____    ______ ____
ROOT
ATOM      8  C   UNL     1      13.756   4.941   0.503  0.00  0.00    -0.027 C 
ATOM      9  C   UNL     1      12.201   4.802   0.402  0.00  0.00    +0.028 C 
ATOM     10  C   UNL     1      11.556   4.681   1.829  0.00  0.00    +0.012 C 
ATOM     11  C   UNL     1      11.798   3.689  -0.610  0.00  0.00    +0.122 C 
ATOM     12  C   UNL     1      14.346   5.172  -0.908  0.00  0.00    +0.007 C 
ATOM     13  C   UNL     1      14.096   6.180   1.363  0.00  0.00    +0.009 C 
ATOM     14  C   UNL     1      12.475   3.867  -1.989  0.00  0.00    +0.029 C 
ATOM     15  C   UNL     1      11.966   5.895   2.710  0.00  0.00    +0.076 C 
ATOM     16  C   UNL     1      13.988   4.064  -1.890  0.00  0.00    +0.007 C 
ATOM     17  C   UNL     1      13.476   6.132   2.752  0.00  0.00    +0.023 C 
ATOM     18  C   UNL     1      14.425   3.689   1.125  0.00  0.00    +0.011 C 
ATOM     20  C   UNL     1      10.022   4.569   1.805  0.00  0.00    +0.010 C 
ENDROOT
BRANCH  15   4
ATOM      3  O   UNL     1       9.889   7.436   3.955  0.00  0.00    -0.269 OA
ATOM      4  N   UNL     1      11.484   5.758   4.069  0.00  0.00    -0.307 N 
ATOM     23  C   UNL     1      10.473   6.553   4.579  0.00  0.00    +0.263 C 
ATOM     35  H   UNL     1      11.949   5.092   4.680  0.00  0.00    +0.149 HD
BRANCH  23  24
ATOM      6  N   UNL     1       9.870   7.411   6.742  0.00  0.00    -0.250 NA
ATOM     24  C   UNL     1      10.112   6.307   5.999  0.00  0.00    +0.125 A 
ATOM     26  C   UNL     1      10.043   5.013   6.488  0.00  0.00    +0.033 A 
ATOM     28  C   UNL     1       9.703   4.839   7.824  0.00  0.00    +0.004 A 
ATOM     29  C   UNL     1       9.543   7.202   8.037  0.00  0.00    +0.111 A 
ATOM     32  C   UNL     1       9.447   5.950   8.621  0.00  0.00    +0.020 A 
ENDBRANCH  23  24
ENDBRANCH  15   4
BRANCH  11   1
ATOM      1  O   UNL     1      10.389   3.738  -0.836  0.00  0.00    -0.391 OA
ATOM     36  H   UNL     1      10.004   2.904  -0.518  0.00  0.00    +0.210 HD
ENDBRANCH  11   1
BRANCH  14  19
ATOM     19  C   UNL     1      12.171   2.693  -2.928  0.00  0.00    +0.077 C 
ATOM     21  C   UNL     1      13.002   2.810  -4.201  0.00  0.00    +0.017 C 
BRANCH  19  22
ATOM      2  O   UNL     1       9.958   1.710  -2.901  0.00  0.00    -0.276 OA
ATOM      5  N   UNL     1      10.244   3.770  -3.929  0.00  0.00    -0.311 N 
ATOM     22  C   UNL     1      10.679   2.648  -3.237  0.00  0.00    +0.216 C 
ATOM     37  H   UNL     1      10.892   4.527  -4.123  0.00  0.00    +0.149 HD
BRANCH   5  25
ATOM     25  C   UNL     1       8.870   3.954  -4.334  0.00  0.00    +0.141 C 
BRANCH  25  27
ATOM      7  N   UNL     1       8.529   7.175  -2.383  0.00  0.00    -0.263 NA
ATOM     27  C   UNL     1       8.303   5.247  -3.825  0.00  0.00    -0.012 A 
ATOM     30  C   UNL     1       7.080   5.723  -4.283  0.00  0.00    +0.008 A 
ATOM     31  C   UNL     1       8.982   6.003  -2.884  0.00  0.00    +0.115 A 
ATOM     33  C   UNL     1       6.579   6.924  -3.791  0.00  0.00    +0.020 A 
ATOM     34  C   UNL     1       7.335   7.605  -2.851  0.00  0.00    +0.111 A 
ENDBRANCH  25  27
ENDBRANCH   5  25
ENDBRANCH  19  22
ENDBRANCH  14  19
TORSDOF 7
ENDMDL
MODEL 8
REMARK VINA RESULT:      -6.7     16.309     17.789
REMARK  Name = 45361617
REMARK  10 active torsions:
REMARK  status: ('A' for Active; 'I' for Inactive)
REMARK    1  A    between atoms: O_1  and  C_11
REMARK    2  A    between atoms: N_4  and  C_15
REMARK    3  A    between atoms: N_5  and  C_25
REMARK    4  A    between atoms: C_8  and  C_18
REMARK    5  A    between atoms: C_10  and  C_20
REMARK    6  A    between atoms: C_14  and  C_19
REMARK    7  A    between atoms: C_19  and  C_21
REMARK    8  A    between atoms: C_19  and  C_22
REMARK    9  A    between atoms: C_23  and  C_24
REMARK   10  A    between atoms: C_25  and  C_27
REMARK                            x       y       z     vdW  Elec       q    Type
REMARK                         _______ _______ _______ _____ _____    ______ ____
ROOT
ATOM      8  C   UNL     1     -12.288  -4.203  10.540  0.00  0.00    -0.027 C 
ATOM      9  C   UNL     1     -11.790  -5.650  10.863  0.00  0.00    +0.028 C 
ATOM     10  C   UNL     1     -11.430  -6.426   9.545  0.00  0.00    +0.012 C 
ATOM     11  C   UNL     1     -12.771  -6.384  11.823  0.00  0.00    +0.122 C 
ATOM     12  C   UNL     1     -12.525  -3.432  11.860  0.00  0.00    +0.007 C 
ATOM     13  C   UNL     1     -11.190  -3.456   9.749  0.00  0.00    +0.009 C 
ATOM     14  C   UNL     1     -13.085  -5.561  13.095  0.00  0.00    +0.029 C 
ATOM     15  C   UNL     1     -10.380  -5.629   8.721  0.00  0.00    +0.076 C 
ATOM     16  C   UNL     1     -13.515  -4.127  12.785  0.00  0.00    +0.007 C 
ATOM     17  C   UNL     1     -10.780  -4.174   8.471  0.00  0.00    +0.023 C 
ATOM     18  C   UNL     1     -13.602  -4.197   9.717  0.00  0.00    +0.011 C 
ATOM     20  C   UNL     1     -10.904  -7.850   9.791  0.00  0.00    +0.010 C 
ENDROOT
BRANCH  15   4
ATOM      3  O   UNL     1      -7.854  -6.643   7.808  0.00  0.00    -0.269 OA
ATOM      4  N   UNL     1     -10.111  -6.257   7.445  0.00  0.00    -0.307 N 
ATOM     23  C   UNL     1      -8.852  -6.715   7.095  0.00  0.00    +0.263 C 
ATOM     35  H   UNL     1     -10.864  -6.307   6.764  0.00  0.00    +0.149 HD
BRANCH  23  24
ATOM      6  N   UNL     1      -7.600  -8.007   5.502  0.00  0.00    -0.250 NA
ATOM     24  C   UNL     1      -8.735  -7.311   5.739  0.00  0.00    +0.125 A 
ATOM     26  C   UNL     1      -9.746  -7.134   4.809  0.00  0.00    +0.033 A 
ATOM     28  C   UNL     1      -9.584  -7.710   3.555  0.00  0.00    +0.004 A 
ATOM     29  C   UNL     1      -7.478  -8.553   4.271  0.00  0.00    +0.111 A 
ATOM     32  C   UNL     1      -8.431  -8.435   3.273  0.00  0.00    +0.020 A 
ENDBRANCH  23  24
ENDBRANCH  15   4
BRANCH  11   1
ATOM      1  O   UNL     1     -12.181  -7.607  12.264  0.00  0.00    -0.391 OA
ATOM     36  H   UNL     1     -11.532  -7.398  12.957  0.00  0.00    +0.210 HD
ENDBRANCH  11   1
BRANCH  14  19
ATOM     19  C   UNL     1     -14.152  -6.240  13.962  0.00  0.00    +0.077 C 
ATOM     21  C   UNL     1     -15.395  -5.361  14.049  0.00  0.00    +0.017 C 
BRANCH  19  22
ATOM      2  O   UNL     1     -14.289  -6.870  16.296  0.00  0.00    -0.276 OA
ATOM      5  N   UNL     1     -12.205  -6.393  15.397  0.00  0.00    -0.311 N 
ATOM     22  C   UNL     1     -13.583  -6.539  15.345  0.00  0.00    +0.216 C 
ATOM     37  H   UNL     1     -11.687  -6.168  14.553  0.00  0.00    +0.149 HD
BRANCH   5  25
ATOM     25  C   UNL     1     -11.439  -6.621  16.601  0.00  0.00    +0.141 C 
BRANCH  25  27
ATOM      7  N   UNL     1      -9.213  -9.164  14.906  0.00  0.00    -0.263 NA
ATOM     27  C   UNL     1     -10.370  -7.656  16.399  0.00  0.00    -0.012 A 
ATOM     30  C   UNL     1      -9.565  -8.069  17.454  0.00  0.00    +0.008 A 
ATOM     31  C   UNL     1     -10.156  -8.228  15.156  0.00  0.00    +0.115 A 
ATOM     33  C   UNL     1      -8.583  -9.030  17.236  0.00  0.00    +0.020 A 
ATOM     34  C   UNL     1      -8.450  -9.542  15.956  0.00  0.00    +0.111 A 
ENDBRANCH  25  27
ENDBRANCH   5  25
ENDBRANCH  19  22
ENDBRANCH  14  19
TORSDOF 7
ENDMDL
MODEL 9
REMARK VINA RESULT:      -6.5     15.646     18.257
REMARK  Name = 45361617
REMARK  10 active torsions:
REMARK  status: ('A' for Active; 'I' for Inactive)
REMARK    1  A    between atoms: O_1  and  C_11
REMARK    2  A    between atoms: N_4  and  C_15
REMARK    3  A    between atoms: N_5  and  C_25
REMARK    4  A    between atoms: C_8  and  C_18
REMARK    5  A    between atoms: C_10  and  C_20
REMARK    6  A    between atoms: C_14  and  C_19
REMARK    7  A    between atoms: C_19  and  C_21
REMARK    8  A    between atoms: C_19  and  C_22
REMARK    9  A    between atoms: C_23  and  C_24
REMARK   10  A    between atoms: C_25  and  C_27
REMARK                            x       y       z     vdW  Elec       q    Type
REMARK                         _______ _______ _______ _____ _____    ______ ____
ROOT
ATOM      8  C   UNL     1     -11.492  -9.494  13.789  0.00  0.00    -0.027 C 
ATOM      9  C   UNL     1     -11.161  -8.309  14.755  0.00  0.00    +0.028 C 
ATOM     10  C   UNL     1     -10.224  -8.785  15.923  0.00  0.00    +0.012 C 
ATOM     11  C   UNL     1     -12.453  -7.562  15.197  0.00  0.00    +0.122 C 
ATOM     12  C   UNL     1     -12.320  -8.968  12.593  0.00  0.00    +0.007 C 
ATOM     13  C   UNL     1     -10.173 -10.074  13.230  0.00  0.00    +0.009 C 
ATOM     14  C   UNL     1     -13.329  -7.130  13.998  0.00  0.00    +0.029 C 
ATOM     15  C   UNL     1      -8.934  -9.434  15.349  0.00  0.00    +0.076 C 
ATOM     16  C   UNL     1     -13.606  -8.271  13.019  0.00  0.00    +0.007 C 
ATOM     17  C   UNL     1      -9.212 -10.529  14.318  0.00  0.00    +0.023 C 
ATOM     18  C   UNL     1     -12.290 -10.625  14.488  0.00  0.00    +0.011 C 
ATOM     20  C   UNL     1      -9.834  -7.661  16.898  0.00  0.00    +0.010 C 
ENDROOT
BRANCH  15   4
ATOM      3  O   UNL     1      -6.065  -9.531  15.385  0.00  0.00    -0.269 OA
ATOM      4  N   UNL     1      -8.101  -9.989  16.395  0.00  0.00    -0.307 N 
ATOM     23  C   UNL     1      -6.719  -9.989  16.319  0.00  0.00    +0.263 C 
ATOM     35  H   UNL     1      -8.555 -10.445  17.182  0.00  0.00    +0.149 HD
BRANCH  23  24
ATOM      6  N   UNL     1      -4.741 -11.020  17.215  0.00  0.00    -0.250 NA
ATOM     24  C   UNL     1      -6.009 -10.620  17.462  0.00  0.00    +0.125 A 
ATOM     26  C   UNL     1      -6.646 -10.771  18.682  0.00  0.00    +0.033 A 
ATOM     28  C   UNL     1      -5.938 -11.371  19.717  0.00  0.00    +0.004 A 
ATOM     29  C   UNL     1      -4.084 -11.598  18.245  0.00  0.00    +0.111 A 
ATOM     32  C   UNL     1      -4.631 -11.795  19.502  0.00  0.00    +0.020 A 
ENDBRANCH  23  24
ENDBRANCH  15   4
BRANCH  11   1
ATOM      1  O   UNL     1     -12.098  -6.368  15.896  0.00  0.00    -0.391 OA
ATOM     36  H   UNL     1     -11.778  -5.721  15.245  0.00  0.00    +0.210 HD
ENDBRANCH  11   1
BRANCH  14  19
ATOM     19  C   UNL     1     -14.657  -6.514  14.456  0.00  0.00    +0.077 C 
ATOM     21  C   UNL     1     -15.688  -7.611  14.699  0.00  0.00    +0.017 C 
BRANCH  19  22
ATOM      2  O   UNL     1     -16.129  -5.712  12.708  0.00  0.00    -0.276 OA
ATOM      5  N   UNL     1     -14.367  -4.362  13.380  0.00  0.00    -0.311 N 
ATOM     22  C   UNL     1     -15.147  -5.508  13.420  0.00  0.00    +0.216 C 
ATOM     37  H   UNL     1     -13.603  -4.246  14.038  0.00  0.00    +0.149 HD
BRANCH   5  25
ATOM     25  C   UNL     1     -14.634  -3.266  12.477  0.00  0.00    +0.141 C 
BRANCH  25  27
ATOM      7  N   UNL     1     -13.634  -3.248   8.831  0.00  0.00    -0.263 NA
ATOM     27  C   UNL     1     -13.783  -3.337  11.242  0.00  0.00    -0.012 A 
ATOM     30  C   UNL     1     -12.412  -3.548  11.327  0.00  0.00    +0.008 A 
ATOM     31  C   UNL     1     -14.341  -3.194   9.982  0.00  0.00    +0.115 A 
ATOM     33  C   UNL     1     -11.651  -3.610  10.164  0.00  0.00    +0.020 A 
ATOM     34  C   UNL     1     -12.304  -3.456   8.953  0.00  0.00    +0.111 A 
ENDBRANCH  25  27
ENDBRANCH   5  25
ENDBRANCH  19  22
ENDBRANCH  14  19
TORSDOF 7
ENDMDL
MODEL 10
REMARK VINA RESULT:      -6.5     20.055     21.590
REMARK  Name = 45361617
REMARK  10 active torsions:
REMARK  status: ('A' for Active; 'I' for Inactive)
REMARK    1  A    between atoms: O_1  and  C_11
REMARK    2  A    between atoms: N_4  and  C_15
REMARK    3  A    between atoms: N_5  and  C_25
REMARK    4  A    between atoms: C_8  and  C_18
REMARK    5  A    between atoms: C_10  and  C_20
REMARK    6  A    between atoms: C_14  and  C_19
REMARK    7  A    between atoms: C_19  and  C_21
REMARK    8  A    between atoms: C_19  and  C_22
REMARK    9  A    between atoms: C_23  and  C_24
REMARK   10  A    between atoms: C_25  and  C_27
REMARK                            x       y       z     vdW  Elec       q    Type
REMARK                         _______ _______ _______ _____ _____    ______ ____
ROOT
ATOM      8  C   UNL     1      -6.436 -10.139  11.917  0.00  0.00    -0.027 C 
ATOM      9  C   UNL     1      -5.168  -9.590  11.184  0.00  0.00    +0.028 C 
ATOM     10  C   UNL     1      -5.396  -9.544   9.630  0.00  0.00    +0.012 C 
ATOM     11  C   UNL     1      -3.881 -10.331  11.649  0.00  0.00    +0.122 C 
ATOM     12  C   UNL     1      -6.221 -10.065  13.447  0.00  0.00    +0.007 C 
ATOM     13  C   UNL     1      -7.648  -9.245  11.569  0.00  0.00    +0.009 C 
ATOM     14  C   UNL     1      -3.725 -10.344  13.188  0.00  0.00    +0.029 C 
ATOM     15  C   UNL     1      -6.661  -8.703   9.296  0.00  0.00    +0.076 C 
ATOM     16  C   UNL     1      -4.984 -10.824  13.911  0.00  0.00    +0.007 C 
ATOM     17  C   UNL     1      -7.903  -9.141  10.072  0.00  0.00    +0.023 C 
ATOM     18  C   UNL     1      -6.757 -11.606  11.530  0.00  0.00    +0.011 C 
ATOM     20  C   UNL     1      -4.196  -8.985   8.847  0.00  0.00    +0.010 C 
ENDROOT
BRANCH  15   4
ATOM      3  O   UNL     1      -8.203  -6.775   7.832  0.00  0.00    -0.269 OA
ATOM      4  N   UNL     1      -6.967  -8.736   7.882  0.00  0.00    -0.307 N 
ATOM     23  C   UNL     1      -7.724  -7.754   7.265  0.00  0.00    +0.263 C 
ATOM     35  H   UNL     1      -6.662  -9.541   7.340  0.00  0.00    +0.149 HD
BRANCH  23  24
ATOM      6  N   UNL     1      -8.947  -7.175   5.279  0.00  0.00    -0.250 NA
ATOM     24  C   UNL     1      -7.973  -7.946   5.813  0.00  0.00    +0.125 A 
ATOM     26  C   UNL     1      -7.233  -8.870   5.094  0.00  0.00    +0.033 A 
ATOM     28  C   UNL     1      -7.508  -9.012   3.739  0.00  0.00    +0.004 A 
ATOM     29  C   UNL     1      -9.186  -7.341   3.959  0.00  0.00    +0.111 A 
ATOM     32  C   UNL     1      -8.502  -8.237   3.153  0.00  0.00    +0.020 A 
ENDBRANCH  23  24
ENDBRANCH  15   4
BRANCH  11   1
ATOM      1  O   UNL     1      -2.731  -9.665  11.127  0.00  0.00    -0.391 OA
ATOM     36  H   UNL     1      -2.711  -8.765  11.494  0.00  0.00    +0.210 HD
ENDBRANCH  11   1
BRANCH  14  19
ATOM     19  C   UNL     1      -2.525 -11.190  13.631  0.00  0.00    +0.077 C 
ATOM     21  C   UNL     1      -2.814 -12.669  13.405  0.00  0.00    +0.017 C 
BRANCH  19  22
ATOM      2  O   UNL     1      -1.283 -10.159  15.437  0.00  0.00    -0.276 OA
ATOM      5  N   UNL     1      -3.047 -11.569  15.968  0.00  0.00    -0.311 N 
ATOM     22  C   UNL     1      -2.201 -10.903  15.094  0.00  0.00    +0.216 C 
ATOM     37  H   UNL     1      -3.815 -12.124  15.605  0.00  0.00    +0.149 HD
BRANCH   5  25
ATOM     25  C   UNL     1      -2.934 -11.455  17.404  0.00  0.00    +0.141 C 
BRANCH  25  27
ATOM      7  N   UNL     1      -6.454 -10.189  17.957  0.00  0.00    -0.263 NA
ATOM     27  C   UNL     1      -4.266 -11.212  18.054  0.00  0.00    -0.012 A 
ATOM     30  C   UNL     1      -4.562 -11.748  19.302  0.00  0.00    +0.008 A 
ATOM     31  C   UNL     1      -5.237 -10.447  17.428  0.00  0.00    +0.115 A 
ATOM     33  C   UNL     1      -5.804 -11.505  19.879  0.00  0.00    +0.020 A 
ATOM     34  C   UNL     1      -6.706 -10.726  19.172  0.00  0.00    +0.111 A 
ENDBRANCH  25  27
ENDBRANCH   5  25
ENDBRANCH  19  22
ENDBRANCH  14  19
TORSDOF 7
ENDMDL
