REMARK  Name = 25389266
REMARK  7 active torsions:
REMARK  status: ('A' for Active; 'I' for Inactive)
REMARK    1  A    between atoms: S_1  and  N_6
REMARK    2  A    between atoms: S_1  and  C_23
REMARK    3  A    between atoms: N_5  and  C_14
REMARK    4  A    between atoms: N_6  and  C_15
REMARK    5  A    between atoms: C_8  and  C_14
REMARK    6  A    between atoms: C_9  and  C_15
REMARK    7  A    between atoms: C_30  and  C_31
REMARK                            x       y       z     vdW  Elec       q    Type
REMARK                         _______ _______ _______ _____ _____    ______ ____
ROOT
ATOM      4  N   UNL     1       1.613  -2.998  -1.227  0.00  0.00    -0.298 NA
ATOM      7  C   UNL     1       1.026  -3.337   1.285  0.00  0.00    -0.003 C 
ATOM      8  C   UNL     1      -0.195  -2.805   0.500  0.00  0.00    +0.020 C 
ATOM      9  C   UNL     1       2.612  -2.302  -0.372  0.00  0.00    +0.072 C 
ATOM     10  C   UNL     1       2.205  -2.361   1.118  0.00  0.00    +0.024 C 
ATOM     11  C   UNL     1       0.249  -2.486  -0.945  0.00  0.00    +0.089 C 
ATOM     12  C   UNL     1       1.437  -4.667   0.624  0.00  0.00    +0.019 C 
ATOM     13  C   UNL     1       1.644  -4.441  -0.884  0.00  0.00    +0.085 C 
ENDROOT
BRANCH   8  14
ATOM     14  C   UNL     1      -0.858  -1.600   1.164  0.00  0.00    +0.089 C 
BRANCH  14   5
ATOM      5  N   UNL     1      -2.058  -1.197   0.432  0.00  0.00    -0.298 NA
ATOM     16  C   UNL     1      -3.174  -2.108   0.717  0.00  0.00    +0.089 C 
ATOM     17  C   UNL     1      -2.430   0.186   0.778  0.00  0.00    +0.119 C 
ATOM     18  C   UNL     1      -4.351  -1.796  -0.212  0.00  0.00    +0.051 C 
ATOM     19  C   UNL     1      -3.741   0.625   0.165  0.00  0.00    -0.030 A 
ATOM     20  C   UNL     1      -4.679  -0.327  -0.268  0.00  0.00    -0.042 A 
ATOM     21  C   UNL     1      -4.053   1.989   0.086  0.00  0.00    +0.005 A 
ATOM     22  C   UNL     1      -5.899   0.099  -0.809  0.00  0.00    +0.004 A 
ATOM     24  C   UNL     1      -5.274   2.403  -0.446  0.00  0.00    +0.000 A 
ATOM     25  C   UNL     1      -6.195   1.459  -0.894  0.00  0.00    +0.000 A 
ENDBRANCH  14   5
ENDBRANCH   8  14
BRANCH   9  15
ATOM     15  C   UNL     1       2.876  -0.867  -0.832  0.00  0.00    +0.124 C 
BRANCH  15   6
ATOM      6  N   UNL     1       3.966  -0.275  -0.075  0.00  0.00    -0.188 NA
ATOM     32  H   UNL     1       4.092  -0.608   0.888  0.00  0.00    +0.148 HD
BRANCH   6   1
ATOM      1  S   UNL     1       4.488   1.324  -0.399  0.00  0.00    +0.058 S 
ATOM      2  O   UNL     1       4.794   1.443  -1.811  0.00  0.00    -0.153 OA
ATOM      3  O   UNL     1       5.463   1.729   0.596  0.00  0.00    -0.153 OA
BRANCH   1  23
ATOM     23  C   UNL     1       3.014   2.247  -0.081  0.00  0.00    +0.105 A 
ATOM     26  C   UNL     1       2.760   2.737   1.200  0.00  0.00    +0.029 A 
ATOM     27  C   UNL     1       2.103   2.482  -1.111  0.00  0.00    +0.029 A 
ATOM     28  C   UNL     1       1.596   3.463   1.451  0.00  0.00    +0.005 A 
ATOM     29  C   UNL     1       0.938   3.208  -0.860  0.00  0.00    +0.005 A 
ATOM     30  C   UNL     1       0.685   3.698   0.421  0.00  0.00    -0.050 A 
ATOM     31  C   UNL     1      -0.560   4.474   0.690  0.00  0.00    +0.044 C 
ENDBRANCH   1  23
ENDBRANCH   6   1
ENDBRANCH  15   6
ENDBRANCH   9  15
TORSDOF 6
