REMARK  Name = 45784016
REMARK  2 active torsions:
REMARK  status: ('A' for Active; 'I' for Inactive)
REMARK    1  A    between atoms: C_7  and  C_11
REMARK    2  A    between atoms: C_12  and  C_15
REMARK                            x       y       z     vdW  Elec       q    Type
REMARK                         _______ _______ _______ _____ _____    ______ ____
ROOT
ATOM      3  O   UNL     1       2.783   1.589   2.207  0.00  0.00    -0.270 OA
ATOM      4  N   UNL     1       1.436   1.678   0.316  0.00  0.00    -0.297 N 
ATOM      7  C   UNL     1      -0.423   1.762  -1.167  0.00  0.00    +0.074 C 
ATOM      8  C   UNL     1      -0.336   3.075  -0.373  0.00  0.00    +0.032 C 
ATOM      9  C   UNL     1       0.991   1.189  -0.990  0.00  0.00    +0.119 C 
ATOM     10  C   UNL     1       0.559   2.729   0.809  0.00  0.00    +0.109 C 
ATOM     12  C   UNL     1       2.489   1.197   1.079  0.00  0.00    +0.247 C 
ENDROOT
BRANCH   7  11
ATOM      1  F   UNL     1      -6.792  -1.555  -0.022  0.00  0.00    -0.205 F 
ATOM      5  N   UNL     1      -2.822   1.006  -1.232  0.00  0.00    -0.341 N 
ATOM      6  N   UNL     1      -1.526  -0.026   0.250  0.00  0.00    -0.232 NA
ATOM     11  C   UNL     1      -1.572   0.893  -0.689  0.00  0.00    +0.113 A 
ATOM     13  C   UNL     1      -3.636   0.100  -0.601  0.00  0.00    +0.069 A 
ATOM     14  C   UNL     1      -2.804  -0.531   0.319  0.00  0.00    +0.089 A 
ATOM     16  C   UNL     1      -4.988  -0.212  -0.752  0.00  0.00    +0.066 A 
ATOM     17  C   UNL     1      -3.334  -1.536   1.145  0.00  0.00    +0.032 A 
ATOM     20  C   UNL     1      -5.499  -1.214   0.079  0.00  0.00    +0.125 A 
ATOM     21  C   UNL     1      -4.689  -1.866   1.012  0.00  0.00    +0.040 A 
ATOM     25  H   UNL     1      -3.100   1.644  -1.966  0.00  0.00    +0.167 HD
ENDBRANCH   7  11
BRANCH  12  15
ATOM      2  F   UNL     1       5.620  -2.894  -1.117  0.00  0.00    -0.205 F 
ATOM     15  C   UNL     1       3.311   0.122   0.502  0.00  0.00    +0.037 A 
ATOM     18  C   UNL     1       3.994   0.333  -0.696  0.00  0.00    +0.016 A 
ATOM     19  C   UNL     1       3.408  -1.108   1.153  0.00  0.00    +0.016 A 
ATOM     22  C   UNL     1       4.774  -0.686  -1.243  0.00  0.00    +0.039 A 
ATOM     23  C   UNL     1       4.187  -2.127   0.605  0.00  0.00    +0.039 A 
ATOM     24  C   UNL     1       4.870  -1.916  -0.592  0.00  0.00    +0.123 A 
ENDBRANCH  12  15
TORSDOF 2
