REMARK  Name = 11884024
REMARK  7 active torsions:
REMARK  status: ('A' for Active; 'I' for Inactive)
REMARK    1  A    between atoms: O_3  and  C_12
REMARK    2  A    between atoms: O_3  and  C_22
REMARK    3  A    between atoms: O_6  and  C_28
REMARK    4  A    between atoms: O_6  and  C_29
REMARK    5  A    between atoms: N_7  and  C_11
REMARK    6  A    between atoms: N_8  and  C_23
REMARK    7  A    between atoms: C_15  and  C_16
REMARK                            x       y       z     vdW  Elec       q    Type
REMARK                         _______ _______ _______ _____ _____    ______ ____
ROOT
ATOM      3  O   UNL     1      -0.154   2.115  -0.521  0.00  0.00    -0.442 OA
ENDROOT
BRANCH   3  12
ATOM      1  O   UNL     1      -2.471   1.887   0.992  0.00  0.00    -0.368 OA
ATOM      2  O   UNL     1      -3.464   2.268  -1.884  0.00  0.00    -0.368 OA
ATOM      9  C   UNL     1      -3.629   1.179  -0.952  0.00  0.00    +0.173 C 
ATOM     10  C   UNL     1      -2.332   1.063  -0.177  0.00  0.00    +0.192 C 
ATOM     11  C   UNL     1      -4.648   1.547   0.101  0.00  0.00    +0.130 C 
ATOM     12  C   UNL     1      -1.322   1.631  -1.145  0.00  0.00    +0.235 C 
ATOM     13  C   UNL     1      -3.821   2.367   1.077  0.00  0.00    +0.185 C 
ATOM     14  C   UNL     1      -2.108   2.734  -1.816  0.00  0.00    +0.207 C 
BRANCH  11   7
ATOM      4  O   UNL     1      -7.095   0.145  -0.592  0.00  0.00    -0.276 OA
ATOM      7  N   UNL     1      -5.195   0.372   0.734  0.00  0.00    -0.307 N 
ATOM     16  C   UNL     1      -6.376  -0.230   0.330  0.00  0.00    +0.216 C 
ATOM     35  H   UNL     1      -4.646  -0.065   1.470  0.00  0.00    +0.149 HD
BRANCH  16  15
ATOM     15  C   UNL     1      -6.702  -1.450   1.142  0.00  0.00    +0.075 C 
ATOM     17  C   UNL     1      -8.216  -1.639   1.267  0.00  0.00    +0.013 C 
ATOM     18  C   UNL     1      -6.000  -2.676   0.555  0.00  0.00    +0.013 C 
ATOM     19  C   UNL     1      -8.866  -2.192  -0.000  0.00  0.00    +0.001 C 
ATOM     20  C   UNL     1      -6.671  -3.201  -0.713  0.00  0.00    +0.001 C 
ATOM     21  C   UNL     1      -8.160  -3.447  -0.501  0.00  0.00    +0.000 C 
ENDBRANCH  16  15
ENDBRANCH  11   7
ENDBRANCH   3  12
BRANCH   3  22
ATOM      5  O   UNL     1       0.860   0.090  -0.837  0.00  0.00    -0.226 OA
ATOM      8  N   UNL     1       1.963   1.867   0.215  0.00  0.00    -0.251 N 
ATOM     22  C   UNL     1       0.906   1.239  -0.415  0.00  0.00    +0.405 C 
ATOM     36  H   UNL     1       1.811   2.833   0.494  0.00  0.00    +0.158 HD
BRANCH   8  23
ATOM     23  C   UNL     1       3.235   1.332   0.522  0.00  0.00    +0.037 A 
ATOM     24  C   UNL     1       4.186   2.122   1.168  0.00  0.00    +0.027 A 
ATOM     25  C   UNL     1       3.538   0.015   0.180  0.00  0.00    +0.027 A 
ATOM     26  C   UNL     1       5.441   1.594   1.473  0.00  0.00    +0.048 A 
ATOM     27  C   UNL     1       4.793  -0.514   0.484  0.00  0.00    +0.048 A 
ATOM     28  C   UNL     1       5.744   0.276   1.131  0.00  0.00    +0.129 A 
BRANCH  28   6
ATOM      6  O   UNL     1       6.968  -0.240   1.429  0.00  0.00    -0.456 OA
BRANCH   6  29
ATOM     29  C   UNL     1       7.615  -0.971   0.448  0.00  0.00    +0.128 A 
ATOM     30  C   UNL     1       7.654  -0.497  -0.864  0.00  0.00    +0.046 A 
ATOM     31  C   UNL     1       8.227  -2.183   0.770  0.00  0.00    +0.046 A 
ATOM     32  C   UNL     1       8.306  -1.235  -1.853  0.00  0.00    +0.004 A 
ATOM     33  C   UNL     1       8.878  -2.920  -0.219  0.00  0.00    +0.004 A 
ATOM     34  C   UNL     1       8.917  -2.446  -1.530  0.00  0.00    +0.000 A 
ENDBRANCH   6  29
ENDBRANCH  28   6
ENDBRANCH   8  23
ENDBRANCH   3  22
TORSDOF 7
