MODEL 1
REMARK VINA RESULT:      -7.3      0.000      0.000
REMARK  Name = 28963061
REMARK  12 active torsions:
REMARK  status: ('A' for Active; 'I' for Inactive)
REMARK    1  A    between atoms: O_1  and  C_10
REMARK    2  A    between atoms: N_4  and  C_14
REMARK    3  A    between atoms: N_5  and  C_23
REMARK    4  A    between atoms: C_7  and  C_17
REMARK    5  A    between atoms: C_9  and  C_19
REMARK    6  A    between atoms: C_12  and  C_18
REMARK    7  A    between atoms: C_18  and  C_20
REMARK    8  A    between atoms: C_18  and  C_21
REMARK    9  A    between atoms: C_22  and  C_24
REMARK   10  A    between atoms: C_23  and  C_25
REMARK   11  A    between atoms: C_23  and  C_26
REMARK   12  A    between atoms: C_23  and  C_27
REMARK                            x       y       z     vdW  Elec       q    Type
REMARK                         _______ _______ _______ _____ _____    ______ ____
ROOT
ATOM      7  C   UNL     1      13.107   8.045  20.661  0.00  0.00    -0.027 C 
ATOM      8  C   UNL     1      14.194   8.573  21.654  0.00  0.00    +0.028 C 
ATOM      9  C   UNL     1      13.822  10.006  22.180  0.00  0.00    +0.012 C 
ATOM     10  C   UNL     1      15.623   8.433  21.052  0.00  0.00    +0.122 C 
ATOM     11  C   UNL     1      13.445   6.591  20.251  0.00  0.00    +0.007 C 
ATOM     12  C   UNL     1      15.917   7.000  20.549  0.00  0.00    +0.029 C 
ATOM     13  C   UNL     1      11.737   8.024  21.378  0.00  0.00    +0.009 C 
ATOM     14  C   UNL     1      12.411   9.990  22.832  0.00  0.00    +0.076 C 
ATOM     15  C   UNL     1      14.826   6.456  19.626  0.00  0.00    +0.007 C 
ATOM     16  C   UNL     1      11.333   9.383  21.934  0.00  0.00    +0.023 C 
ATOM     17  C   UNL     1      13.000   8.910  19.380  0.00  0.00    +0.011 C 
ATOM     19  C   UNL     1      14.837  10.577  23.185  0.00  0.00    +0.010 C 
ENDROOT
BRANCH  14   4
ATOM      3  O   UNL     1      11.236  10.744  25.342  0.00  0.00    -0.269 OA
ATOM      4  N   UNL     1      11.986  11.318  23.224  0.00  0.00    -0.307 N 
ATOM     22  C   UNL     1      11.428  11.580  24.463  0.00  0.00    +0.263 C 
ATOM     32  H   UNL     1      12.050  12.067  22.539  0.00  0.00    +0.149 HD
BRANCH  22  24
ATOM      6  N   UNL     1      11.546  13.573  25.802  0.00  0.00    -0.250 NA
ATOM     24  C   UNL     1      11.020  12.989  24.702  0.00  0.00    +0.125 A 
ATOM     28  C   UNL     1      10.155  13.624  23.825  0.00  0.00    +0.033 A 
ATOM     29  C   UNL     1       9.808  14.943  24.095  0.00  0.00    +0.004 A 
ATOM     30  C   UNL     1      11.186  14.855  26.031  0.00  0.00    +0.111 A 
ATOM     31  C   UNL     1      10.329  15.578  25.217  0.00  0.00    +0.020 A 
ENDBRANCH  22  24
ENDBRANCH  14   4
BRANCH  10   1
ATOM      1  O   UNL     1      16.594   8.719  22.059  0.00  0.00    -0.391 OA
ATOM     33  H   UNL     1      17.003   7.880  22.333  0.00  0.00    +0.210 HD
ENDBRANCH  10   1
BRANCH  12  18
ATOM     18  C   UNL     1      17.275   6.914  19.844  0.00  0.00    +0.077 C 
ATOM     20  C   UNL     1      17.189   5.967  18.651  0.00  0.00    +0.017 C 
BRANCH  18  21
ATOM      2  O   UNL     1      18.114   6.273  22.023  0.00  0.00    -0.275 OA
ATOM      5  N   UNL     1      19.589   6.305  20.233  0.00  0.00    -0.310 N 
ATOM     21  C   UNL     1      18.347   6.465  20.832  0.00  0.00    +0.217 C 
ATOM     34  H   UNL     1      19.685   6.503  19.241  0.00  0.00    +0.149 HD
BRANCH   5  23
ATOM     23  C   UNL     1      20.762   5.888  20.966  0.00  0.00    +0.026 C 
ATOM     25  C   UNL     1      21.994   6.604  20.399  0.00  0.00    +0.031 C 
ATOM     26  C   UNL     1      20.585   6.254  22.444  0.00  0.00    +0.031 C 
ATOM     27  C   UNL     1      20.937   4.372  20.824  0.00  0.00    +0.031 C 
ENDBRANCH   5  23
ENDBRANCH  18  21
ENDBRANCH  12  18
TORSDOF 6
ENDMDL
MODEL 2
REMARK VINA RESULT:      -7.0     27.756     30.706
REMARK  Name = 28963061
REMARK  12 active torsions:
REMARK  status: ('A' for Active; 'I' for Inactive)
REMARK    1  A    between atoms: O_1  and  C_10
REMARK    2  A    between atoms: N_4  and  C_14
REMARK    3  A    between atoms: N_5  and  C_23
REMARK    4  A    between atoms: C_7  and  C_17
REMARK    5  A    between atoms: C_9  and  C_19
REMARK    6  A    between atoms: C_12  and  C_18
REMARK    7  A    between atoms: C_18  and  C_20
REMARK    8  A    between atoms: C_18  and  C_21
REMARK    9  A    between atoms: C_22  and  C_24
REMARK   10  A    between atoms: C_23  and  C_25
REMARK   11  A    between atoms: C_23  and  C_26
REMARK   12  A    between atoms: C_23  and  C_27
REMARK                            x       y       z     vdW  Elec       q    Type
REMARK                         _______ _______ _______ _____ _____    ______ ____
ROOT
ATOM      7  C   UNL     1      -3.320 -11.670  11.874  0.00  0.00    -0.027 C 
ATOM      8  C   UNL     1      -4.612 -10.977  12.421  0.00  0.00    +0.028 C 
ATOM      9  C   UNL     1      -5.262 -10.059  11.324  0.00  0.00    +0.012 C 
ATOM     10  C   UNL     1      -4.345 -10.293  13.793  0.00  0.00    +0.122 C 
ATOM     11  C   UNL     1      -2.771 -12.651  12.937  0.00  0.00    +0.007 C 
ATOM     12  C   UNL     1      -3.699 -11.252  14.820  0.00  0.00    +0.029 C 
ATOM     13  C   UNL     1      -3.685 -12.495  10.617  0.00  0.00    +0.009 C 
ATOM     14  C   UNL     1      -5.555 -10.882  10.038  0.00  0.00    +0.076 C 
ATOM     15  C   UNL     1      -2.472 -11.977  14.268  0.00  0.00    +0.007 C 
ATOM     16  C   UNL     1      -4.344 -11.662   9.526  0.00  0.00    +0.023 C 
ATOM     17  C   UNL     1      -2.208 -10.654  11.512  0.00  0.00    +0.011 C 
ATOM     19  C   UNL     1      -6.554  -9.366  11.787  0.00  0.00    +0.010 C 
ENDROOT
BRANCH  14   4
ATOM      3  O   UNL     1      -7.743 -11.464   8.272  0.00  0.00    -0.269 OA
ATOM      4  N   UNL     1      -6.047 -10.043   8.966  0.00  0.00    -0.307 N 
ATOM     22  C   UNL     1      -7.113 -10.415   8.165  0.00  0.00    +0.263 C 
ATOM     32  H   UNL     1      -5.551  -9.180   8.762  0.00  0.00    +0.149 HD
BRANCH  22  24
ATOM      6  N   UNL     1      -8.565  -8.688   7.337  0.00  0.00    -0.250 NA
ATOM     24  C   UNL     1      -7.480  -9.456   7.092  0.00  0.00    +0.125 A 
ATOM     28  C   UNL     1      -6.728  -9.387   5.930  0.00  0.00    +0.033 A 
ATOM     29  C   UNL     1      -7.113  -8.471   4.958  0.00  0.00    +0.004 A 
ATOM     30  C   UNL     1      -8.910  -7.808   6.370  0.00  0.00    +0.111 A 
ATOM     31  C   UNL     1      -8.224  -7.662   5.175  0.00  0.00    +0.020 A 
ENDBRANCH  22  24
ENDBRANCH  14   4
BRANCH  10   1
ATOM      1  O   UNL     1      -5.584  -9.862  14.359  0.00  0.00    -0.391 OA
ATOM     33  H   UNL     1      -6.208  -9.699  13.632  0.00  0.00    +0.210 HD
ENDBRANCH  10   1
BRANCH  12  18
ATOM     18  C   UNL     1      -3.326 -10.527  16.118  0.00  0.00    +0.077 C 
ATOM     20  C   UNL     1      -1.832 -10.672  16.390  0.00  0.00    +0.017 C 
BRANCH  18  21
ATOM      2  O   UNL     1      -3.684 -11.793  18.151  0.00  0.00    -0.275 OA
ATOM      5  N   UNL     1      -5.481 -10.662  17.218  0.00  0.00    -0.310 N 
ATOM     21  C   UNL     1      -4.156 -11.072  17.276  0.00  0.00    +0.217 C 
ATOM     34  H   UNL     1      -5.781 -10.075  16.444  0.00  0.00    +0.149 HD
BRANCH   5  23
ATOM     23  C   UNL     1      -6.463 -11.051  18.204  0.00  0.00    +0.026 C 
ATOM     25  C   UNL     1      -7.780 -10.318  17.923  0.00  0.00    +0.031 C 
ATOM     26  C   UNL     1      -6.684 -12.565  18.118  0.00  0.00    +0.031 C 
ATOM     27  C   UNL     1      -5.954 -10.679  19.601  0.00  0.00    +0.031 C 
ENDBRANCH   5  23
ENDBRANCH  18  21
ENDBRANCH  12  18
TORSDOF 6
ENDMDL
MODEL 3
REMARK VINA RESULT:      -6.9      4.009      6.735
REMARK  Name = 28963061
REMARK  12 active torsions:
REMARK  status: ('A' for Active; 'I' for Inactive)
REMARK    1  A    between atoms: O_1  and  C_10
REMARK    2  A    between atoms: N_4  and  C_14
REMARK    3  A    between atoms: N_5  and  C_23
REMARK    4  A    between atoms: C_7  and  C_17
REMARK    5  A    between atoms: C_9  and  C_19
REMARK    6  A    between atoms: C_12  and  C_18
REMARK    7  A    between atoms: C_18  and  C_20
REMARK    8  A    between atoms: C_18  and  C_21
REMARK    9  A    between atoms: C_22  and  C_24
REMARK   10  A    between atoms: C_23  and  C_25
REMARK   11  A    between atoms: C_23  and  C_26
REMARK   12  A    between atoms: C_23  and  C_27
REMARK                            x       y       z     vdW  Elec       q    Type
REMARK                         _______ _______ _______ _____ _____    ______ ____
ROOT
ATOM      7  C   UNL     1      20.097   7.793  21.847  0.00  0.00    -0.027 C 
ATOM      8  C   UNL     1      19.564   6.832  20.734  0.00  0.00    +0.028 C 
ATOM      9  C   UNL     1      17.999   6.712  20.801  0.00  0.00    +0.012 C 
ATOM     10  C   UNL     1      20.338   5.481  20.737  0.00  0.00    +0.122 C 
ATOM     11  C   UNL     1      21.625   7.977  21.682  0.00  0.00    +0.007 C 
ATOM     12  C   UNL     1      21.871   5.675  20.677  0.00  0.00    +0.029 C 
ATOM     13  C   UNL     1      19.436   9.181  21.674  0.00  0.00    +0.009 C 
ATOM     14  C   UNL     1      17.347   8.120  20.702  0.00  0.00    +0.076 C 
ATOM     15  C   UNL     1      22.389   6.661  21.724  0.00  0.00    +0.007 C 
ATOM     16  C   UNL     1      17.915   9.125  21.704  0.00  0.00    +0.023 C 
ATOM     17  C   UNL     1      19.811   7.266  23.275  0.00  0.00    +0.011 C 
ATOM     19  C   UNL     1      17.403   5.802  19.714  0.00  0.00    +0.010 C 
ENDROOT
BRANCH  14   4
ATOM      3  O   UNL     1      15.362   9.333  19.018  0.00  0.00    -0.269 OA
ATOM      4  N   UNL     1      15.911   8.060  20.876  0.00  0.00    -0.307 N 
ATOM     22  C   UNL     1      15.033   8.682  20.006  0.00  0.00    +0.263 C 
ATOM     32  H   UNL     1      15.544   7.592  21.701  0.00  0.00    +0.149 HD
BRANCH  22  24
ATOM      6  N   UNL     1      13.316   8.107  21.586  0.00  0.00    -0.250 NA
ATOM     24  C   UNL     1      13.591   8.547  20.338  0.00  0.00    +0.125 A 
ATOM     28  C   UNL     1      12.624   8.865  19.397  0.00  0.00    +0.033 A 
ATOM     29  C   UNL     1      11.290   8.723  19.761  0.00  0.00    +0.004 A 
ATOM     30  C   UNL     1      12.008   7.981  21.904  0.00  0.00    +0.111 A 
ATOM     31  C   UNL     1      10.967   8.274  21.037  0.00  0.00    +0.020 A 
ENDBRANCH  22  24
ENDBRANCH  14   4
BRANCH  10   1
ATOM      1  O   UNL     1      19.976   4.722  19.583  0.00  0.00    -0.391 OA
ATOM     33  H   UNL     1      19.418   5.281  19.016  0.00  0.00    +0.210 HD
ENDBRANCH  10   1
BRANCH  12  18
ATOM     18  C   UNL     1      22.618   4.344  20.814  0.00  0.00    +0.077 C 
ATOM     20  C   UNL     1      22.238   3.659  22.122  0.00  0.00    +0.017 C 
BRANCH  18  21
ATOM      2  O   UNL     1      24.651   5.158  19.780  0.00  0.00    -0.275 OA
ATOM      5  N   UNL     1      24.804   4.071  21.823  0.00  0.00    -0.310 N 
ATOM     21  C   UNL     1      24.122   4.580  20.727  0.00  0.00    +0.217 C 
ATOM     34  H   UNL     1      24.279   3.595  22.551  0.00  0.00    +0.149 HD
BRANCH   5  23
ATOM     23  C   UNL     1      26.238   4.171  21.967  0.00  0.00    +0.026 C 
ATOM     25  C   UNL     1      26.915   3.481  20.776  0.00  0.00    +0.031 C 
ATOM     26  C   UNL     1      26.636   5.651  22.002  0.00  0.00    +0.031 C 
ATOM     27  C   UNL     1      26.666   3.487  23.270  0.00  0.00    +0.031 C 
ENDBRANCH   5  23
ENDBRANCH  18  21
ENDBRANCH  12  18
TORSDOF 6
ENDMDL
MODEL 4
REMARK VINA RESULT:      -6.9     15.544     17.572
REMARK  Name = 28963061
REMARK  12 active torsions:
REMARK  status: ('A' for Active; 'I' for Inactive)
REMARK    1  A    between atoms: O_1  and  C_10
REMARK    2  A    between atoms: N_4  and  C_14
REMARK    3  A    between atoms: N_5  and  C_23
REMARK    4  A    between atoms: C_7  and  C_17
REMARK    5  A    between atoms: C_9  and  C_19
REMARK    6  A    between atoms: C_12  and  C_18
REMARK    7  A    between atoms: C_18  and  C_20
REMARK    8  A    between atoms: C_18  and  C_21
REMARK    9  A    between atoms: C_22  and  C_24
REMARK   10  A    between atoms: C_23  and  C_25
REMARK   11  A    between atoms: C_23  and  C_26
REMARK   12  A    between atoms: C_23  and  C_27
REMARK                            x       y       z     vdW  Elec       q    Type
REMARK                         _______ _______ _______ _____ _____    ______ ____
ROOT
ATOM      7  C   UNL     1       9.488   6.057   5.989  0.00  0.00    -0.027 C 
ATOM      8  C   UNL     1      10.438   7.219   5.546  0.00  0.00    +0.028 C 
ATOM      9  C   UNL     1       9.905   8.605   6.058  0.00  0.00    +0.012 C 
ATOM     10  C   UNL     1      10.747   7.144   4.022  0.00  0.00    +0.122 C 
ATOM     11  C   UNL     1      10.099   4.700   5.567  0.00  0.00    +0.007 C 
ATOM     12  C   UNL     1      11.260   5.751   3.587  0.00  0.00    +0.029 C 
ATOM     13  C   UNL     1       9.373   6.062   7.531  0.00  0.00    +0.009 C 
ATOM     14  C   UNL     1       9.721   8.573   7.602  0.00  0.00    +0.076 C 
ATOM     15  C   UNL     1      10.366   4.609   4.071  0.00  0.00    +0.007 C 
ATOM     16  C   UNL     1       8.884   7.391   8.091  0.00  0.00    +0.023 C 
ATOM     17  C   UNL     1       8.072   6.179   5.371  0.00  0.00    +0.011 C 
ATOM     19  C   UNL     1      10.809   9.790   5.681  0.00  0.00    +0.010 C 
ENDROOT
BRANCH  14   4
ATOM      3  O   UNL     1      10.995  10.578   9.215  0.00  0.00    -0.269 OA
ATOM      4  N   UNL     1       9.122   9.795   8.096  0.00  0.00    -0.307 N 
ATOM     22  C   UNL     1       9.823  10.702   8.871  0.00  0.00    +0.263 C 
ATOM     32  H   UNL     1       8.135   9.957   7.912  0.00  0.00    +0.149 HD
BRANCH  22  24
ATOM      6  N   UNL     1       8.842  12.841   8.381  0.00  0.00    -0.250 NA
ATOM     24  C   UNL     1       9.058  11.894   9.321  0.00  0.00    +0.125 A 
ATOM     28  C   UNL     1       8.611  11.984  10.629  0.00  0.00    +0.033 A 
ATOM     29  C   UNL     1       7.898  13.120  10.997  0.00  0.00    +0.004 A 
ATOM     30  C   UNL     1       8.146  13.930   8.774  0.00  0.00    +0.111 A 
ATOM     31  C   UNL     1       7.656  14.116  10.057  0.00  0.00    +0.020 A 
ENDBRANCH  22  24
ENDBRANCH  14   4
BRANCH  10   1
ATOM      1  O   UNL     1      11.777   8.078   3.698  0.00  0.00    -0.391 OA
ATOM     33  H   UNL     1      11.357   8.887   3.360  0.00  0.00    +0.210 HD
ENDBRANCH  10   1
BRANCH  12  18
ATOM     18  C   UNL     1      11.433   5.658   2.067  0.00  0.00    +0.077 C 
ATOM     20  C   UNL     1      10.676   4.450   1.524  0.00  0.00    +0.017 C 
BRANCH  18  21
ATOM      2  O   UNL     1      13.791   6.080   2.424  0.00  0.00    -0.275 OA
ATOM      5  N   UNL     1      13.148   4.915   0.524  0.00  0.00    -0.310 N 
ATOM     21  C   UNL     1      12.915   5.588   1.716  0.00  0.00    +0.217 C 
ATOM     34  H   UNL     1      12.354   4.555   0.000  0.00  0.00    +0.149 HD
BRANCH   5  23
ATOM     23  C   UNL     1      14.472   4.722  -0.019  0.00  0.00    +0.026 C 
ATOM     25  C   UNL     1      15.180   6.078  -0.123  0.00  0.00    +0.031 C 
ATOM     26  C   UNL     1      15.263   3.795   0.910  0.00  0.00    +0.031 C 
ATOM     27  C   UNL     1      14.363   4.091  -1.411  0.00  0.00    +0.031 C 
ENDBRANCH   5  23
ENDBRANCH  18  21
ENDBRANCH  12  18
TORSDOF 6
ENDMDL
MODEL 5
REMARK VINA RESULT:      -6.8     24.598     28.418
REMARK  Name = 28963061
REMARK  12 active torsions:
REMARK  status: ('A' for Active; 'I' for Inactive)
REMARK    1  A    between atoms: O_1  and  C_10
REMARK    2  A    between atoms: N_4  and  C_14
REMARK    3  A    between atoms: N_5  and  C_23
REMARK    4  A    between atoms: C_7  and  C_17
REMARK    5  A    between atoms: C_9  and  C_19
REMARK    6  A    between atoms: C_12  and  C_18
REMARK    7  A    between atoms: C_18  and  C_20
REMARK    8  A    between atoms: C_18  and  C_21
REMARK    9  A    between atoms: C_22  and  C_24
REMARK   10  A    between atoms: C_23  and  C_25
REMARK   11  A    between atoms: C_23  and  C_26
REMARK   12  A    between atoms: C_23  and  C_27
REMARK                            x       y       z     vdW  Elec       q    Type
REMARK                         _______ _______ _______ _____ _____    ______ ____
ROOT
ATOM      7  C   UNL     1     -11.328   8.309  19.481  0.00  0.00    -0.027 C 
ATOM      8  C   UNL     1     -12.674   9.105  19.437  0.00  0.00    +0.028 C 
ATOM      9  C   UNL     1     -13.904   8.133  19.543  0.00  0.00    +0.012 C 
ATOM     10  C   UNL     1     -12.705  10.092  18.233  0.00  0.00    +0.122 C 
ATOM     11  C   UNL     1     -10.141   9.301  19.488  0.00  0.00    +0.007 C 
ATOM     12  C   UNL     1     -11.463  11.012  18.187  0.00  0.00    +0.029 C 
ATOM     13  C   UNL     1     -11.268   7.494  20.794  0.00  0.00    +0.009 C 
ATOM     14  C   UNL     1     -13.794   7.266  20.829  0.00  0.00    +0.076 C 
ATOM     15  C   UNL     1     -10.147  10.242  18.291  0.00  0.00    +0.007 C 
ATOM     16  C   UNL     1     -12.450   6.550  20.967  0.00  0.00    +0.023 C 
ATOM     17  C   UNL     1     -11.167   7.347  18.276  0.00  0.00    +0.011 C 
ATOM     19  C   UNL     1     -15.262   8.854  19.534  0.00  0.00    +0.010 C 
ENDROOT
BRANCH  14   4
ATOM      3  O   UNL     1     -14.992   6.207  23.215  0.00  0.00    -0.269 OA
ATOM      4  N   UNL     1     -14.849   6.278  20.901  0.00  0.00    -0.307 N 
ATOM     22  C   UNL     1     -15.362   5.829  22.106  0.00  0.00    +0.263 C 
ATOM     32  H   UNL     1     -15.180   5.861  20.035  0.00  0.00    +0.149 HD
BRANCH  22  24
ATOM      6  N   UNL     1     -16.373   3.815  22.942  0.00  0.00    -0.250 NA
ATOM     24  C   UNL     1     -16.423   4.794  22.011  0.00  0.00    +0.125 A 
ATOM     28  C   UNL     1     -17.384   4.868  21.014  0.00  0.00    +0.033 A 
ATOM     29  C   UNL     1     -18.355   3.874  20.971  0.00  0.00    +0.004 A 
ATOM     30  C   UNL     1     -17.334   2.867  22.869  0.00  0.00    +0.111 A 
ATOM     31  C   UNL     1     -18.337   2.851  21.913  0.00  0.00    +0.020 A 
ENDBRANCH  22  24
ENDBRANCH  14   4
BRANCH  10   1
ATOM      1  O   UNL     1     -13.843  10.948  18.348  0.00  0.00    -0.391 OA
ATOM     33  H   UNL     1     -13.556  11.778  18.765  0.00  0.00    +0.210 HD
ENDBRANCH  10   1
BRANCH  12  18
ATOM     18  C   UNL     1     -11.448  11.884  16.926  0.00  0.00    +0.077 C 
ATOM     20  C   UNL     1     -11.196  11.022  15.693  0.00  0.00    +0.017 C 
BRANCH  18  21
ATOM      2  O   UNL     1     -10.296  13.684  18.064  0.00  0.00    -0.275 OA
ATOM      5  N   UNL     1      -9.582  13.076  15.943  0.00  0.00    -0.310 N 
ATOM     21  C   UNL     1     -10.395  12.978  17.063  0.00  0.00    +0.217 C 
ATOM     34  H   UNL     1      -9.752  12.455  15.156  0.00  0.00    +0.149 HD
BRANCH   5  23
ATOM     23  C   UNL     1      -8.512  14.041  15.835  0.00  0.00    +0.026 C 
ATOM     25  C   UNL     1      -9.063  15.442  16.127  0.00  0.00    +0.031 C 
ATOM     26  C   UNL     1      -7.419  13.692  16.852  0.00  0.00    +0.031 C 
ATOM     27  C   UNL     1      -7.933  14.001  14.417  0.00  0.00    +0.031 C 
ENDBRANCH   5  23
ENDBRANCH  18  21
ENDBRANCH  12  18
TORSDOF 6
ENDMDL
MODEL 6
REMARK VINA RESULT:      -6.7     28.415     30.357
REMARK  Name = 28963061
REMARK  12 active torsions:
REMARK  status: ('A' for Active; 'I' for Inactive)
REMARK    1  A    between atoms: O_1  and  C_10
REMARK    2  A    between atoms: N_4  and  C_14
REMARK    3  A    between atoms: N_5  and  C_23
REMARK    4  A    between atoms: C_7  and  C_17
REMARK    5  A    between atoms: C_9  and  C_19
REMARK    6  A    between atoms: C_12  and  C_18
REMARK    7  A    between atoms: C_18  and  C_20
REMARK    8  A    between atoms: C_18  and  C_21
REMARK    9  A    between atoms: C_22  and  C_24
REMARK   10  A    between atoms: C_23  and  C_25
REMARK   11  A    between atoms: C_23  and  C_26
REMARK   12  A    between atoms: C_23  and  C_27
REMARK                            x       y       z     vdW  Elec       q    Type
REMARK                         _______ _______ _______ _____ _____    ______ ____
ROOT
ATOM      7  C   UNL     1      -4.793 -11.342  17.206  0.00  0.00    -0.027 C 
ATOM      8  C   UNL     1      -5.755 -10.570  16.243  0.00  0.00    +0.028 C 
ATOM      9  C   UNL     1      -7.220 -10.557  16.808  0.00  0.00    +0.012 C 
ATOM     10  C   UNL     1      -5.609 -11.075  14.777  0.00  0.00    +0.122 C 
ATOM     11  C   UNL     1      -3.342 -11.240  16.678  0.00  0.00    +0.007 C 
ATOM     12  C   UNL     1      -4.141 -11.069  14.290  0.00  0.00    +0.029 C 
ATOM     13  C   UNL     1      -4.834 -10.674  18.600  0.00  0.00    +0.009 C 
ATOM     14  C   UNL     1      -7.239  -9.952  18.241  0.00  0.00    +0.076 C 
ATOM     15  C   UNL     1      -3.188 -11.769  15.259  0.00  0.00    +0.007 C 
ATOM     16  C   UNL     1      -6.236 -10.607  19.190  0.00  0.00    +0.023 C 
ATOM     17  C   UNL     1      -5.167 -12.839  17.346  0.00  0.00    +0.011 C 
ATOM     19  C   UNL     1      -8.215  -9.789  15.922  0.00  0.00    +0.010 C 
ENDROOT
BRANCH  14   4
ATOM      3  O   UNL     1      -8.651 -12.343  18.973  0.00  0.00    -0.269 OA
ATOM      4  N   UNL     1      -8.555 -10.030  18.838  0.00  0.00    -0.307 N 
ATOM     22  C   UNL     1      -9.153 -11.237  19.156  0.00  0.00    +0.263 C 
ATOM     32  H   UNL     1      -9.076  -9.167  18.973  0.00  0.00    +0.149 HD
BRANCH  22  24
ATOM      6  N   UNL     1     -10.988 -12.281  20.304  0.00  0.00    -0.250 NA
ATOM     24  C   UNL     1     -10.517 -11.147  19.739  0.00  0.00    +0.125 A 
ATOM     28  C   UNL     1     -11.223  -9.956  19.685  0.00  0.00    +0.033 A 
ATOM     29  C   UNL     1     -12.494  -9.927  20.247  0.00  0.00    +0.004 A 
ATOM     30  C   UNL     1     -12.227 -12.215  20.841  0.00  0.00    +0.111 A 
ATOM     31  C   UNL     1     -13.013 -11.074  20.839  0.00  0.00    +0.020 A 
ENDBRANCH  22  24
ENDBRANCH  14   4
BRANCH  10   1
ATOM      1  O   UNL     1      -6.333 -10.211  13.902  0.00  0.00    -0.391 OA
ATOM     33  H   UNL     1      -6.321 -10.603  13.011  0.00  0.00    +0.210 HD
ENDBRANCH  10   1
BRANCH  12  18
ATOM     18  C   UNL     1      -4.002 -11.690  12.896  0.00  0.00    +0.077 C 
ATOM     20  C   UNL     1      -2.789 -12.613  12.850  0.00  0.00    +0.017 C 
BRANCH  18  21
ATOM      2  O   UNL     1      -2.882  -9.930  11.666  0.00  0.00    -0.275 OA
ATOM      5  N   UNL     1      -5.082 -10.430  11.130  0.00  0.00    -0.310 N 
ATOM     21  C   UNL     1      -3.903 -10.590  11.844  0.00  0.00    +0.217 C 
ATOM     34  H   UNL     1      -5.880 -11.016  11.361  0.00  0.00    +0.149 HD
BRANCH   5  23
ATOM     23  C   UNL     1      -5.234  -9.448  10.081  0.00  0.00    +0.026 C 
ATOM     25  C   UNL     1      -4.082  -9.596   9.079  0.00  0.00    +0.031 C 
ATOM     26  C   UNL     1      -6.572  -9.677   9.370  0.00  0.00    +0.031 C 
ATOM     27  C   UNL     1      -5.205  -8.043  10.694  0.00  0.00    +0.031 C 
ENDBRANCH   5  23
ENDBRANCH  18  21
ENDBRANCH  12  18
TORSDOF 6
ENDMDL
MODEL 7
REMARK VINA RESULT:      -6.6     26.552     29.599
REMARK  Name = 28963061
REMARK  12 active torsions:
REMARK  status: ('A' for Active; 'I' for Inactive)
REMARK    1  A    between atoms: O_1  and  C_10
REMARK    2  A    between atoms: N_4  and  C_14
REMARK    3  A    between atoms: N_5  and  C_23
REMARK    4  A    between atoms: C_7  and  C_17
REMARK    5  A    between atoms: C_9  and  C_19
REMARK    6  A    between atoms: C_12  and  C_18
REMARK    7  A    between atoms: C_18  and  C_20
REMARK    8  A    between atoms: C_18  and  C_21
REMARK    9  A    between atoms: C_22  and  C_24
REMARK   10  A    between atoms: C_23  and  C_25
REMARK   11  A    between atoms: C_23  and  C_26
REMARK   12  A    between atoms: C_23  and  C_27
REMARK                            x       y       z     vdW  Elec       q    Type
REMARK                         _______ _______ _______ _____ _____    ______ ____
ROOT
ATOM      7  C   UNL     1     -11.726   8.008  19.099  0.00  0.00    -0.027 C 
ATOM      8  C   UNL     1     -13.113   7.838  18.396  0.00  0.00    +0.028 C 
ATOM      9  C   UNL     1     -13.236   8.800  17.159  0.00  0.00    +0.012 C 
ATOM     10  C   UNL     1     -14.279   7.920  19.424  0.00  0.00    +0.122 C 
ATOM     11  C   UNL     1     -11.594   6.971  20.239  0.00  0.00    +0.007 C 
ATOM     12  C   UNL     1     -14.090   6.954  20.616  0.00  0.00    +0.029 C 
ATOM     13  C   UNL     1     -10.603   7.724  18.073  0.00  0.00    +0.009 C 
ATOM     14  C   UNL     1     -12.060   8.557  16.171  0.00  0.00    +0.076 C 
ATOM     15  C   UNL     1     -12.712   7.074  21.267  0.00  0.00    +0.007 C 
ATOM     16  C   UNL     1     -10.685   8.610  16.837  0.00  0.00    +0.023 C 
ATOM     17  C   UNL     1     -11.529   9.426  19.691  0.00  0.00    +0.011 C 
ATOM     19  C   UNL     1     -14.568   8.664  16.403  0.00  0.00    +0.010 C 
ENDROOT
BRANCH  14   4
ATOM      3  O   UNL     1     -11.698   7.965  13.384  0.00  0.00    -0.269 OA
ATOM      4  N   UNL     1     -12.076   9.505  15.077  0.00  0.00    -0.307 N 
ATOM     22  C   UNL     1     -11.890   9.118  13.761  0.00  0.00    +0.263 C 
ATOM     32  H   UNL     1     -12.168  10.493  15.295  0.00  0.00    +0.149 HD
BRANCH  22  24
ATOM      6  N   UNL     1     -11.895   9.825  11.463  0.00  0.00    -0.250 NA
ATOM     24  C   UNL     1     -11.908  10.214  12.758  0.00  0.00    +0.125 A 
ATOM     28  C   UNL     1     -11.936  11.537  13.169  0.00  0.00    +0.033 A 
ATOM     29  C   UNL     1     -11.954  12.523  12.189  0.00  0.00    +0.004 A 
ATOM     30  C   UNL     1     -11.912  10.811  10.539  0.00  0.00    +0.111 A 
ATOM     31  C   UNL     1     -11.942  12.162  10.846  0.00  0.00    +0.020 A 
ENDBRANCH  22  24
ENDBRANCH  14   4
BRANCH  10   1
ATOM      1  O   UNL     1     -15.502   7.548  18.787  0.00  0.00    -0.391 OA
ATOM     33  H   UNL     1     -15.350   7.530  17.827  0.00  0.00    +0.210 HD
ENDBRANCH  10   1
BRANCH  12  18
ATOM     18  C   UNL     1     -15.178   7.142  21.679  0.00  0.00    +0.077 C 
ATOM     20  C   UNL     1     -14.667   8.040  22.801  0.00  0.00    +0.017 C 
BRANCH  18  21
ATOM      2  O   UNL     1     -15.553   4.753  21.549  0.00  0.00    -0.275 OA
ATOM      5  N   UNL     1     -16.107   5.857  23.512  0.00  0.00    -0.310 N 
ATOM     21  C   UNL     1     -15.623   5.784  22.213  0.00  0.00    +0.217 C 
ATOM     34  H   UNL     1     -16.139   6.762  23.975  0.00  0.00    +0.149 HD
BRANCH   5  23
ATOM     23  C   UNL     1     -16.590   4.702  24.232  0.00  0.00    +0.026 C 
ATOM     25  C   UNL     1     -17.241   5.158  25.543  0.00  0.00    +0.031 C 
ATOM     26  C   UNL     1     -17.623   3.970  23.368  0.00  0.00    +0.031 C 
ATOM     27  C   UNL     1     -15.415   3.768  24.539  0.00  0.00    +0.031 C 
ENDBRANCH   5  23
ENDBRANCH  18  21
ENDBRANCH  12  18
TORSDOF 6
ENDMDL
MODEL 8
REMARK VINA RESULT:      -6.6      2.114      2.958
REMARK  Name = 28963061
REMARK  12 active torsions:
REMARK  status: ('A' for Active; 'I' for Inactive)
REMARK    1  A    between atoms: O_1  and  C_10
REMARK    2  A    between atoms: N_4  and  C_14
REMARK    3  A    between atoms: N_5  and  C_23
REMARK    4  A    between atoms: C_7  and  C_17
REMARK    5  A    between atoms: C_9  and  C_19
REMARK    6  A    between atoms: C_12  and  C_18
REMARK    7  A    between atoms: C_18  and  C_20
REMARK    8  A    between atoms: C_18  and  C_21
REMARK    9  A    between atoms: C_22  and  C_24
REMARK   10  A    between atoms: C_23  and  C_25
REMARK   11  A    between atoms: C_23  and  C_26
REMARK   12  A    between atoms: C_23  and  C_27
REMARK                            x       y       z     vdW  Elec       q    Type
REMARK                         _______ _______ _______ _____ _____    ______ ____
ROOT
ATOM      7  C   UNL     1      15.155   7.778  21.068  0.00  0.00    -0.027 C 
ATOM      8  C   UNL     1      15.828   8.916  21.903  0.00  0.00    +0.028 C 
ATOM      9  C   UNL     1      14.990  10.243  21.820  0.00  0.00    +0.012 C 
ATOM     10  C   UNL     1      17.338   9.057  21.550  0.00  0.00    +0.122 C 
ATOM     11  C   UNL     1      15.942   6.460  21.262  0.00  0.00    +0.007 C 
ATOM     12  C   UNL     1      18.099   7.714  21.645  0.00  0.00    +0.029 C 
ATOM     13  C   UNL     1      13.719   7.549  21.594  0.00  0.00    +0.009 C 
ATOM     14  C   UNL     1      13.527   9.984  22.279  0.00  0.00    +0.076 C 
ATOM     15  C   UNL     1      17.411   6.583  20.880  0.00  0.00    +0.007 C 
ATOM     16  C   UNL     1      12.863   8.808  21.562  0.00  0.00    +0.023 C 
ATOM     17  C   UNL     1      15.098   8.105  19.554  0.00  0.00    +0.011 C 
ATOM     19  C   UNL     1      15.582  11.398  22.643  0.00  0.00    +0.010 C 
ENDROOT
BRANCH  14   4
ATOM      3  O   UNL     1      11.704  11.092  24.201  0.00  0.00    -0.269 OA
ATOM      4  N   UNL     1      12.696  11.156  22.106  0.00  0.00    -0.307 N 
ATOM     22  C   UNL     1      11.844  11.612  23.097  0.00  0.00    +0.263 C 
ATOM     32  H   UNL     1      12.699  11.621  21.202  0.00  0.00    +0.149 HD
BRANCH  22  24
ATOM      6  N   UNL     1      11.133  13.235  21.473  0.00  0.00    -0.250 NA
ATOM     24  C   UNL     1      11.039  12.813  22.754  0.00  0.00    +0.125 A 
ATOM     28  C   UNL     1      10.255  13.427  23.717  0.00  0.00    +0.033 A 
ATOM     29  C   UNL     1       9.520  14.546  23.342  0.00  0.00    +0.004 A 
ATOM     30  C   UNL     1      10.404  14.325  21.145  0.00  0.00    +0.111 A 
ATOM     31  C   UNL     1       9.590  15.010  22.033  0.00  0.00    +0.020 A 
ENDBRANCH  22  24
ENDBRANCH  14   4
BRANCH  10   1
ATOM      1  O   UNL     1      17.963   9.947  22.475  0.00  0.00    -0.391 OA
ATOM     33  H   UNL     1      17.269  10.490  22.888  0.00  0.00    +0.210 HD
ENDBRANCH  10   1
BRANCH  12  18
ATOM     18  C   UNL     1      19.549   7.847  21.169  0.00  0.00    +0.077 C 
ATOM     20  C   UNL     1      20.033   6.526  20.581  0.00  0.00    +0.017 C 
BRANCH  18  21
ATOM      2  O   UNL     1      21.374   9.079  22.177  0.00  0.00    -0.275 OA
ATOM      5  N   UNL     1      20.064   7.730  23.534  0.00  0.00    -0.310 N 
ATOM     21  C   UNL     1      20.437   8.298  22.324  0.00  0.00    +0.217 C 
ATOM     34  H   UNL     1      19.282   7.082  23.552  0.00  0.00    +0.149 HD
BRANCH   5  23
ATOM     23  C   UNL     1      20.757   8.004  24.772  0.00  0.00    +0.026 C 
ATOM     25  C   UNL     1      20.548   9.474  25.154  0.00  0.00    +0.031 C 
ATOM     26  C   UNL     1      20.193   7.097  25.872  0.00  0.00    +0.031 C 
ATOM     27  C   UNL     1      22.253   7.727  24.588  0.00  0.00    +0.031 C 
ENDBRANCH   5  23
ENDBRANCH  18  21
ENDBRANCH  12  18
TORSDOF 6
ENDMDL
MODEL 9
REMARK VINA RESULT:      -6.5     20.223     23.047
REMARK  Name = 28963061
REMARK  12 active torsions:
REMARK  status: ('A' for Active; 'I' for Inactive)
REMARK    1  A    between atoms: O_1  and  C_10
REMARK    2  A    between atoms: N_4  and  C_14
REMARK    3  A    between atoms: N_5  and  C_23
REMARK    4  A    between atoms: C_7  and  C_17
REMARK    5  A    between atoms: C_9  and  C_19
REMARK    6  A    between atoms: C_12  and  C_18
REMARK    7  A    between atoms: C_18  and  C_20
REMARK    8  A    between atoms: C_18  and  C_21
REMARK    9  A    between atoms: C_22  and  C_24
REMARK   10  A    between atoms: C_23  and  C_25
REMARK   11  A    between atoms: C_23  and  C_26
REMARK   12  A    between atoms: C_23  and  C_27
REMARK                            x       y       z     vdW  Elec       q    Type
REMARK                         _______ _______ _______ _____ _____    ______ ____
ROOT
ATOM      7  C   UNL     1      13.664   4.897   0.212  0.00  0.00    -0.027 C 
ATOM      8  C   UNL     1      12.101   4.851   0.182  0.00  0.00    +0.028 C 
ATOM      9  C   UNL     1      11.517   4.692   1.632  0.00  0.00    +0.012 C 
ATOM     10  C   UNL     1      11.588   3.815  -0.861  0.00  0.00    +0.122 C 
ATOM     11  C   UNL     1      14.200   5.167  -1.214  0.00  0.00    +0.007 C 
ATOM     12  C   UNL     1      12.208   4.027  -2.262  0.00  0.00    +0.029 C 
ATOM     13  C   UNL     1      14.116   6.069   1.114  0.00  0.00    +0.009 C 
ATOM     14  C   UNL     1      12.038   5.834   2.550  0.00  0.00    +0.076 C 
ATOM     15  C   UNL     1      13.732   4.134  -2.229  0.00  0.00    +0.007 C 
ATOM     16  C   UNL     1      13.560   5.984   2.529  0.00  0.00    +0.023 C 
ATOM     17  C   UNL     1      14.288   3.579   0.737  0.00  0.00    +0.011 C 
ATOM     19  C   UNL     1       9.981   4.667   1.679  0.00  0.00    +0.010 C 
ENDROOT
BRANCH  14   4
ATOM      3  O   UNL     1      10.143   7.446   3.984  0.00  0.00    -0.269 OA
ATOM      4  N   UNL     1      11.614   5.654   3.922  0.00  0.00    -0.307 N 
ATOM     22  C   UNL     1      10.691   6.490   4.527  0.00  0.00    +0.263 C 
ATOM     32  H   UNL     1      12.057   4.924   4.473  0.00  0.00    +0.149 HD
BRANCH  22  24
ATOM      6  N   UNL     1      10.420   7.243   6.793  0.00  0.00    -0.250 NA
ATOM     24  C   UNL     1      10.381   6.188   5.948  0.00  0.00    +0.125 A 
ATOM     28  C   UNL     1      10.077   4.893   6.337  0.00  0.00    +0.033 A 
ATOM     29  C   UNL     1       9.793   4.667   7.679  0.00  0.00    +0.004 A 
ATOM     30  C   UNL     1      10.138   6.984   8.089  0.00  0.00    +0.111 A 
ATOM     31  C   UNL     1       9.822   5.727   8.579  0.00  0.00    +0.020 A 
ENDBRANCH  22  24
ENDBRANCH  14   4
BRANCH  10   1
ATOM      1  O   UNL     1      10.175   3.954  -1.015  0.00  0.00    -0.391 OA
ATOM     33  H   UNL     1       9.978   4.012  -1.966  0.00  0.00    +0.210 HD
ENDBRANCH  10   1
BRANCH  12  18
ATOM     18  C   UNL     1      11.792   2.922  -3.240  0.00  0.00    +0.077 C 
ATOM     20  C   UNL     1      12.871   2.725  -4.300  0.00  0.00    +0.017 C 
BRANCH  18  21
ATOM      2  O   UNL     1       9.415   2.652  -3.616  0.00  0.00    -0.275 OA
ATOM      5  N   UNL     1      10.534   4.334  -4.756  0.00  0.00    -0.310 N 
ATOM     21  C   UNL     1      10.448   3.266  -3.873  0.00  0.00    +0.217 C 
ATOM     34  H   UNL     1      11.439   4.769  -4.913  0.00  0.00    +0.149 HD
BRANCH   5  23
ATOM     23  C   UNL     1       9.392   4.843  -5.480  0.00  0.00    +0.026 C 
ATOM     25  C   UNL     1       8.233   5.071  -4.502  0.00  0.00    +0.031 C 
ATOM     26  C   UNL     1       9.774   6.168  -6.148  0.00  0.00    +0.031 C 
ATOM     27  C   UNL     1       8.974   3.825  -6.547  0.00  0.00    +0.031 C 
ENDBRANCH   5  23
ENDBRANCH  18  21
ENDBRANCH  12  18
TORSDOF 6
ENDMDL
MODEL 10
REMARK VINA RESULT:      -6.4     29.938     32.914
REMARK  Name = 28963061
REMARK  12 active torsions:
REMARK  status: ('A' for Active; 'I' for Inactive)
REMARK    1  A    between atoms: O_1  and  C_10
REMARK    2  A    between atoms: N_4  and  C_14
REMARK    3  A    between atoms: N_5  and  C_23
REMARK    4  A    between atoms: C_7  and  C_17
REMARK    5  A    between atoms: C_9  and  C_19
REMARK    6  A    between atoms: C_12  and  C_18
REMARK    7  A    between atoms: C_18  and  C_20
REMARK    8  A    between atoms: C_18  and  C_21
REMARK    9  A    between atoms: C_22  and  C_24
REMARK   10  A    between atoms: C_23  and  C_25
REMARK   11  A    between atoms: C_23  and  C_26
REMARK   12  A    between atoms: C_23  and  C_27
REMARK                            x       y       z     vdW  Elec       q    Type
REMARK                         _______ _______ _______ _____ _____    ______ ____
ROOT
ATOM      7  C   UNL     1      -6.216 -10.874   6.241  0.00  0.00    -0.027 C 
ATOM      8  C   UNL     1      -6.276  -9.462   6.912  0.00  0.00    +0.028 C 
ATOM      9  C   UNL     1      -6.033  -9.567   8.461  0.00  0.00    +0.012 C 
ATOM     10  C   UNL     1      -7.561  -8.692   6.488  0.00  0.00    +0.122 C 
ATOM     11  C   UNL     1      -6.346 -10.723   4.707  0.00  0.00    +0.007 C 
ATOM     12  C   UNL     1      -7.740  -8.634   4.953  0.00  0.00    +0.029 C 
ATOM     13  C   UNL     1      -4.838 -11.513   6.535  0.00  0.00    +0.009 C 
ATOM     14  C   UNL     1      -4.680 -10.278   8.746  0.00  0.00    +0.076 C 
ATOM     15  C   UNL     1      -7.621 -10.005   4.287  0.00  0.00    +0.007 C 
ATOM     16  C   UNL     1      -4.533 -11.618   8.023  0.00  0.00    +0.023 C 
ATOM     17  C   UNL     1      -7.334 -11.820   6.745  0.00  0.00    +0.011 C 
ATOM     19  C   UNL     1      -6.051  -8.209   9.181  0.00  0.00    +0.010 C 
ENDROOT
BRANCH  14   4
ATOM      3  O   UNL     1      -2.552  -9.218  10.356  0.00  0.00    -0.269 OA
ATOM      4  N   UNL     1      -4.477 -10.496  10.162  0.00  0.00    -0.307 N 
ATOM     22  C   UNL     1      -3.414  -9.939  10.852  0.00  0.00    +0.263 C 
ATOM     32  H   UNL     1      -5.107 -11.129  10.649  0.00  0.00    +0.149 HD
BRANCH  22  24
ATOM      6  N   UNL     1      -2.084 -10.354  12.810  0.00  0.00    -0.250 NA
ATOM     24  C   UNL     1      -3.331 -10.280  12.295  0.00  0.00    +0.125 A 
ATOM     28  C   UNL     1      -4.487 -10.498  13.029  0.00  0.00    +0.033 A 
ATOM     29  C   UNL     1      -4.353 -10.812  14.376  0.00  0.00    +0.004 A 
ATOM     30  C   UNL     1      -1.992 -10.662  14.123  0.00  0.00    +0.111 A 
ATOM     31  C   UNL     1      -3.085 -10.898  14.942  0.00  0.00    +0.020 A 
ENDBRANCH  22  24
ENDBRANCH  14   4
BRANCH  10   1
ATOM      1  O   UNL     1      -7.477  -7.340   6.941  0.00  0.00    -0.391 OA
ATOM     33  H   UNL     1      -8.330  -7.101   7.342  0.00  0.00    +0.210 HD
ENDBRANCH  10   1
BRANCH  12  18
ATOM     18  C   UNL     1      -9.073  -7.988   4.561  0.00  0.00    +0.077 C 
ATOM     20  C   UNL     1     -10.235  -8.878   4.988  0.00  0.00    +0.017 C 
BRANCH  18  21
ATOM      2  O   UNL     1      -8.227  -7.080   2.481  0.00  0.00    -0.275 OA
ATOM      5  N   UNL     1     -10.209  -8.283   2.440  0.00  0.00    -0.310 N 
ATOM     21  C   UNL     1      -9.100  -7.723   3.059  0.00  0.00    +0.217 C 
ATOM     34  H   UNL     1     -10.886  -8.786   3.007  0.00  0.00    +0.149 HD
BRANCH   5  23
ATOM     23  C   UNL     1     -10.456  -8.165   1.022  0.00  0.00    +0.026 C 
ATOM     25  C   UNL     1      -9.216  -8.635   0.252  0.00  0.00    +0.031 C 
ATOM     26  C   UNL     1     -11.659  -9.037   0.648  0.00  0.00    +0.031 C 
ATOM     27  C   UNL     1     -10.750  -6.700   0.679  0.00  0.00    +0.031 C 
ENDBRANCH   5  23
ENDBRANCH  18  21
ENDBRANCH  12  18
TORSDOF 6
ENDMDL
