REMARK  Name = 7051449
REMARK  5 active torsions:
REMARK  status: ('A' for Active; 'I' for Inactive)
REMARK    1  A    between atoms: S_1  and  N_10
REMARK    2  A    between atoms: S_1  and  C_29
REMARK    3  A    between atoms: N_7  and  C_16
REMARK    4  A    between atoms: N_10  and  C_25
REMARK    5  A    between atoms: C_27  and  C_28
REMARK                            x       y       z     vdW  Elec       q    Type
REMARK                         _______ _______ _______ _____ _____    ______ ____
ROOT
ATOM      3  O   UNL     1      -1.885  -1.865   2.058  0.00  0.00    -0.266 OA
ATOM      7  N   UNL     1       2.539  -1.309  -0.248  0.00  0.00    -0.298 NA
ATOM      8  N   UNL     1      -0.376  -2.450   0.363  0.00  0.00    -0.310 N 
ATOM     11  C   UNL     1       1.919  -3.489   0.824  0.00  0.00    +0.024 C 
ATOM     12  C   UNL     1       1.231  -3.042  -1.484  0.00  0.00    +0.050 C 
ATOM     13  C   UNL     1       1.738  -4.133  -0.544  0.00  0.00    +0.017 C 
ATOM     14  C   UNL     1       2.933  -2.329   0.732  0.00  0.00    +0.090 C 
ATOM     15  C   UNL     1       2.274  -1.905  -1.566  0.00  0.00    +0.094 C 
ATOM     17  C   UNL     1       0.548  -3.035   1.343  0.00  0.00    +0.130 C 
ATOM     18  C   UNL     1      -0.107  -2.503  -1.011  0.00  0.00    +0.026 A 
ATOM     23  C   UNL     1      -1.014  -2.062  -1.901  0.00  0.00    +0.024 A 
ATOM     24  C   UNL     1      -1.585  -1.925   0.866  0.00  0.00    +0.274 A 
ATOM     25  C   UNL     1      -2.536  -1.434  -0.163  0.00  0.00    +0.112 A 
ATOM     26  C   UNL     1      -2.269  -1.509  -1.467  0.00  0.00    +0.031 A 
ENDROOT
BRANCH   7  16
ATOM      4  O   UNL     1       4.468   4.218   1.588  0.00  0.00    -0.276 OA
ATOM      9  N   UNL     1       4.342   2.503   0.026  0.00  0.00    -0.302 N 
ATOM     16  C   UNL     1       3.547  -0.256  -0.342  0.00  0.00    +0.060 C 
ATOM     19  C   UNL     1       3.063   0.852  -1.286  0.00  0.00    +0.038 C 
ATOM     20  C   UNL     1       3.842   0.317   1.050  0.00  0.00    +0.038 C 
ATOM     21  C   UNL     1       4.060   2.010  -1.328  0.00  0.00    +0.109 C 
ATOM     22  C   UNL     1       4.823   1.485   0.962  0.00  0.00    +0.109 C 
ATOM     27  C   UNL     1       4.224   3.829   0.443  0.00  0.00    +0.212 C 
ATOM     28  C   UNL     1       3.766   4.824  -0.592  0.00  0.00    +0.109 C 
ENDBRANCH   7  16
BRANCH  25  10
ATOM     10  N   UNL     1      -3.772  -0.883   0.221  0.00  0.00    -0.211 N 
ATOM     33  H   UNL     1      -4.476  -0.872  -0.530  0.00  0.00    +0.174 HD
BRANCH  10   1
ATOM      1  S   UNL     1      -3.729   0.502   1.192  0.00  0.00    +0.079 S 
ATOM      5  O   UNL     1      -4.547   0.296   2.373  0.00  0.00    -0.149 OA
ATOM      6  O   UNL     1      -2.360   0.965   1.324  0.00  0.00    -0.149 OA
BRANCH   1  29
ATOM      2  S   UNL     1      -3.711   2.130  -1.236  0.00  0.00    -0.077 S 
ATOM     29  C   UNL     1      -4.580   1.657   0.157  0.00  0.00    +0.146 A 
ATOM     30  C   UNL     1      -5.808   2.257   0.243  0.00  0.00    +0.036 A 
ATOM     31  C   UNL     1      -6.048   3.129  -0.858  0.00  0.00    +0.010 A 
ATOM     32  C   UNL     1      -4.989   3.154  -1.738  0.00  0.00    +0.047 A 
ENDBRANCH   1  29
ENDBRANCH  10   1
ENDBRANCH  25  10
TORSDOF 4
