REMARK  Name = 51137611
REMARK  8 active torsions:
REMARK  status: ('A' for Active; 'I' for Inactive)
REMARK    1  A    between atoms: S_1  and  C_22
REMARK    2  A    between atoms: S_1  and  C_24
REMARK    3  A    between atoms: O_4  and  C_23
REMARK    4  A    between atoms: O_4  and  C_25
REMARK    5  A    between atoms: N_7  and  C_14
REMARK    6  A    between atoms: C_10  and  C_15
REMARK    7  A    between atoms: C_14  and  C_16
REMARK    8  A    between atoms: C_19  and  C_23
REMARK                            x       y       z     vdW  Elec       q    Type
REMARK                         _______ _______ _______ _____ _____    ______ ____
ROOT
ATOM      7  N   UNL     1      -2.249  -0.600   0.284  0.00  0.00    -0.297 NA
ATOM     10  C   UNL     1       0.053  -0.233   0.025  0.00  0.00    +0.092 C 
ATOM     11  C   UNL     1      -0.674   0.113  -1.286  0.00  0.00    +0.029 C 
ATOM     12  C   UNL     1      -0.967  -1.049   0.831  0.00  0.00    +0.097 C 
ATOM     13  C   UNL     1      -2.042  -0.545  -1.163  0.00  0.00    +0.085 C 
ENDROOT
BRANCH  10  15
ATOM      3  O   UNL     1       2.477  -0.333   0.355  0.00  0.00    -0.421 OA
ATOM      8  N   UNL     1       1.631  -2.099  -0.726  0.00  0.00    -0.112 NA
ATOM      9  N   UNL     1       2.996  -2.283  -0.609  0.00  0.00    -0.109 NA
ATOM     15  C   UNL     1       1.373  -0.948  -0.150  0.00  0.00    +0.222 A 
ATOM     19  C   UNL     1       3.448  -1.228   0.029  0.00  0.00    +0.254 A 
BRANCH  19  23
ATOM     23  C   UNL     1       4.821  -0.894   0.429  0.00  0.00    +0.326 C 
BRANCH  23   4
ATOM      4  O   UNL     1       5.354   0.119  -0.428  0.00  0.00    -0.483 OA
BRANCH   4  25
ATOM      2  F   UNL     1      10.579   1.575   0.459  0.00  0.00    -0.205 F 
ATOM     25  C   UNL     1       6.653   0.481  -0.207  0.00  0.00    +0.121 A 
ATOM     26  C   UNL     1       7.385  -0.131   0.811  0.00  0.00    +0.048 A 
ATOM     27  C   UNL     1       7.248   1.462  -1.001  0.00  0.00    +0.048 A 
ATOM     28  C   UNL     1       8.711   0.239   1.036  0.00  0.00    +0.042 A 
ATOM     29  C   UNL     1       8.574   1.832  -0.776  0.00  0.00    +0.042 A 
ATOM     30  C   UNL     1       9.305   1.220   0.242  0.00  0.00    +0.124 A 
ENDBRANCH   4  25
ENDBRANCH  23   4
ENDBRANCH  19  23
ENDBRANCH  10  15
BRANCH   7  14
ATOM     14  C   UNL     1      -3.349  -1.478   0.653  0.00  0.00    +0.119 C 
BRANCH  14  16
ATOM     16  C   UNL     1      -4.685  -0.808   0.477  0.00  0.00    -0.033 A 
ATOM     17  C   UNL     1      -5.120   0.136   1.408  0.00  0.00    +0.007 A 
ATOM     18  C   UNL     1      -5.489  -1.130  -0.616  0.00  0.00    +0.007 A 
ATOM     20  C   UNL     1      -6.358   0.758   1.245  0.00  0.00    +0.027 A 
ATOM     21  C   UNL     1      -6.727  -0.509  -0.779  0.00  0.00    +0.027 A 
ATOM     22  C   UNL     1      -7.161   0.435   0.151  0.00  0.00    +0.088 A 
BRANCH  22   1
ATOM      1  S   UNL     1      -8.710   1.216  -0.054  0.00  0.00    -0.006 S 
ATOM      5  O   UNL     1      -9.565   0.361  -0.866  0.00  0.00    -0.170 OA
ATOM      6  O   UNL     1      -9.165   1.659   1.255  0.00  0.00    -0.170 OA
ATOM     24  C   UNL     1      -8.350   2.661  -1.027  0.00  0.00    +0.200 C 
ENDBRANCH  22   1
ENDBRANCH  14  16
ENDBRANCH   7  14
TORSDOF 7
