MODEL 1
REMARK VINA RESULT:      -8.1      0.000      0.000
REMARK  Name = 11887294
REMARK  8 active torsions:
REMARK  status: ('A' for Active; 'I' for Inactive)
REMARK    1  A    between atoms: O_4  and  C_24
REMARK    2  A    between atoms: O_4  and  C_32
REMARK    3  A    between atoms: O_5  and  C_31
REMARK    4  A    between atoms: O_5  and  C_33
REMARK    5  A    between atoms: N_6  and  C_14
REMARK    6  A    between atoms: N_7  and  C_15
REMARK    7  A    between atoms: N_11  and  C_23
REMARK    8  A    between atoms: C_18  and  C_20
REMARK                            x       y       z     vdW  Elec       q    Type
REMARK                         _______ _______ _______ _____ _____    ______ ____
ROOT
ATOM      1  O   UNL     1      13.809   7.273  21.192  0.00  0.00    -0.370 OA
ATOM      2  O   UNL     1      15.882   9.415  20.187  0.00  0.00    -0.370 OA
ATOM     12  C   UNL     1      15.000   8.492  19.523  0.00  0.00    +0.176 C 
ATOM     13  C   UNL     1      14.974   7.223  20.354  0.00  0.00    +0.171 C 
ATOM     14  C   UNL     1      13.576   9.012  19.571  0.00  0.00    +0.168 C 
ATOM     15  C   UNL     1      16.228   7.300  21.195  0.00  0.00    +0.131 C 
ATOM     16  C   UNL     1      13.050   8.452  20.888  0.00  0.00    +0.190 C 
ATOM     17  C   UNL     1      16.409   8.797  21.369  0.00  0.00    +0.185 C 
ENDROOT
BRANCH  15   7
ATOM      3  O   UNL     1      18.758   6.601  22.344  0.00  0.00    -0.252 OA
ATOM      7  N   UNL     1      17.354   6.715  20.509  0.00  0.00    -0.292 N 
ATOM     11  N   UNL     1      19.464   5.848  20.235  0.00  0.00    -0.269 N 
ATOM     19  C   UNL     1      18.561   6.401  21.147  0.00  0.00    +0.304 C 
ATOM     39  H   UNL     1      17.245   6.456  19.533  0.00  0.00    +0.151 HD
ATOM     40  H   UNL     1      19.142   5.751  19.275  0.00  0.00    +0.156 HD
BRANCH  11  23
ATOM     23  C   UNL     1      20.784   5.402  20.482  0.00  0.00    +0.035 A 
ATOM     27  C   UNL     1      21.022   4.058  20.771  0.00  0.00    +0.027 A 
ATOM     28  C   UNL     1      21.845   6.305  20.436  0.00  0.00    +0.027 A 
ATOM     29  C   UNL     1      22.324   3.618  21.013  0.00  0.00    +0.048 A 
ATOM     30  C   UNL     1      23.146   5.866  20.678  0.00  0.00    +0.048 A 
ATOM     31  C   UNL     1      23.386   4.522  20.967  0.00  0.00    +0.129 A 
BRANCH  31   5
ATOM      5  O   UNL     1      24.655   4.093  21.205  0.00  0.00    -0.456 OA
BRANCH   5  33
ATOM     33  C   UNL     1      24.813   2.893  21.879  0.00  0.00    +0.128 A 
ATOM     34  C   UNL     1      25.103   1.728  21.169  0.00  0.00    +0.046 A 
ATOM     35  C   UNL     1      24.681   2.850  23.267  0.00  0.00    +0.046 A 
ATOM     36  C   UNL     1      25.260   0.519  21.848  0.00  0.00    +0.004 A 
ATOM     37  C   UNL     1      24.840   1.641  23.946  0.00  0.00    +0.004 A 
ATOM     38  C   UNL     1      25.130   0.476  23.235  0.00  0.00    +0.000 A 
ENDBRANCH   5  33
ENDBRANCH  31   5
ENDBRANCH  11  23
ENDBRANCH  15   7
BRANCH  14   6
ATOM      6  N   UNL     1      12.801   8.638  18.384  0.00  0.00    -0.217 N 
ATOM      8  N   UNL     1      11.902   7.645  18.438  0.00  0.00    -0.043 NA
ATOM      9  N   UNL     1      11.968   8.516  16.386  0.00  0.00    -0.108 NA
ATOM     10  N   UNL     1      11.395   7.576  17.213  0.00  0.00    -0.023 NA
ATOM     18  C   UNL     1      12.835   9.162  17.132  0.00  0.00    +0.182 A 
BRANCH  18  20
ATOM     20  C   UNL     1      13.691  10.246  16.723  0.00  0.00    +0.024 A 
ATOM     21  C   UNL     1      14.510  10.104  15.602  0.00  0.00    +0.057 A 
ATOM     22  C   UNL     1      13.700  11.438  17.447  0.00  0.00    +0.012 A 
ATOM     24  C   UNL     1      15.337  11.154  15.207  0.00  0.00    +0.121 A 
ATOM     25  C   UNL     1      14.529  12.488  17.051  0.00  0.00    +0.004 A 
ATOM     26  C   UNL     1      15.348  12.346  15.930  0.00  0.00    +0.045 A 
BRANCH  24   4
ATOM      4  O   UNL     1      16.136  11.015  14.112  0.00  0.00    -0.495 OA
ATOM     32  C   UNL     1      15.925  11.927  13.035  0.00  0.00    +0.277 C 
ENDBRANCH  24   4
ENDBRANCH  18  20
ENDBRANCH  14   6
TORSDOF 7
ENDMDL
MODEL 2
REMARK VINA RESULT:      -7.9      1.909      2.768
REMARK  Name = 11887294
REMARK  8 active torsions:
REMARK  status: ('A' for Active; 'I' for Inactive)
REMARK    1  A    between atoms: O_4  and  C_24
REMARK    2  A    between atoms: O_4  and  C_32
REMARK    3  A    between atoms: O_5  and  C_31
REMARK    4  A    between atoms: O_5  and  C_33
REMARK    5  A    between atoms: N_6  and  C_14
REMARK    6  A    between atoms: N_7  and  C_15
REMARK    7  A    between atoms: N_11  and  C_23
REMARK    8  A    between atoms: C_18  and  C_20
REMARK                            x       y       z     vdW  Elec       q    Type
REMARK                         _______ _______ _______ _____ _____    ______ ____
ROOT
ATOM      1  O   UNL     1      12.795   6.976  19.864  0.00  0.00    -0.370 OA
ATOM      2  O   UNL     1      14.870   9.338  19.947  0.00  0.00    -0.370 OA
ATOM     12  C   UNL     1      14.219   8.619  18.884  0.00  0.00    +0.176 C 
ATOM     13  C   UNL     1      14.111   7.172  19.324  0.00  0.00    +0.171 C 
ATOM     14  C   UNL     1      12.783   9.088  18.748  0.00  0.00    +0.168 C 
ATOM     15  C   UNL     1      15.150   7.034  20.414  0.00  0.00    +0.131 C 
ATOM     16  C   UNL     1      12.033   8.183  19.720  0.00  0.00    +0.190 C 
ATOM     17  C   UNL     1      15.180   8.428  21.012  0.00  0.00    +0.185 C 
ENDROOT
BRANCH  15   7
ATOM      3  O   UNL     1      17.560   6.545  21.885  0.00  0.00    -0.252 OA
ATOM      7  N   UNL     1      16.436   6.672  19.868  0.00  0.00    -0.292 N 
ATOM     11  N   UNL     1      18.664   6.115  19.858  0.00  0.00    -0.269 N 
ATOM     19  C   UNL     1      17.569   6.449  20.659  0.00  0.00    +0.304 C 
ATOM     39  H   UNL     1      16.507   6.507  18.868  0.00  0.00    +0.151 HD
ATOM     40  H   UNL     1      18.502   6.081  18.854  0.00  0.00    +0.156 HD
BRANCH  11  23
ATOM     23  C   UNL     1      19.984   5.818  20.271  0.00  0.00    +0.035 A 
ATOM     27  C   UNL     1      20.894   6.851  20.494  0.00  0.00    +0.027 A 
ATOM     28  C   UNL     1      20.375   4.491  20.456  0.00  0.00    +0.027 A 
ATOM     29  C   UNL     1      22.196   6.558  20.903  0.00  0.00    +0.048 A 
ATOM     30  C   UNL     1      21.676   4.198  20.865  0.00  0.00    +0.048 A 
ATOM     31  C   UNL     1      22.586   5.231  21.089  0.00  0.00    +0.129 A 
BRANCH  31   5
ATOM      5  O   UNL     1      23.856   4.945  21.486  0.00  0.00    -0.456 OA
BRANCH   5  33
ATOM     33  C   UNL     1      24.835   4.874  20.508  0.00  0.00    +0.128 A 
ATOM     34  C   UNL     1      25.132   3.651  19.906  0.00  0.00    +0.046 A 
ATOM     35  C   UNL     1      25.524   6.025  20.127  0.00  0.00    +0.046 A 
ATOM     36  C   UNL     1      26.118   3.579  18.923  0.00  0.00    +0.004 A 
ATOM     37  C   UNL     1      26.511   5.953  19.143  0.00  0.00    +0.004 A 
ATOM     38  C   UNL     1      26.807   4.730  18.541  0.00  0.00    +0.000 A 
ENDBRANCH   5  33
ENDBRANCH  31   5
ENDBRANCH  11  23
ENDBRANCH  15   7
BRANCH  14   6
ATOM      6  N   UNL     1      12.306   9.041  17.363  0.00  0.00    -0.217 N 
ATOM      8  N   UNL     1      11.267   8.266  17.022  0.00  0.00    -0.043 NA
ATOM      9  N   UNL     1      12.037   9.354  15.234  0.00  0.00    -0.108 NA
ATOM     10  N   UNL     1      11.107   8.462  15.719  0.00  0.00    -0.023 NA
ATOM     18  C   UNL     1      12.768   9.699  16.269  0.00  0.00    +0.182 A 
BRANCH  18  20
ATOM     20  C   UNL     1      13.879  10.617  16.277  0.00  0.00    +0.024 A 
ATOM     21  C   UNL     1      13.924  11.650  17.213  0.00  0.00    +0.057 A 
ATOM     22  C   UNL     1      14.910  10.472  15.348  0.00  0.00    +0.012 A 
ATOM     24  C   UNL     1      15.000  12.537  17.221  0.00  0.00    +0.121 A 
ATOM     25  C   UNL     1      15.985  11.360  15.357  0.00  0.00    +0.004 A 
ATOM     26  C   UNL     1      16.030  12.393  16.293  0.00  0.00    +0.045 A 
BRANCH  24   4
ATOM      4  O   UNL     1      15.044  13.545  18.136  0.00  0.00    -0.495 OA
ATOM     32  C   UNL     1      14.174  13.439  19.262  0.00  0.00    +0.277 C 
ENDBRANCH  24   4
ENDBRANCH  18  20
ENDBRANCH  14   6
TORSDOF 7
ENDMDL
MODEL 3
REMARK VINA RESULT:      -7.6     12.994     18.805
REMARK  Name = 11887294
REMARK  8 active torsions:
REMARK  status: ('A' for Active; 'I' for Inactive)
REMARK    1  A    between atoms: O_4  and  C_24
REMARK    2  A    between atoms: O_4  and  C_32
REMARK    3  A    between atoms: O_5  and  C_31
REMARK    4  A    between atoms: O_5  and  C_33
REMARK    5  A    between atoms: N_6  and  C_14
REMARK    6  A    between atoms: N_7  and  C_15
REMARK    7  A    between atoms: N_11  and  C_23
REMARK    8  A    between atoms: C_18  and  C_20
REMARK                            x       y       z     vdW  Elec       q    Type
REMARK                         _______ _______ _______ _____ _____    ______ ____
ROOT
ATOM      1  O   UNL     1       8.757   7.168   6.623  0.00  0.00    -0.370 OA
ATOM      2  O   UNL     1      11.765   7.534   7.467  0.00  0.00    -0.370 OA
ATOM     12  C   UNL     1      10.840   8.327   6.702  0.00  0.00    +0.176 C 
ATOM     13  C   UNL     1       9.983   7.366   5.901  0.00  0.00    +0.171 C 
ATOM     14  C   UNL     1       9.867   9.026   7.633  0.00  0.00    +0.168 C 
ATOM     15  C   UNL     1      10.786   6.086   5.870  0.00  0.00    +0.131 C 
ATOM     16  C   UNL     1       8.746   8.004   7.789  0.00  0.00    +0.190 C 
ATOM     17  C   UNL     1      11.542   6.146   7.184  0.00  0.00    +0.185 C 
ENDROOT
BRANCH  15   7
ATOM      3  O   UNL     1      10.436   4.654   3.413  0.00  0.00    -0.252 OA
ATOM      7  N   UNL     1      11.692   6.065   4.747  0.00  0.00    -0.292 N 
ATOM     11  N   UNL     1      12.493   5.506   2.668  0.00  0.00    -0.269 N 
ATOM     19  C   UNL     1      11.446   5.336   3.577  0.00  0.00    +0.304 C 
ATOM     39  H   UNL     1      12.516   6.658   4.780  0.00  0.00    +0.151 HD
ATOM     40  H   UNL     1      13.261   6.106   2.962  0.00  0.00    +0.156 HD
BRANCH  11  23
ATOM     23  C   UNL     1      12.623   4.940   1.377  0.00  0.00    +0.035 A 
ATOM     27  C   UNL     1      12.283   5.689   0.251  0.00  0.00    +0.027 A 
ATOM     28  C   UNL     1      13.093   3.635   1.232  0.00  0.00    +0.027 A 
ATOM     29  C   UNL     1      12.412   5.132  -1.021  0.00  0.00    +0.048 A 
ATOM     30  C   UNL     1      13.222   3.078  -0.040  0.00  0.00    +0.048 A 
ATOM     31  C   UNL     1      12.882   3.826  -1.167  0.00  0.00    +0.129 A 
BRANCH  31   5
ATOM      5  O   UNL     1      13.006   3.282  -2.408  0.00  0.00    -0.456 OA
BRANCH   5  33
ATOM     33  C   UNL     1      11.850   3.097  -3.147  0.00  0.00    +0.128 A 
ATOM     34  C   UNL     1      11.671   3.787  -4.346  0.00  0.00    +0.046 A 
ATOM     35  C   UNL     1      10.865   2.220  -2.694  0.00  0.00    +0.046 A 
ATOM     36  C   UNL     1      10.506   3.602  -5.091  0.00  0.00    +0.004 A 
ATOM     37  C   UNL     1       9.700   2.033  -3.439  0.00  0.00    +0.004 A 
ATOM     38  C   UNL     1       9.521   2.724  -4.638  0.00  0.00    +0.000 A 
ENDBRANCH   5  33
ENDBRANCH  31   5
ENDBRANCH  11  23
ENDBRANCH  15   7
BRANCH  14   6
ATOM      6  N   UNL     1       9.446  10.335   7.126  0.00  0.00    -0.217 N 
ATOM      8  N   UNL     1       9.113  10.496   5.837  0.00  0.00    -0.043 NA
ATOM      9  N   UNL     1       8.914  12.428   6.932  0.00  0.00    -0.108 NA
ATOM     10  N   UNL     1       8.788  11.778   5.725  0.00  0.00    -0.023 NA
ATOM     18  C   UNL     1       9.321  11.516   7.784  0.00  0.00    +0.182 A 
BRANCH  18  20
ATOM     20  C   UNL     1       9.599  11.703   9.185  0.00  0.00    +0.024 A 
ATOM     21  C   UNL     1      10.919  11.758   9.634  0.00  0.00    +0.057 A 
ATOM     22  C   UNL     1       8.547  11.829  10.094  0.00  0.00    +0.012 A 
ATOM     24  C   UNL     1      11.186  11.940  10.991  0.00  0.00    +0.121 A 
ATOM     25  C   UNL     1       8.816  12.011  11.450  0.00  0.00    +0.004 A 
ATOM     26  C   UNL     1      10.136  12.066  11.899  0.00  0.00    +0.045 A 
BRANCH  24   4
ATOM      4  O   UNL     1      12.475  11.995  11.428  0.00  0.00    -0.495 OA
ATOM     32  C   UNL     1      12.681  12.341  12.797  0.00  0.00    +0.277 C 
ENDBRANCH  24   4
ENDBRANCH  18  20
ENDBRANCH  14   6
TORSDOF 7
ENDMDL
MODEL 4
REMARK VINA RESULT:      -7.6     28.964     31.835
REMARK  Name = 11887294
REMARK  8 active torsions:
REMARK  status: ('A' for Active; 'I' for Inactive)
REMARK    1  A    between atoms: O_4  and  C_24
REMARK    2  A    between atoms: O_4  and  C_32
REMARK    3  A    between atoms: O_5  and  C_31
REMARK    4  A    between atoms: O_5  and  C_33
REMARK    5  A    between atoms: N_6  and  C_14
REMARK    6  A    between atoms: N_7  and  C_15
REMARK    7  A    between atoms: N_11  and  C_23
REMARK    8  A    between atoms: C_18  and  C_20
REMARK                            x       y       z     vdW  Elec       q    Type
REMARK                         _______ _______ _______ _____ _____    ______ ____
ROOT
ATOM      1  O   UNL     1      -6.383 -12.730   7.534  0.00  0.00    -0.370 OA
ATOM      2  O   UNL     1      -3.992 -13.555   9.405  0.00  0.00    -0.370 OA
ATOM     12  C   UNL     1      -4.421 -12.310   8.824  0.00  0.00    +0.176 C 
ATOM     13  C   UNL     1      -4.954 -12.623   7.439  0.00  0.00    +0.171 C 
ATOM     14  C   UNL     1      -5.619 -11.772   9.584  0.00  0.00    +0.168 C 
ATOM     15  C   UNL     1      -4.348 -13.966   7.100  0.00  0.00    +0.131 C 
ATOM     16  C   UNL     1      -6.799 -12.425   8.873  0.00  0.00    +0.190 C 
ATOM     17  C   UNL     1      -4.216 -14.615   8.465  0.00  0.00    +0.185 C 
ENDROOT
BRANCH  15   7
ATOM      3  O   UNL     1      -3.463 -15.241   4.692  0.00  0.00    -0.252 OA
ATOM      7  N   UNL     1      -3.061 -13.814   6.467  0.00  0.00    -0.292 N 
ATOM     11  N   UNL     1      -1.403 -14.136   4.910  0.00  0.00    -0.269 N 
ATOM     19  C   UNL     1      -2.706 -14.476   5.285  0.00  0.00    +0.304 C 
ATOM     39  H   UNL     1      -2.405 -13.146   6.860  0.00  0.00    +0.151 HD
ATOM     40  H   UNL     1      -0.908 -13.486   5.516  0.00  0.00    +0.156 HD
BRANCH  11  23
ATOM     23  C   UNL     1      -0.678 -14.590   3.783  0.00  0.00    +0.035 A 
ATOM     27  C   UNL     1      -1.014 -14.134   2.508  0.00  0.00    +0.027 A 
ATOM     28  C   UNL     1       0.374 -15.491   3.947  0.00  0.00    +0.027 A 
ATOM     29  C   UNL     1      -0.298 -14.580   1.397  0.00  0.00    +0.048 A 
ATOM     30  C   UNL     1       1.089 -15.937   2.836  0.00  0.00    +0.048 A 
ATOM     31  C   UNL     1       0.753 -15.482   1.561  0.00  0.00    +0.129 A 
BRANCH  31   5
ATOM      5  O   UNL     1       1.450 -15.918   0.477  0.00  0.00    -0.456 OA
BRANCH   5  33
ATOM     33  C   UNL     1       2.700 -15.365   0.250  0.00  0.00    +0.128 A 
ATOM     34  C   UNL     1       3.850 -16.079   0.588  0.00  0.00    +0.046 A 
ATOM     35  C   UNL     1       2.808 -14.095  -0.315  0.00  0.00    +0.046 A 
ATOM     36  C   UNL     1       5.108 -15.522   0.361  0.00  0.00    +0.004 A 
ATOM     37  C   UNL     1       4.067 -13.538  -0.543  0.00  0.00    +0.004 A 
ATOM     38  C   UNL     1       5.217 -14.252  -0.205  0.00  0.00    +0.000 A 
ENDBRANCH   5  33
ENDBRANCH  31   5
ENDBRANCH  11  23
ENDBRANCH  15   7
BRANCH  14   6
ATOM      6  N   UNL     1      -5.650 -10.307   9.620  0.00  0.00    -0.217 N 
ATOM      8  N   UNL     1      -6.476  -9.620   8.819  0.00  0.00    -0.043 NA
ATOM      9  N   UNL     1      -5.284  -8.220  10.081  0.00  0.00    -0.108 NA
ATOM     10  N   UNL     1      -6.249  -8.344   9.107  0.00  0.00    -0.023 NA
ATOM     18  C   UNL     1      -4.928  -9.447  10.384  0.00  0.00    +0.182 A 
BRANCH  18  20
ATOM     20  C   UNL     1      -3.943  -9.849  11.355  0.00  0.00    +0.024 A 
ATOM     21  C   UNL     1      -4.340 -10.216  12.641  0.00  0.00    +0.057 A 
ATOM     22  C   UNL     1      -2.591  -9.871  11.009  0.00  0.00    +0.012 A 
ATOM     24  C   UNL     1      -3.385 -10.605  13.581  0.00  0.00    +0.121 A 
ATOM     25  C   UNL     1      -1.638 -10.260  11.950  0.00  0.00    +0.004 A 
ATOM     26  C   UNL     1      -2.035 -10.627  13.236  0.00  0.00    +0.045 A 
BRANCH  24   4
ATOM      4  O   UNL     1      -3.773 -10.964  14.836  0.00  0.00    -0.495 OA
ATOM     32  C   UNL     1      -2.838 -10.745  15.892  0.00  0.00    +0.277 C 
ENDBRANCH  24   4
ENDBRANCH  18  20
ENDBRANCH  14   6
TORSDOF 7
ENDMDL
MODEL 5
REMARK VINA RESULT:      -7.2     29.986     33.208
REMARK  Name = 11887294
REMARK  8 active torsions:
REMARK  status: ('A' for Active; 'I' for Inactive)
REMARK    1  A    between atoms: O_4  and  C_24
REMARK    2  A    between atoms: O_4  and  C_32
REMARK    3  A    between atoms: O_5  and  C_31
REMARK    4  A    between atoms: O_5  and  C_33
REMARK    5  A    between atoms: N_6  and  C_14
REMARK    6  A    between atoms: N_7  and  C_15
REMARK    7  A    between atoms: N_11  and  C_23
REMARK    8  A    between atoms: C_18  and  C_20
REMARK                            x       y       z     vdW  Elec       q    Type
REMARK                         _______ _______ _______ _____ _____    ______ ____
ROOT
ATOM      1  O   UNL     1     -10.106  -9.908   4.284  0.00  0.00    -0.370 OA
ATOM      2  O   UNL     1      -8.926  -7.065   4.929  0.00  0.00    -0.370 OA
ATOM     12  C   UNL     1      -8.674  -8.040   3.901  0.00  0.00    +0.176 C 
ATOM     13  C   UNL     1      -8.785  -9.408   4.546  0.00  0.00    +0.171 C 
ATOM     14  C   UNL     1      -9.790  -8.007   2.874  0.00  0.00    +0.168 C 
ATOM     15  C   UNL     1      -8.609  -9.140   6.023  0.00  0.00    +0.131 C 
ATOM     16  C   UNL     1     -10.812  -8.983   3.446  0.00  0.00    +0.190 C 
ATOM     17  C   UNL     1      -9.177  -7.741   6.169  0.00  0.00    +0.185 C 
ENDROOT
BRANCH  15   7
ATOM      3  O   UNL     1      -7.538 -10.015   8.533  0.00  0.00    -0.252 OA
ATOM      7  N   UNL     1      -7.217  -9.181   6.400  0.00  0.00    -0.292 N 
ATOM     11  N   UNL     1      -5.381  -9.553   7.730  0.00  0.00    -0.269 N 
ATOM     19  C   UNL     1      -6.774  -9.625   7.652  0.00  0.00    +0.304 C 
ATOM     39  H   UNL     1      -6.520  -8.939   5.701  0.00  0.00    +0.151 HD
ATOM     40  H   UNL     1      -4.895  -9.203   6.907  0.00  0.00    +0.156 HD
BRANCH  11  23
ATOM     23  C   UNL     1      -4.552  -9.906   8.821  0.00  0.00    +0.035 A 
ATOM     27  C   UNL     1      -3.794  -8.929   9.465  0.00  0.00    +0.027 A 
ATOM     28  C   UNL     1      -4.495 -11.232   9.252  0.00  0.00    +0.027 A 
ATOM     29  C   UNL     1      -2.978  -9.277  10.542  0.00  0.00    +0.048 A 
ATOM     30  C   UNL     1      -3.679 -11.580  10.328  0.00  0.00    +0.048 A 
ATOM     31  C   UNL     1      -2.921 -10.603  10.973  0.00  0.00    +0.129 A 
BRANCH  31   5
ATOM      5  O   UNL     1      -2.123 -10.943  12.022  0.00  0.00    -0.456 OA
BRANCH   5  33
ATOM     33  C   UNL     1      -2.649 -10.817  13.297  0.00  0.00    +0.128 A 
ATOM     34  C   UNL     1      -1.798 -10.781  14.402  0.00  0.00    +0.046 A 
ATOM     35  C   UNL     1      -4.029 -10.728  13.477  0.00  0.00    +0.046 A 
ATOM     36  C   UNL     1      -2.328 -10.655  15.686  0.00  0.00    +0.004 A 
ATOM     37  C   UNL     1      -4.559 -10.602  14.761  0.00  0.00    +0.004 A 
ATOM     38  C   UNL     1      -3.708 -10.565  15.866  0.00  0.00    +0.000 A 
ENDBRANCH   5  33
ENDBRANCH  31   5
ENDBRANCH  11  23
ENDBRANCH  15   7
BRANCH  14   6
ATOM      6  N   UNL     1      -9.319  -8.323   1.523  0.00  0.00    -0.217 N 
ATOM      8  N   UNL     1      -8.169  -8.987   1.336  0.00  0.00    -0.043 NA
ATOM      9  N   UNL     1      -9.115  -8.514  -0.628  0.00  0.00    -0.108 NA
ATOM     10  N   UNL     1      -8.051  -9.102   0.019  0.00  0.00    -0.023 NA
ATOM     18  C   UNL     1      -9.887  -8.040   0.323  0.00  0.00    +0.182 A 
BRANCH  18  20
ATOM     20  C   UNL     1     -11.131  -7.333   0.155  0.00  0.00    +0.024 A 
ATOM     21  C   UNL     1     -11.182  -5.953   0.352  0.00  0.00    +0.057 A 
ATOM     22  C   UNL     1     -12.286  -8.029  -0.205  0.00  0.00    +0.012 A 
ATOM     24  C   UNL     1     -12.387  -5.270   0.189  0.00  0.00    +0.121 A 
ATOM     25  C   UNL     1     -13.490  -7.345  -0.368  0.00  0.00    +0.004 A 
ATOM     26  C   UNL     1     -13.541  -5.965  -0.171  0.00  0.00    +0.045 A 
BRANCH  24   4
ATOM      4  O   UNL     1     -12.436  -3.922   0.380  0.00  0.00    -0.495 OA
ATOM     32  C   UNL     1     -11.342  -3.155  -0.121  0.00  0.00    +0.277 C 
ENDBRANCH  24   4
ENDBRANCH  18  20
ENDBRANCH  14   6
TORSDOF 7
ENDMDL
MODEL 6
REMARK VINA RESULT:      -7.2     25.247     26.838
REMARK  Name = 11887294
REMARK  8 active torsions:
REMARK  status: ('A' for Active; 'I' for Inactive)
REMARK    1  A    between atoms: O_4  and  C_24
REMARK    2  A    between atoms: O_4  and  C_32
REMARK    3  A    between atoms: O_5  and  C_31
REMARK    4  A    between atoms: O_5  and  C_33
REMARK    5  A    between atoms: N_6  and  C_14
REMARK    6  A    between atoms: N_7  and  C_15
REMARK    7  A    between atoms: N_11  and  C_23
REMARK    8  A    between atoms: C_18  and  C_20
REMARK                            x       y       z     vdW  Elec       q    Type
REMARK                         _______ _______ _______ _____ _____    ______ ____
ROOT
ATOM      1  O   UNL     1      19.852  -7.899  -2.594  0.00  0.00    -0.370 OA
ATOM      2  O   UNL     1      17.259  -8.641  -4.211  0.00  0.00    -0.370 OA
ATOM     12  C   UNL     1      17.556  -7.668  -3.194  0.00  0.00    +0.176 C 
ATOM     13  C   UNL     1      18.528  -8.315  -2.226  0.00  0.00    +0.171 C 
ATOM     14  C   UNL     1      18.327  -6.509  -3.796  0.00  0.00    +0.168 C 
ATOM     15  C   UNL     1      18.359  -9.798  -2.464  0.00  0.00    +0.131 C 
ATOM     16  C   UNL     1      19.778  -6.964  -3.680  0.00  0.00    +0.190 C 
ATOM     17  C   UNL     1      17.977  -9.850  -3.931  0.00  0.00    +0.185 C 
ENDROOT
BRANCH  15   7
ATOM      3  O   UNL     1      18.695 -11.152   0.039  0.00  0.00    -0.252 OA
ATOM      7  N   UNL     1      17.315 -10.346  -1.632  0.00  0.00    -0.292 N 
ATOM     11  N   UNL     1      16.366 -11.418   0.164  0.00  0.00    -0.269 N 
ATOM     19  C   UNL     1      17.565 -10.995  -0.417  0.00  0.00    +0.304 C 
ATOM     39  H   UNL     1      16.349 -10.196  -1.908  0.00  0.00    +0.151 HD
ATOM     40  H   UNL     1      15.512 -11.209  -0.348  0.00  0.00    +0.156 HD
BRANCH  11  23
ATOM     23  C   UNL     1      16.189 -12.108   1.387  0.00  0.00    +0.035 A 
ATOM     27  C   UNL     1      15.932 -13.479   1.382  0.00  0.00    +0.027 A 
ATOM     28  C   UNL     1      16.273 -11.417   2.596  0.00  0.00    +0.027 A 
ATOM     29  C   UNL     1      15.759 -14.159   2.588  0.00  0.00    +0.048 A 
ATOM     30  C   UNL     1      16.100 -12.097   3.801  0.00  0.00    +0.048 A 
ATOM     31  C   UNL     1      15.843 -13.469   3.797  0.00  0.00    +0.129 A 
BRANCH  31   5
ATOM      5  O   UNL     1      15.672 -14.132   4.972  0.00  0.00    -0.456 OA
BRANCH   5  33
ATOM     33  C   UNL     1      16.586 -15.124   5.290  0.00  0.00    +0.128 A 
ATOM     34  C   UNL     1      17.951 -14.893   5.124  0.00  0.00    +0.046 A 
ATOM     35  C   UNL     1      16.140 -16.353   5.774  0.00  0.00    +0.046 A 
ATOM     36  C   UNL     1      18.872 -15.892   5.443  0.00  0.00    +0.004 A 
ATOM     37  C   UNL     1      17.061 -17.352   6.094  0.00  0.00    +0.004 A 
ATOM     38  C   UNL     1      18.426 -17.121   5.928  0.00  0.00    +0.000 A 
ENDBRANCH   5  33
ENDBRANCH  31   5
ENDBRANCH  11  23
ENDBRANCH  15   7
BRANCH  14   6
ATOM      6  N   UNL     1      18.024  -5.232  -3.144  0.00  0.00    -0.217 N 
ATOM      8  N   UNL     1      18.897  -4.671  -2.296  0.00  0.00    -0.043 NA
ATOM      9  N   UNL     1      17.079  -3.394  -2.487  0.00  0.00    -0.108 NA
ATOM     10  N   UNL     1      18.314  -3.547  -1.899  0.00  0.00    -0.023 NA
ATOM     18  C   UNL     1      16.920  -4.448  -3.255  0.00  0.00    +0.182 A 
BRANCH  18  20
ATOM     20  C   UNL     1      15.782  -4.752  -4.084  0.00  0.00    +0.024 A 
ATOM     21  C   UNL     1      15.834  -4.509  -5.457  0.00  0.00    +0.057 A 
ATOM     22  C   UNL     1      14.628  -5.291  -3.514  0.00  0.00    +0.012 A 
ATOM     24  C   UNL     1      14.732  -4.805  -6.258  0.00  0.00    +0.121 A 
ATOM     25  C   UNL     1      13.527  -5.586  -4.317  0.00  0.00    +0.004 A 
ATOM     26  C   UNL     1      13.579  -5.343  -5.690  0.00  0.00    +0.045 A 
BRANCH  24   4
ATOM      4  O   UNL     1      14.783  -4.568  -7.599  0.00  0.00    -0.495 OA
ATOM     32  C   UNL     1      14.813  -3.204  -8.016  0.00  0.00    +0.277 C 
ENDBRANCH  24   4
ENDBRANCH  18  20
ENDBRANCH  14   6
TORSDOF 7
ENDMDL
MODEL 7
REMARK VINA RESULT:      -7.0     29.090     32.552
REMARK  Name = 11887294
REMARK  8 active torsions:
REMARK  status: ('A' for Active; 'I' for Inactive)
REMARK    1  A    between atoms: O_4  and  C_24
REMARK    2  A    between atoms: O_4  and  C_32
REMARK    3  A    between atoms: O_5  and  C_31
REMARK    4  A    between atoms: O_5  and  C_33
REMARK    5  A    between atoms: N_6  and  C_14
REMARK    6  A    between atoms: N_7  and  C_15
REMARK    7  A    between atoms: N_11  and  C_23
REMARK    8  A    between atoms: C_18  and  C_20
REMARK                            x       y       z     vdW  Elec       q    Type
REMARK                         _______ _______ _______ _____ _____    ______ ____
ROOT
ATOM      1  O   UNL     1     -10.931  -3.820   8.645  0.00  0.00    -0.370 OA
ATOM      2  O   UNL     1     -12.536  -6.512   8.371  0.00  0.00    -0.370 OA
ATOM     12  C   UNL     1     -12.144  -5.693   9.488  0.00  0.00    +0.176 C 
ATOM     13  C   UNL     1     -10.764  -5.144   9.177  0.00  0.00    +0.171 C 
ATOM     14  C   UNL     1     -13.036  -4.469   9.569  0.00  0.00    +0.168 C 
ATOM     15  C   UNL     1     -10.223  -6.072   8.114  0.00  0.00    +0.131 C 
ATOM     16  C   UNL     1     -12.320  -3.462   8.674  0.00  0.00    +0.190 C 
ATOM     17  C   UNL     1     -11.485  -6.512   7.395  0.00  0.00    +0.185 C 
ENDROOT
BRANCH  15   7
ATOM      3  O   UNL     1      -7.398  -6.342   8.512  0.00  0.00    -0.252 OA
ATOM      7  N   UNL     1      -9.538  -7.198   8.702  0.00  0.00    -0.292 N 
ATOM     11  N   UNL     1      -7.773  -8.458   9.458  0.00  0.00    -0.269 N 
ATOM     19  C   UNL     1      -8.148  -7.251   8.862  0.00  0.00    +0.304 C 
ATOM     39  H   UNL     1     -10.096  -7.960   9.078  0.00  0.00    +0.151 HD
ATOM     40  H   UNL     1      -8.522  -9.108   9.685  0.00  0.00    +0.156 HD
BRANCH  11  23
ATOM     23  C   UNL     1      -6.468  -8.895   9.787  0.00  0.00    +0.035 A 
ATOM     27  C   UNL     1      -5.570  -9.231   8.774  0.00  0.00    +0.027 A 
ATOM     28  C   UNL     1      -6.080  -8.989  11.123  0.00  0.00    +0.027 A 
ATOM     29  C   UNL     1      -4.282  -9.661   9.098  0.00  0.00    +0.048 A 
ATOM     30  C   UNL     1      -4.793  -9.419  11.447  0.00  0.00    +0.048 A 
ATOM     31  C   UNL     1      -3.894  -9.755  10.434  0.00  0.00    +0.129 A 
BRANCH  31   5
ATOM      5  O   UNL     1      -2.639 -10.175  10.750  0.00  0.00    -0.456 OA
BRANCH   5  33
ATOM     33  C   UNL     1      -2.491 -10.966  11.878  0.00  0.00    +0.128 A 
ATOM     34  C   UNL     1      -2.781 -12.329  11.816  0.00  0.00    +0.046 A 
ATOM     35  C   UNL     1      -2.053 -10.400  13.074  0.00  0.00    +0.046 A 
ATOM     36  C   UNL     1      -2.633 -13.126  12.952  0.00  0.00    +0.004 A 
ATOM     37  C   UNL     1      -1.904 -11.197  14.210  0.00  0.00    +0.004 A 
ATOM     38  C   UNL     1      -2.194 -12.560  14.148  0.00  0.00    +0.000 A 
ENDBRANCH   5  33
ENDBRANCH  31   5
ENDBRANCH  11  23
ENDBRANCH  15   7
BRANCH  14   6
ATOM      6  N   UNL     1     -13.257  -4.025  10.948  0.00  0.00    -0.217 N 
ATOM      8  N   UNL     1     -12.341  -4.258  11.898  0.00  0.00    -0.043 NA
ATOM      9  N   UNL     1     -14.088  -3.172  12.760  0.00  0.00    -0.108 NA
ATOM     10  N   UNL     1     -12.854  -3.732  13.004  0.00  0.00    -0.023 NA
ATOM     18  C   UNL     1     -14.317  -3.364  11.481  0.00  0.00    +0.182 A 
BRANCH  18  20
ATOM     20  C   UNL     1     -15.482  -2.956  10.740  0.00  0.00    +0.024 A 
ATOM     21  C   UNL     1     -16.209  -3.896  10.008  0.00  0.00    +0.057 A 
ATOM     22  C   UNL     1     -15.886  -1.621  10.754  0.00  0.00    +0.012 A 
ATOM     24  C   UNL     1     -17.338  -3.501   9.292  0.00  0.00    +0.121 A 
ATOM     25  C   UNL     1     -17.015  -1.226  10.036  0.00  0.00    +0.004 A 
ATOM     26  C   UNL     1     -17.741  -2.167   9.305  0.00  0.00    +0.045 A 
BRANCH  24   4
ATOM      4  O   UNL     1     -18.046  -4.419   8.578  0.00  0.00    -0.495 OA
ATOM     32  C   UNL     1     -17.827  -4.457   7.169  0.00  0.00    +0.277 C 
ENDBRANCH  24   4
ENDBRANCH  18  20
ENDBRANCH  14   6
TORSDOF 7
ENDMDL
MODEL 8
REMARK VINA RESULT:      -6.9     30.736     34.031
REMARK  Name = 11887294
REMARK  8 active torsions:
REMARK  status: ('A' for Active; 'I' for Inactive)
REMARK    1  A    between atoms: O_4  and  C_24
REMARK    2  A    between atoms: O_4  and  C_32
REMARK    3  A    between atoms: O_5  and  C_31
REMARK    4  A    between atoms: O_5  and  C_33
REMARK    5  A    between atoms: N_6  and  C_14
REMARK    6  A    between atoms: N_7  and  C_15
REMARK    7  A    between atoms: N_11  and  C_23
REMARK    8  A    between atoms: C_18  and  C_20
REMARK                            x       y       z     vdW  Elec       q    Type
REMARK                         _______ _______ _______ _____ _____    ______ ____
ROOT
ATOM      1  O   UNL     1      -5.143 -14.096   5.013  0.00  0.00    -0.370 OA
ATOM      2  O   UNL     1      -2.176 -13.221   5.583  0.00  0.00    -0.370 OA
ATOM     12  C   UNL     1      -3.394 -12.503   5.314  0.00  0.00    +0.176 C 
ATOM     13  C   UNL     1      -4.175 -13.313   4.297  0.00  0.00    +0.171 C 
ATOM     14  C   UNL     1      -4.271 -12.491   6.552  0.00  0.00    +0.168 C 
ATOM     15  C   UNL     1      -3.140 -14.213   3.662  0.00  0.00    +0.131 C 
ATOM     16  C   UNL     1      -5.083 -13.774   6.410  0.00  0.00    +0.190 C 
ATOM     17  C   UNL     1      -2.149 -14.418   4.793  0.00  0.00    +0.185 C 
ENDROOT
BRANCH  15   7
ATOM      3  O   UNL     1      -2.576 -15.403   1.117  0.00  0.00    -0.252 OA
ATOM      7  N   UNL     1      -2.515 -13.573   2.530  0.00  0.00    -0.292 N 
ATOM     11  N   UNL     1      -1.661 -13.360   0.408  0.00  0.00    -0.269 N 
ATOM     19  C   UNL     1      -2.274 -14.228   1.316  0.00  0.00    +0.304 C 
ATOM     39  H   UNL     1      -2.299 -12.582   2.593  0.00  0.00    +0.151 HD
ATOM     40  H   UNL     1      -1.477 -12.414   0.733  0.00  0.00    +0.156 HD
BRANCH  11  23
ATOM     23  C   UNL     1      -1.256 -13.636  -0.920  0.00  0.00    +0.035 A 
ATOM     27  C   UNL     1       0.098 -13.789  -1.218  0.00  0.00    +0.027 A 
ATOM     28  C   UNL     1      -2.212 -13.756  -1.929  0.00  0.00    +0.027 A 
ATOM     29  C   UNL     1       0.496 -14.062  -2.527  0.00  0.00    +0.048 A 
ATOM     30  C   UNL     1      -1.813 -14.029  -3.237  0.00  0.00    +0.048 A 
ATOM     31  C   UNL     1      -0.459 -14.182  -3.536  0.00  0.00    +0.129 A 
BRANCH  31   5
ATOM      5  O   UNL     1      -0.070 -14.446  -4.813  0.00  0.00    -0.456 OA
BRANCH   5  33
ATOM     33  C   UNL     1       0.868 -13.605  -5.387  0.00  0.00    +0.128 A 
ATOM     34  C   UNL     1       2.151 -14.078  -5.664  0.00  0.00    +0.046 A 
ATOM     35  C   UNL     1       0.532 -12.285  -5.687  0.00  0.00    +0.046 A 
ATOM     36  C   UNL     1       3.097 -13.231  -6.241  0.00  0.00    +0.004 A 
ATOM     37  C   UNL     1       1.478 -11.438  -6.264  0.00  0.00    +0.004 A 
ATOM     38  C   UNL     1       2.760 -11.911  -6.542  0.00  0.00    +0.000 A 
ENDBRANCH   5  33
ENDBRANCH  31   5
ENDBRANCH  11  23
ENDBRANCH  15   7
BRANCH  14   6
ATOM      6  N   UNL     1      -5.064 -11.264   6.666  0.00  0.00    -0.217 N 
ATOM      8  N   UNL     1      -5.868 -10.872   5.668  0.00  0.00    -0.043 NA
ATOM      9  N   UNL     1      -5.976  -9.423   7.359  0.00  0.00    -0.108 NA
ATOM     10  N   UNL     1      -6.424  -9.746   6.098  0.00  0.00    -0.023 NA
ATOM     18  C   UNL     1      -5.137 -10.377   7.692  0.00  0.00    +0.182 A 
BRANCH  18  20
ATOM     20  C   UNL     1      -4.401 -10.491   8.925  0.00  0.00    +0.024 A 
ATOM     21  C   UNL     1      -4.392 -11.699   9.623  0.00  0.00    +0.057 A 
ATOM     22  C   UNL     1      -3.694  -9.395   9.419  0.00  0.00    +0.012 A 
ATOM     24  C   UNL     1      -3.679 -11.809  10.816  0.00  0.00    +0.121 A 
ATOM     25  C   UNL     1      -2.981  -9.506  10.613  0.00  0.00    +0.004 A 
ATOM     26  C   UNL     1      -2.973 -10.713  11.311  0.00  0.00    +0.045 A 
BRANCH  24   4
ATOM      4  O   UNL     1      -3.670 -12.988  11.498  0.00  0.00    -0.495 OA
ATOM     32  C   UNL     1      -3.678 -14.186  10.722  0.00  0.00    +0.277 C 
ENDBRANCH  24   4
ENDBRANCH  18  20
ENDBRANCH  14   6
TORSDOF 7
ENDMDL
MODEL 9
REMARK VINA RESULT:      -6.8     14.381     16.140
REMARK  Name = 11887294
REMARK  8 active torsions:
REMARK  status: ('A' for Active; 'I' for Inactive)
REMARK    1  A    between atoms: O_4  and  C_24
REMARK    2  A    between atoms: O_4  and  C_32
REMARK    3  A    between atoms: O_5  and  C_31
REMARK    4  A    between atoms: O_5  and  C_33
REMARK    5  A    between atoms: N_6  and  C_14
REMARK    6  A    between atoms: N_7  and  C_15
REMARK    7  A    between atoms: N_11  and  C_23
REMARK    8  A    between atoms: C_18  and  C_20
REMARK                            x       y       z     vdW  Elec       q    Type
REMARK                         _______ _______ _______ _____ _____    ______ ____
ROOT
ATOM      1  O   UNL     1      13.789   7.328   5.399  0.00  0.00    -0.370 OA
ATOM      2  O   UNL     1      14.478   8.635   2.621  0.00  0.00    -0.370 OA
ATOM     12  C   UNL     1      14.166   7.295   3.044  0.00  0.00    +0.176 C 
ATOM     13  C   UNL     1      14.802   7.097   4.407  0.00  0.00    +0.171 C 
ATOM     14  C   UNL     1      12.675   7.165   3.292  0.00  0.00    +0.168 C 
ATOM     15  C   UNL     1      15.865   8.169   4.483  0.00  0.00    +0.131 C 
ATOM     16  C   UNL     1      12.533   7.579   4.753  0.00  0.00    +0.190 C 
ATOM     17  C   UNL     1      15.271   9.275   3.630  0.00  0.00    +0.185 C 
ENDROOT
BRANCH  15   7
ATOM      3  O   UNL     1      18.484   9.125   5.145  0.00  0.00    -0.252 OA
ATOM      7  N   UNL     1      17.117   7.704   3.937  0.00  0.00    -0.292 N 
ATOM     11  N   UNL     1      19.389   7.582   3.624  0.00  0.00    -0.269 N 
ATOM     19  C   UNL     1      18.359   8.226   4.316  0.00  0.00    +0.304 C 
ATOM     39  H   UNL     1      17.101   6.915   3.296  0.00  0.00    +0.151 HD
ATOM     40  H   UNL     1      19.114   6.856   2.968  0.00  0.00    +0.156 HD
BRANCH  11  23
ATOM     23  C   UNL     1      20.781   7.819   3.722  0.00  0.00    +0.035 A 
ATOM     27  C   UNL     1      21.380   8.792   2.923  0.00  0.00    +0.027 A 
ATOM     28  C   UNL     1      21.553   7.079   4.618  0.00  0.00    +0.027 A 
ATOM     29  C   UNL     1      22.753   9.026   3.021  0.00  0.00    +0.048 A 
ATOM     30  C   UNL     1      22.924   7.313   4.715  0.00  0.00    +0.048 A 
ATOM     31  C   UNL     1      23.524   8.286   3.917  0.00  0.00    +0.129 A 
BRANCH  31   5
ATOM      5  O   UNL     1      24.863   8.513   4.010  0.00  0.00    -0.456 OA
BRANCH   5  33
ATOM     33  C   UNL     1      25.355   8.964   5.224  0.00  0.00    +0.128 A 
ATOM     34  C   UNL     1      26.284   8.197   5.928  0.00  0.00    +0.046 A 
ATOM     35  C   UNL     1      24.922  10.184   5.742  0.00  0.00    +0.046 A 
ATOM     36  C   UNL     1      26.779   8.651   7.150  0.00  0.00    +0.004 A 
ATOM     37  C   UNL     1      25.418  10.638   6.965  0.00  0.00    +0.004 A 
ATOM     38  C   UNL     1      26.347   9.871   7.668  0.00  0.00    +0.000 A 
ENDBRANCH   5  33
ENDBRANCH  31   5
ENDBRANCH  11  23
ENDBRANCH  15   7
BRANCH  14   6
ATOM      6  N   UNL     1      12.168   5.828   2.974  0.00  0.00    -0.217 N 
ATOM      8  N   UNL     1      12.845   5.015   2.152  0.00  0.00    -0.043 NA
ATOM      9  N   UNL     1      10.982   4.016   2.861  0.00  0.00    -0.108 NA
ATOM     10  N   UNL     1      12.116   3.908   2.087  0.00  0.00    -0.023 NA
ATOM     18  C   UNL     1      11.035   5.211   3.401  0.00  0.00    +0.182 A 
BRANCH  18  20
ATOM     20  C   UNL     1      10.073   5.800   4.297  0.00  0.00    +0.024 A 
ATOM     21  C   UNL     1      10.024   5.398   5.631  0.00  0.00    +0.057 A 
ATOM     22  C   UNL     1       9.191   6.775   3.829  0.00  0.00    +0.012 A 
ATOM     24  C   UNL     1       9.092   5.969   6.498  0.00  0.00    +0.121 A 
ATOM     25  C   UNL     1       8.259   7.345   4.696  0.00  0.00    +0.004 A 
ATOM     26  C   UNL     1       8.210   6.943   6.031  0.00  0.00    +0.045 A 
BRANCH  24   4
ATOM      4  O   UNL     1       9.045   5.576   7.801  0.00  0.00    -0.495 OA
ATOM     32  C   UNL     1      10.166   4.849   8.301  0.00  0.00    +0.277 C 
ENDBRANCH  24   4
ENDBRANCH  18  20
ENDBRANCH  14   6
TORSDOF 7
ENDMDL
MODEL 10
REMARK VINA RESULT:      -6.8     17.915     20.752
REMARK  Name = 11887294
REMARK  8 active torsions:
REMARK  status: ('A' for Active; 'I' for Inactive)
REMARK    1  A    between atoms: O_4  and  C_24
REMARK    2  A    between atoms: O_4  and  C_32
REMARK    3  A    between atoms: O_5  and  C_31
REMARK    4  A    between atoms: O_5  and  C_33
REMARK    5  A    between atoms: N_6  and  C_14
REMARK    6  A    between atoms: N_7  and  C_15
REMARK    7  A    between atoms: N_11  and  C_23
REMARK    8  A    between atoms: C_18  and  C_20
REMARK                            x       y       z     vdW  Elec       q    Type
REMARK                         _______ _______ _______ _____ _____    ______ ____
ROOT
ATOM      1  O   UNL     1      12.475 -11.915  31.339  0.00  0.00    -0.370 OA
ATOM      2  O   UNL     1      11.245  -9.275  32.529  0.00  0.00    -0.370 OA
ATOM     12  C   UNL     1      10.959 -10.074  31.367  0.00  0.00    +0.176 C 
ATOM     13  C   UNL     1      12.285 -10.583  30.836  0.00  0.00    +0.171 C 
ATOM     14  C   UNL     1      10.201 -11.324  31.772  0.00  0.00    +0.168 C 
ATOM     15  C   UNL     1      13.311  -9.646  31.433  0.00  0.00    +0.131 C 
ATOM     16  C   UNL     1      11.317 -12.315  32.087  0.00  0.00    +0.190 C 
ATOM     17  C   UNL     1      12.662  -9.251  32.747  0.00  0.00    +0.185 C 
ENDROOT
BRANCH  15   7
ATOM      3  O   UNL     1      15.598  -9.129  29.787  0.00  0.00    -0.252 OA
ATOM      7  N   UNL     1      13.524  -8.496  30.588  0.00  0.00    -0.292 N 
ATOM     11  N   UNL     1      14.600  -7.118  29.100  0.00  0.00    -0.269 N 
ATOM     19  C   UNL     1      14.674  -8.319  29.811  0.00  0.00    +0.304 C 
ATOM     39  H   UNL     1      12.775  -7.815  30.502  0.00  0.00    +0.151 HD
ATOM     40  H   UNL     1      13.762  -6.558  29.234  0.00  0.00    +0.156 HD
BRANCH  11  23
ATOM     23  C   UNL     1      15.557  -6.577  28.207  0.00  0.00    +0.035 A 
ATOM     27  C   UNL     1      15.521  -6.921  26.856  0.00  0.00    +0.027 A 
ATOM     28  C   UNL     1      16.533  -5.700  28.679  0.00  0.00    +0.027 A 
ATOM     29  C   UNL     1      16.463  -6.387  25.976  0.00  0.00    +0.048 A 
ATOM     30  C   UNL     1      17.474  -5.166  27.800  0.00  0.00    +0.048 A 
ATOM     31  C   UNL     1      17.440  -5.510  26.448  0.00  0.00    +0.129 A 
BRANCH  31   5
ATOM      5  O   UNL     1      18.359  -4.990  25.590  0.00  0.00    -0.456 OA
BRANCH   5  33
ATOM     33  C   UNL     1      17.930  -4.024  24.695  0.00  0.00    +0.128 A 
ATOM     34  C   UNL     1      16.969  -3.091  25.084  0.00  0.00    +0.046 A 
ATOM     35  C   UNL     1      18.459  -3.985  23.405  0.00  0.00    +0.046 A 
ATOM     36  C   UNL     1      16.536  -2.119  24.182  0.00  0.00    +0.004 A 
ATOM     37  C   UNL     1      18.026  -3.012  22.503  0.00  0.00    +0.004 A 
ATOM     38  C   UNL     1      17.065  -2.079  22.892  0.00  0.00    +0.000 A 
ENDBRANCH   5  33
ENDBRANCH  31   5
ENDBRANCH  11  23
ENDBRANCH  15   7
BRANCH  14   6
ATOM      6  N   UNL     1       9.252 -11.763  30.746  0.00  0.00    -0.217 N 
ATOM      8  N   UNL     1       9.578 -12.736  29.884  0.00  0.00    -0.043 NA
ATOM      9  N   UNL     1       7.512 -12.003  29.475  0.00  0.00    -0.108 NA
ATOM     10  N   UNL     1       8.509 -12.879  29.109  0.00  0.00    -0.023 NA
ATOM     18  C   UNL     1       7.993 -11.323  30.490  0.00  0.00    +0.182 A 
BRANCH  18  20
ATOM     20  C   UNL     1       7.327 -10.281  31.228  0.00  0.00    +0.024 A 
ATOM     21  C   UNL     1       6.947 -10.497  32.553  0.00  0.00    +0.057 A 
ATOM     22  C   UNL     1       7.062  -9.055  30.618  0.00  0.00    +0.012 A 
ATOM     24  C   UNL     1       6.303  -9.487  33.267  0.00  0.00    +0.121 A 
ATOM     25  C   UNL     1       6.418  -8.045  31.333  0.00  0.00    +0.004 A 
ATOM     26  C   UNL     1       6.038  -8.262  32.658  0.00  0.00    +0.045 A 
BRANCH  24   4
ATOM      4  O   UNL     1       5.933  -9.699  34.561  0.00  0.00    -0.495 OA
ATOM     32  C   UNL     1       4.619  -9.286  34.936  0.00  0.00    +0.277 C 
ENDBRANCH  24   4
ENDBRANCH  18  20
ENDBRANCH  14   6
TORSDOF 7
ENDMDL
