MODEL 1
REMARK VINA RESULT:      -6.6      0.000      0.000
REMARK  Name = 75536972
REMARK  3 active torsions:
REMARK  status: ('A' for Active; 'I' for Inactive)
REMARK    1  A    between atoms: N_5  and  C_17
REMARK    2  A    between atoms: C_7  and  C_13
REMARK    3  A    between atoms: C_17  and  C_18
REMARK                            x       y       z     vdW  Elec       q    Type
REMARK                         _______ _______ _______ _____ _____    ______ ____
ROOT
ATOM      1  O   UNL     1      10.482  11.459  24.629  0.00  0.00    -0.275 OA
ATOM      2  O   UNL     1      12.092   6.316  20.211  0.00  0.00    -0.252 OA
ATOM      3  N   UNL     1      11.625  10.616  22.787  0.00  0.00    -0.298 N 
ATOM      4  N   UNL     1      12.345   8.231  21.548  0.00  0.00    -0.278 N 
ATOM      5  N   UNL     1      13.975   7.730  20.084  0.00  0.00    -0.279 N 
ATOM      8  C   UNL     1      13.386   9.211  21.808  0.00  0.00    +0.112 C 
ATOM     11  C   UNL     1      12.791  10.615  21.884  0.00  0.00    +0.132 C 
ATOM     12  C   UNL     1      14.380   8.997  20.669  0.00  0.00    +0.133 C 
ATOM     13  C   UNL     1      11.464  11.453  23.892  0.00  0.00    +0.219 C 
ATOM     14  C   UNL     1      10.572   9.652  22.435  0.00  0.00    +0.127 C 
ATOM     15  C   UNL     1      11.134   8.235  22.349  0.00  0.00    +0.128 C 
ATOM     16  C   UNL     1      12.725   7.299  20.573  0.00  0.00    +0.306 C 
ENDROOT
BRANCH  13   7
ATOM      7  C   UNL     1      12.574  12.406  24.195  0.00  0.00    +0.075 C 
ATOM      9  C   UNL     1      12.228  13.823  24.508  0.00  0.00    +0.013 C 
ATOM     10  C   UNL     1      12.718  12.910  25.591  0.00  0.00    +0.013 C 
ENDBRANCH  13   7
BRANCH   5  17
ATOM     17  C   UNL     1      14.731   7.099  19.025  0.00  0.00    +0.146 C 
BRANCH  17  18
ATOM      6  N   UNL     1      18.135   5.453  19.047  0.00  0.00    -0.263 NA
ATOM     18  C   UNL     1      16.094   6.672  19.487  0.00  0.00    -0.012 A 
ATOM     19  C   UNL     1      16.587   7.065  20.726  0.00  0.00    +0.008 A 
ATOM     20  C   UNL     1      16.901   5.873  18.692  0.00  0.00    +0.115 A 
ATOM     21  C   UNL     1      17.853   6.654  21.127  0.00  0.00    +0.020 A 
ATOM     22  C   UNL     1      18.581   5.855  20.259  0.00  0.00    +0.111 A 
ENDBRANCH  17  18
ENDBRANCH   5  17
TORSDOF 3
ENDMDL
MODEL 2
REMARK VINA RESULT:      -6.4     16.017     18.257
REMARK  Name = 75536972
REMARK  3 active torsions:
REMARK  status: ('A' for Active; 'I' for Inactive)
REMARK    1  A    between atoms: N_5  and  C_17
REMARK    2  A    between atoms: C_7  and  C_13
REMARK    3  A    between atoms: C_17  and  C_18
REMARK                            x       y       z     vdW  Elec       q    Type
REMARK                         _______ _______ _______ _____ _____    ______ ____
ROOT
ATOM      1  O   UNL     1       8.870   7.330   8.483  0.00  0.00    -0.275 OA
ATOM      2  O   UNL     1       9.341   7.045   1.536  0.00  0.00    -0.252 OA
ATOM      3  N   UNL     1       9.952   6.702   6.521  0.00  0.00    -0.298 N 
ATOM      4  N   UNL     1       9.544   6.399   3.786  0.00  0.00    -0.278 N 
ATOM      5  N   UNL     1      10.629   5.195   2.229  0.00  0.00    -0.279 N 
ATOM      8  C   UNL     1      10.125   5.288   4.520  0.00  0.00    +0.112 C 
ATOM     11  C   UNL     1      10.838   5.791   5.774  0.00  0.00    +0.132 C 
ATOM     12  C   UNL     1      11.032   4.610   3.497  0.00  0.00    +0.133 C 
ATOM     13  C   UNL     1       9.596   6.557   7.863  0.00  0.00    +0.219 C 
ATOM     14  C   UNL     1       9.448   7.847   5.747  0.00  0.00    +0.127 C 
ATOM     15  C   UNL     1       8.731   7.379   4.484  0.00  0.00    +0.128 C 
ATOM     16  C   UNL     1       9.778   6.305   2.407  0.00  0.00    +0.306 C 
ENDROOT
BRANCH  13   7
ATOM      7  C   UNL     1      10.139   5.369   8.590  0.00  0.00    +0.075 C 
ATOM      9  C   UNL     1       9.356   4.817   9.732  0.00  0.00    +0.013 C 
ATOM     10  C   UNL     1       9.437   4.062   8.440  0.00  0.00    +0.013 C 
ENDBRANCH  13   7
BRANCH   5  17
ATOM     17  C   UNL     1      11.176   4.743   0.969  0.00  0.00    +0.146 C 
BRANCH  17  18
ATOM      6  N   UNL     1      14.712   6.081   0.881  0.00  0.00    -0.263 NA
ATOM     18  C   UNL     1      12.676   4.778   0.963  0.00  0.00    -0.012 A 
ATOM     19  C   UNL     1      13.421   3.606   1.031  0.00  0.00    +0.008 A 
ATOM     20  C   UNL     1      13.364   5.980   0.891  0.00  0.00    +0.115 A 
ATOM     21  C   UNL     1      14.809   3.669   1.024  0.00  0.00    +0.020 A 
ATOM     22  C   UNL     1      15.401   4.920   0.948  0.00  0.00    +0.111 A 
ENDBRANCH  17  18
ENDBRANCH   5  17
TORSDOF 3
ENDMDL
MODEL 3
REMARK VINA RESULT:      -6.3     26.450     28.236
REMARK  Name = 75536972
REMARK  3 active torsions:
REMARK  status: ('A' for Active; 'I' for Inactive)
REMARK    1  A    between atoms: N_5  and  C_17
REMARK    2  A    between atoms: C_7  and  C_13
REMARK    3  A    between atoms: C_17  and  C_18
REMARK                            x       y       z     vdW  Elec       q    Type
REMARK                         _______ _______ _______ _____ _____    ______ ____
ROOT
ATOM      1  O   UNL     1     -10.068 -10.638  19.263  0.00  0.00    -0.275 OA
ATOM      2  O   UNL     1      -3.226 -11.955  19.159  0.00  0.00    -0.252 OA
ATOM      3  N   UNL     1      -8.064 -11.008  18.140  0.00  0.00    -0.298 N 
ATOM      4  N   UNL     1      -5.310 -11.075  18.523  0.00  0.00    -0.278 N 
ATOM      5  N   UNL     1      -3.588 -10.879  17.091  0.00  0.00    -0.279 N 
ATOM      8  C   UNL     1      -5.832 -10.273  17.429  0.00  0.00    +0.112 C 
ATOM     11  C   UNL     1      -7.186 -10.810  16.973  0.00  0.00    +0.132 C 
ATOM     12  C   UNL     1      -4.730 -10.336  16.375  0.00  0.00    +0.133 C 
ATOM     13  C   UNL     1      -9.336 -10.454  18.293  0.00  0.00    +0.219 C 
ATOM     14  C   UNL     1      -7.513 -11.884  19.186  0.00  0.00    +0.127 C 
ATOM     15  C   UNL     1      -6.156 -11.376  19.664  0.00  0.00    +0.128 C 
ATOM     16  C   UNL     1      -3.950 -11.372  18.361  0.00  0.00    +0.306 C 
ENDROOT
BRANCH  13   7
ATOM      7  C   UNL     1      -9.834  -9.571  17.196  0.00  0.00    +0.075 C 
ATOM      9  C   UNL     1     -11.117  -8.839  17.400  0.00  0.00    +0.013 C 
ATOM     10  C   UNL     1      -9.815  -8.095  17.407  0.00  0.00    +0.013 C 
ENDBRANCH  13   7
BRANCH   5  17
ATOM     17  C   UNL     1      -2.286 -11.003  16.476  0.00  0.00    +0.146 C 
BRANCH  17  18
ATOM      6  N   UNL     1      -2.934 -12.895  13.266  0.00  0.00    -0.263 NA
ATOM     18  C   UNL     1      -2.385 -11.313  15.011  0.00  0.00    -0.012 A 
ATOM     19  C   UNL     1      -2.039 -10.366  14.053  0.00  0.00    +0.008 A 
ATOM     20  C   UNL     1      -2.823 -12.552  14.569  0.00  0.00    +0.115 A 
ATOM     21  C   UNL     1      -2.141 -10.681  12.703  0.00  0.00    +0.020 A 
ATOM     22  C   UNL     1      -2.589 -11.948  12.365  0.00  0.00    +0.111 A 
ENDBRANCH  17  18
ENDBRANCH   5  17
TORSDOF 3
ENDMDL
MODEL 4
REMARK VINA RESULT:      -6.2     28.248     31.110
REMARK  Name = 75536972
REMARK  3 active torsions:
REMARK  status: ('A' for Active; 'I' for Inactive)
REMARK    1  A    between atoms: N_5  and  C_17
REMARK    2  A    between atoms: C_7  and  C_13
REMARK    3  A    between atoms: C_17  and  C_18
REMARK                            x       y       z     vdW  Elec       q    Type
REMARK                         _______ _______ _______ _____ _____    ______ ____
ROOT
ATOM      1  O   UNL     1     -16.067   4.783  21.238  0.00  0.00    -0.275 OA
ATOM      2  O   UNL     1     -19.162   1.833  26.741  0.00  0.00    -0.252 OA
ATOM      3  N   UNL     1     -16.016   3.857  23.372  0.00  0.00    -0.298 N 
ATOM      4  N   UNL     1     -17.660   3.148  25.500  0.00  0.00    -0.278 N 
ATOM      5  N   UNL     1     -17.236   2.817  27.682  0.00  0.00    -0.279 N 
ATOM      8  C   UNL     1     -16.498   3.973  25.777  0.00  0.00    +0.112 C 
ATOM     11  C   UNL     1     -15.421   3.752  24.717  0.00  0.00    +0.132 C 
ATOM     12  C   UNL     1     -16.094   3.570  27.193  0.00  0.00    +0.133 C 
ATOM     13  C   UNL     1     -15.576   4.714  22.362  0.00  0.00    +0.219 C 
ATOM     14  C   UNL     1     -17.146   2.949  23.124  0.00  0.00    +0.127 C 
ATOM     15  C   UNL     1     -18.242   3.143  24.169  0.00  0.00    +0.128 C 
ATOM     16  C   UNL     1     -18.150   2.517  26.652  0.00  0.00    +0.306 C 
ENDROOT
BRANCH  13   7
ATOM      7  C   UNL     1     -14.425   5.613  22.681  0.00  0.00    +0.075 C 
ATOM      9  C   UNL     1     -13.069   5.231  22.191  0.00  0.00    +0.013 C 
ATOM     10  C   UNL     1     -13.797   6.386  21.571  0.00  0.00    +0.013 C 
ENDBRANCH  13   7
BRANCH   5  17
ATOM     17  C   UNL     1     -17.310   2.335  29.044  0.00  0.00    +0.146 C 
BRANCH  17  18
ATOM      6  N   UNL     1     -14.527  -0.213  29.289  0.00  0.00    -0.263 NA
ATOM     18  C   UNL     1     -16.036   1.667  29.472  0.00  0.00    -0.012 A 
ATOM     19  C   UNL     1     -15.197   2.258  30.411  0.00  0.00    +0.008 A 
ATOM     20  C   UNL     1     -15.659   0.441  28.946  0.00  0.00    +0.115 A 
ATOM     21  C   UNL     1     -14.024   1.616  30.789  0.00  0.00    +0.020 A 
ATOM     22  C   UNL     1     -13.737   0.393  30.204  0.00  0.00    +0.111 A 
ENDBRANCH  17  18
ENDBRANCH   5  17
TORSDOF 3
ENDMDL
MODEL 5
REMARK VINA RESULT:      -6.2     26.784     28.124
REMARK  Name = 75536972
REMARK  3 active torsions:
REMARK  status: ('A' for Active; 'I' for Inactive)
REMARK    1  A    between atoms: N_5  and  C_17
REMARK    2  A    between atoms: C_7  and  C_13
REMARK    3  A    between atoms: C_17  and  C_18
REMARK                            x       y       z     vdW  Elec       q    Type
REMARK                         _______ _______ _______ _____ _____    ______ ____
ROOT
ATOM      1  O   UNL     1      -7.026 -10.461  19.025  0.00  0.00    -0.275 OA
ATOM      2  O   UNL     1      -1.305 -11.332  15.142  0.00  0.00    -0.252 OA
ATOM      3  N   UNL     1      -5.951 -11.118  17.069  0.00  0.00    -0.298 N 
ATOM      4  N   UNL     1      -3.543 -10.879  15.697  0.00  0.00    -0.278 N 
ATOM      5  N   UNL     1      -3.015 -11.145  13.529  0.00  0.00    -0.279 N 
ATOM      8  C   UNL     1      -4.772 -10.584  14.981  0.00  0.00    +0.112 C 
ATOM     11  C   UNL     1      -5.948 -11.329  15.610  0.00  0.00    +0.132 C 
ATOM     12  C   UNL     1      -4.459 -10.981  13.541  0.00  0.00    +0.133 C 
ATOM     13  C   UNL     1      -7.026 -10.619  17.807  0.00  0.00    +0.219 C 
ATOM     14  C   UNL     1      -4.704 -11.497  17.751  0.00  0.00    +0.127 C 
ATOM     15  C   UNL     1      -3.507 -10.770  17.145  0.00  0.00    +0.128 C 
ATOM     16  C   UNL     1      -2.473 -11.139  14.830  0.00  0.00    +0.306 C 
ENDROOT
BRANCH  13   7
ATOM      7  C   UNL     1      -8.261 -10.249  17.052  0.00  0.00    +0.075 C 
ATOM      9  C   UNL     1      -9.368  -9.575  17.788  0.00  0.00    +0.013 C 
ATOM     10  C   UNL     1      -8.538  -8.805  16.805  0.00  0.00    +0.013 C 
ENDBRANCH  13   7
BRANCH   5  17
ATOM     17  C   UNL     1      -2.286 -11.422  12.311  0.00  0.00    +0.146 C 
BRANCH  17  18
ATOM      6  N   UNL     1      -4.416 -11.395   9.186  0.00  0.00    -0.263 NA
ATOM     18  C   UNL     1      -3.011 -10.920  11.096  0.00  0.00    -0.012 A 
ATOM     19  C   UNL     1      -2.971  -9.576  10.742  0.00  0.00    +0.008 A 
ATOM     20  C   UNL     1      -3.742 -11.782  10.293  0.00  0.00    +0.115 A 
ATOM     21  C   UNL     1      -3.653  -9.140   9.611  0.00  0.00    +0.020 A 
ATOM     22  C   UNL     1      -4.354 -10.081   8.874  0.00  0.00    +0.111 A 
ENDBRANCH  17  18
ENDBRANCH   5  17
TORSDOF 3
ENDMDL
MODEL 6
REMARK VINA RESULT:      -6.0      3.290      7.491
REMARK  Name = 75536972
REMARK  3 active torsions:
REMARK  status: ('A' for Active; 'I' for Inactive)
REMARK    1  A    between atoms: N_5  and  C_17
REMARK    2  A    between atoms: C_7  and  C_13
REMARK    3  A    between atoms: C_17  and  C_18
REMARK                            x       y       z     vdW  Elec       q    Type
REMARK                         _______ _______ _______ _____ _____    ______ ____
ROOT
ATOM      1  O   UNL     1      14.244   9.241  15.063  0.00  0.00    -0.275 OA
ATOM      2  O   UNL     1      10.480   7.795  20.747  0.00  0.00    -0.252 OA
ATOM      3  N   UNL     1      13.900   9.278  17.364  0.00  0.00    -0.298 N 
ATOM      4  N   UNL     1      11.929   8.945  19.298  0.00  0.00    -0.278 N 
ATOM      5  N   UNL     1      11.784   9.637  21.432  0.00  0.00    -0.279 N 
ATOM      8  C   UNL     1      12.746  10.145  19.351  0.00  0.00    +0.112 C 
ATOM     11  C   UNL     1      14.099   9.899  18.686  0.00  0.00    +0.132 C 
ATOM     12  C   UNL     1      12.815  10.473  20.840  0.00  0.00    +0.133 C 
ATOM     13  C   UNL     1      14.400   9.774  16.159  0.00  0.00    +0.219 C 
ATOM     14  C   UNL     1      13.124   8.029  17.379  0.00  0.00    +0.127 C 
ATOM     15  C   UNL     1      11.764   8.239  18.040  0.00  0.00    +0.128 C 
ATOM     16  C   UNL     1      11.292   8.682  20.519  0.00  0.00    +0.306 C 
ENDROOT
BRANCH  13   7
ATOM      7  C   UNL     1      15.177  11.049  16.215  0.00  0.00    +0.075 C 
ATOM      9  C   UNL     1      16.030  11.412  15.046  0.00  0.00    +0.013 C 
ATOM     10  C   UNL     1      14.767  12.172  15.322  0.00  0.00    +0.013 C 
ENDBRANCH  13   7
BRANCH   5  17
ATOM     17  C   UNL     1      11.441   9.720  22.834  0.00  0.00    +0.146 C 
BRANCH  17  18
ATOM      6  N   UNL     1      10.591  13.398  22.610  0.00  0.00    -0.263 NA
ATOM     18  C   UNL     1      11.109  11.123  23.248  0.00  0.00    -0.012 A 
ATOM     19  C   UNL     1      11.007  11.470  24.591  0.00  0.00    +0.008 A 
ATOM     20  C   UNL     1      10.893  12.116  22.305  0.00  0.00    +0.115 A 
ATOM     21  C   UNL     1      10.697  12.777  24.945  0.00  0.00    +0.020 A 
ATOM     22  C   UNL     1      10.501  13.696  23.926  0.00  0.00    +0.111 A 
ENDBRANCH  17  18
ENDBRANCH   5  17
TORSDOF 3
ENDMDL
MODEL 7
REMARK VINA RESULT:      -6.0     27.442     29.414
REMARK  Name = 75536972
REMARK  3 active torsions:
REMARK  status: ('A' for Active; 'I' for Inactive)
REMARK    1  A    between atoms: N_5  and  C_17
REMARK    2  A    between atoms: C_7  and  C_13
REMARK    3  A    between atoms: C_17  and  C_18
REMARK                            x       y       z     vdW  Elec       q    Type
REMARK                         _______ _______ _______ _____ _____    ______ ____
ROOT
ATOM      1  O   UNL     1     -13.081  -8.763  16.942  0.00  0.00    -0.275 OA
ATOM      2  O   UNL     1      -7.612 -11.831  19.980  0.00  0.00    -0.252 OA
ATOM      3  N   UNL     1     -10.871  -9.491  16.941  0.00  0.00    -0.298 N 
ATOM      4  N   UNL     1      -8.837 -10.344  18.635  0.00  0.00    -0.278 N 
ATOM      5  N   UNL     1      -6.604 -10.412  18.388  0.00  0.00    -0.279 N 
ATOM      8  C   UNL     1      -8.541  -9.285  17.686  0.00  0.00    +0.112 C 
ATOM     11  C   UNL     1      -9.476  -9.369  16.482  0.00  0.00    +0.132 C 
ATOM     12  C   UNL     1      -7.062  -9.488  17.365  0.00  0.00    +0.133 C 
ATOM     13  C   UNL     1     -11.917  -8.645  16.568  0.00  0.00    +0.219 C 
ATOM     14  C   UNL     1     -11.128 -10.622  17.845  0.00  0.00    +0.127 C 
ATOM     15  C   UNL     1     -10.207 -10.569  19.061  0.00  0.00    +0.128 C 
ATOM     16  C   UNL     1      -7.677 -10.968  19.114  0.00  0.00    +0.306 C 
ENDROOT
BRANCH  13   7
ATOM      7  C   UNL     1     -11.587  -7.513  15.650  0.00  0.00    +0.075 C 
ATOM      9  C   UNL     1     -12.563  -6.392  15.525  0.00  0.00    +0.013 C 
ATOM     10  C   UNL     1     -11.265  -6.184  16.246  0.00  0.00    +0.013 C 
ENDBRANCH  13   7
BRANCH   5  17
ATOM     17  C   UNL     1      -5.214 -10.791  18.511  0.00  0.00    +0.146 C 
BRANCH  17  18
ATOM      6  N   UNL     1      -4.609 -12.990  15.495  0.00  0.00    -0.263 NA
ATOM     18  C   UNL     1      -4.650 -11.288  17.212  0.00  0.00    -0.012 A 
ATOM     19  C   UNL     1      -3.684 -10.561  16.525  0.00  0.00    +0.008 A 
ATOM     20  C   UNL     1      -5.076 -12.486  16.659  0.00  0.00    +0.115 A 
ATOM     21  C   UNL     1      -3.180 -11.046  15.324  0.00  0.00    +0.020 A 
ATOM     22  C   UNL     1      -3.670 -12.255  14.856  0.00  0.00    +0.111 A 
ENDBRANCH  17  18
ENDBRANCH   5  17
TORSDOF 3
ENDMDL
MODEL 8
REMARK VINA RESULT:      -5.8      4.832      7.356
REMARK  Name = 75536972
REMARK  3 active torsions:
REMARK  status: ('A' for Active; 'I' for Inactive)
REMARK    1  A    between atoms: N_5  and  C_17
REMARK    2  A    between atoms: C_7  and  C_13
REMARK    3  A    between atoms: C_17  and  C_18
REMARK                            x       y       z     vdW  Elec       q    Type
REMARK                         _______ _______ _______ _____ _____    ______ ____
ROOT
ATOM      1  O   UNL     1      14.589  11.857  12.945  0.00  0.00    -0.275 OA
ATOM      2  O   UNL     1      14.300   7.186  18.108  0.00  0.00    -0.252 OA
ATOM      3  N   UNL     1      14.883  11.229  15.166  0.00  0.00    -0.298 N 
ATOM      4  N   UNL     1      14.194   9.257  17.002  0.00  0.00    -0.278 N 
ATOM      5  N   UNL     1      14.148   9.245  19.249  0.00  0.00    -0.279 N 
ATOM      8  C   UNL     1      13.977  10.645  17.372  0.00  0.00    +0.112 C 
ATOM     11  C   UNL     1      14.928  11.557  16.602  0.00  0.00    +0.132 C 
ATOM     12  C   UNL     1      14.168  10.652  18.886  0.00  0.00    +0.133 C 
ATOM     13  C   UNL     1      14.608  12.136  14.141  0.00  0.00    +0.219 C 
ATOM     14  C   UNL     1      15.178   9.824  14.844  0.00  0.00    +0.127 C 
ATOM     15  C   UNL     1      14.244   8.883  15.600  0.00  0.00    +0.128 C 
ATOM     16  C   UNL     1      14.219   8.408  18.117  0.00  0.00    +0.306 C 
ENDROOT
BRANCH  13   7
ATOM      7  C   UNL     1      14.314  13.546  14.538  0.00  0.00    +0.075 C 
ATOM      9  C   UNL     1      14.620  14.636  13.567  0.00  0.00    +0.013 C 
ATOM     10  C   UNL     1      13.198  14.260  13.852  0.00  0.00    +0.013 C 
ENDBRANCH  13   7
BRANCH   5  17
ATOM     17  C   UNL     1      14.193   8.808  20.627  0.00  0.00    +0.146 C 
BRANCH  17  18
ATOM      6  N   UNL     1      11.400   6.435  21.557  0.00  0.00    -0.263 NA
ATOM     18  C   UNL     1      12.860   8.308  21.101  0.00  0.00    -0.012 A 
ATOM     19  C   UNL     1      11.868   9.190  21.513  0.00  0.00    +0.008 A 
ATOM     20  C   UNL     1      12.579   6.951  21.142  0.00  0.00    +0.115 A 
ATOM     21  C   UNL     1      10.643   8.698  21.947  0.00  0.00    +0.020 A 
ATOM     22  C   UNL     1      10.460   7.324  21.950  0.00  0.00    +0.111 A 
ENDBRANCH  17  18
ENDBRANCH   5  17
TORSDOF 3
ENDMDL
MODEL 9
REMARK VINA RESULT:      -5.8     26.871     28.794
REMARK  Name = 75536972
REMARK  3 active torsions:
REMARK  status: ('A' for Active; 'I' for Inactive)
REMARK    1  A    between atoms: N_5  and  C_17
REMARK    2  A    between atoms: C_7  and  C_13
REMARK    3  A    between atoms: C_17  and  C_18
REMARK                            x       y       z     vdW  Elec       q    Type
REMARK                         _______ _______ _______ _____ _____    ______ ____
ROOT
ATOM      1  O   UNL     1      -5.011  -9.614   8.378  0.00  0.00    -0.275 OA
ATOM      2  O   UNL     1      -1.449 -11.057  14.191  0.00  0.00    -0.252 OA
ATOM      3  N   UNL     1      -4.692  -9.480  10.679  0.00  0.00    -0.298 N 
ATOM      4  N   UNL     1      -3.276 -10.639  12.774  0.00  0.00    -0.278 N 
ATOM      5  N   UNL     1      -3.635 -10.677  14.992  0.00  0.00    -0.279 N 
ATOM      8  C   UNL     1      -4.715 -10.495  12.915  0.00  0.00    +0.112 C 
ATOM     11  C   UNL     1      -5.224  -9.347  12.048  0.00  0.00    +0.132 C 
ATOM     12  C   UNL     1      -4.915 -10.302  14.416  0.00  0.00    +0.133 C 
ATOM     13  C   UNL     1      -5.464  -9.520   9.516  0.00  0.00    +0.219 C 
ATOM     14  C   UNL     1      -3.226  -9.552  10.591  0.00  0.00    +0.127 C 
ATOM     15  C   UNL     1      -2.682 -10.691  11.449  0.00  0.00    +0.128 C 
ATOM     16  C   UNL     1      -2.637 -10.825  14.007  0.00  0.00    +0.306 C 
ENDROOT
BRANCH  13   7
ATOM      7  C   UNL     1      -6.947  -9.445   9.678  0.00  0.00    +0.075 C 
ATOM      9  C   UNL     1      -7.676  -8.316   9.033  0.00  0.00    +0.013 C 
ATOM     10  C   UNL     1      -7.807  -9.706   8.487  0.00  0.00    +0.013 C 
ENDBRANCH  13   7
BRANCH   5  17
ATOM     17  C   UNL     1      -3.427 -10.738  16.421  0.00  0.00    +0.146 C 
BRANCH  17  18
ATOM      6  N   UNL     1      -6.000 -13.308  17.457  0.00  0.00    -0.263 NA
ATOM     18  C   UNL     1      -4.587 -11.374  17.131  0.00  0.00    -0.012 A 
ATOM     19  C   UNL     1      -5.314 -10.672  18.086  0.00  0.00    +0.008 A 
ATOM     20  C   UNL     1      -4.966 -12.678  16.855  0.00  0.00    +0.115 A 
ATOM     21  C   UNL     1      -6.384 -11.287  18.727  0.00  0.00    +0.020 A 
ATOM     22  C   UNL     1      -6.684 -12.594  18.379  0.00  0.00    +0.111 A 
ENDBRANCH  17  18
ENDBRANCH   5  17
TORSDOF 3
ENDMDL
MODEL 10
REMARK VINA RESULT:      -5.8     26.992     28.952
REMARK  Name = 75536972
REMARK  3 active torsions:
REMARK  status: ('A' for Active; 'I' for Inactive)
REMARK    1  A    between atoms: N_5  and  C_17
REMARK    2  A    between atoms: C_7  and  C_13
REMARK    3  A    between atoms: C_17  and  C_18
REMARK                            x       y       z     vdW  Elec       q    Type
REMARK                         _______ _______ _______ _____ _____    ______ ____
ROOT
ATOM      1  O   UNL     1      -7.937 -11.766  20.082  0.00  0.00    -0.275 OA
ATOM      2  O   UNL     1      -2.382 -10.386  16.108  0.00  0.00    -0.252 OA
ATOM      3  N   UNL     1      -6.266 -12.404  18.595  0.00  0.00    -0.298 N 
ATOM      4  N   UNL     1      -4.395 -11.370  16.814  0.00  0.00    -0.278 N 
ATOM      5  N   UNL     1      -3.317 -12.285  15.067  0.00  0.00    -0.279 N 
ATOM      8  C   UNL     1      -5.283 -12.420  16.344  0.00  0.00    +0.112 C 
ATOM     11  C   UNL     1      -5.767 -13.274  17.514  0.00  0.00    +0.132 C 
ATOM     12  C   UNL     1      -4.446 -13.167  15.309  0.00  0.00    +0.133 C 
ATOM     13  C   UNL     1      -7.535 -12.485  19.170  0.00  0.00    +0.219 C 
ATOM     14  C   UNL     1      -5.301 -11.405  19.079  0.00  0.00    +0.127 C 
ATOM     15  C   UNL     1      -4.795 -10.534  17.932  0.00  0.00    +0.128 C 
ATOM     16  C   UNL     1      -3.257 -11.236  16.007  0.00  0.00    +0.306 C 
ENDROOT
BRANCH  13   7
ATOM      7  C   UNL     1      -8.467 -13.519  18.628  0.00  0.00    +0.075 C 
ATOM      9  C   UNL     1      -9.207 -14.383  19.593  0.00  0.00    +0.013 C 
ATOM     10  C   UNL     1      -9.934 -13.325  18.819  0.00  0.00    +0.013 C 
ENDBRANCH  13   7
BRANCH   5  17
ATOM     17  C   UNL     1      -2.323 -12.572  14.058  0.00  0.00    +0.146 C 
BRANCH  17  18
ATOM      6  N   UNL     1      -2.725 -10.048  11.271  0.00  0.00    -0.263 NA
ATOM     18  C   UNL     1      -2.684 -11.977  12.728  0.00  0.00    -0.012 A 
ATOM     19  C   UNL     1      -3.291 -12.745  11.740  0.00  0.00    +0.008 A 
ATOM     20  C   UNL     1      -2.424 -10.645  12.446  0.00  0.00    +0.115 A 
ATOM     21  C   UNL     1      -3.614 -12.167  10.518  0.00  0.00    +0.020 A 
ATOM     22  C   UNL     1      -3.313 -10.827  10.335  0.00  0.00    +0.111 A 
ENDBRANCH  17  18
ENDBRANCH   5  17
TORSDOF 3
ENDMDL
