MODEL 1
REMARK VINA RESULT:      -7.3      0.000      0.000
REMARK  Name = 26742380
REMARK  7 active torsions:
REMARK  status: ('A' for Active; 'I' for Inactive)
REMARK    1  A    between atoms: N_3  and  C_14
REMARK    2  A    between atoms: N_6  and  C_22
REMARK    3  A    between atoms: C_8  and  C_15
REMARK    4  A    between atoms: C_9  and  C_14
REMARK    5  A    between atoms: C_17  and  C_20
REMARK    6  A    between atoms: C_18  and  C_21
REMARK    7  A    between atoms: C_22  and  C_27
REMARK                            x       y       z     vdW  Elec       q    Type
REMARK                         _______ _______ _______ _____ _____    ______ ____
ROOT
ATOM      2  N   UNL     1     -18.557   3.052  26.644  0.00  0.00    -0.297 NA
ATOM      7  C   UNL     1     -17.268   0.790  26.724  0.00  0.00    +0.002 C 
ATOM      8  C   UNL     1     -17.454   1.361  28.157  0.00  0.00    +0.055 C 
ATOM      9  C   UNL     1     -17.430   3.074  25.675  0.00  0.00    +0.074 C 
ATOM     10  C   UNL     1     -16.532   1.831  25.853  0.00  0.00    +0.024 C 
ATOM     11  C   UNL     1     -18.680   0.614  26.126  0.00  0.00    +0.019 C 
ATOM     12  C   UNL     1     -18.045   2.793  28.013  0.00  0.00    +0.094 C 
ATOM     13  C   UNL     1     -19.457   1.935  26.268  0.00  0.00    +0.085 C 
ENDROOT
BRANCH   8  15
ATOM      4  N   UNL     1     -15.409   0.287  28.963  0.00  0.00    -0.237 NA
ATOM      5  N   UNL     1     -14.119   1.189  30.787  0.00  0.00    -0.232 NA
ATOM     15  C   UNL     1     -16.267   1.319  29.108  0.00  0.00    +0.050 A 
ATOM     16  C   UNL     1     -16.120   2.311  30.056  0.00  0.00    +0.052 A 
ATOM     17  C   UNL     1     -15.016   2.194  30.877  0.00  0.00    +0.075 A 
ATOM     18  C   UNL     1     -14.373   0.285  29.823  0.00  0.00    +0.127 A 
ATOM     21  C   UNL     1     -13.404  -0.841  29.694  0.00  0.00    +0.088 C 
BRANCH  17  20
ATOM     20  C   UNL     1     -14.749   3.166  31.910  0.00  0.00    +0.000 A 
ATOM     23  C   UNL     1     -14.436   4.481  31.566  0.00  0.00    +0.010 A 
ATOM     24  C   UNL     1     -14.802   2.789  33.251  0.00  0.00    +0.010 A 
ATOM     25  C   UNL     1     -14.178   5.420  32.565  0.00  0.00    +0.001 A 
ATOM     26  C   UNL     1     -14.542   3.729  34.250  0.00  0.00    +0.001 A 
ATOM     28  C   UNL     1     -14.231   5.044  33.907  0.00  0.00    +0.000 A 
ENDBRANCH  17  20
ENDBRANCH   8  15
BRANCH   9  14
ATOM     14  C   UNL     1     -16.625   4.374  25.747  0.00  0.00    +0.124 C 
BRANCH  14   3
ATOM      1  O   UNL     1     -16.351   5.457  23.088  0.00  0.00    -0.253 OA
ATOM      3  N   UNL     1     -15.472   4.307  24.905  0.00  0.00    -0.298 N 
ATOM      6  N   UNL     1     -14.175   4.651  23.021  0.00  0.00    -0.300 N 
ATOM     19  C   UNL     1     -15.416   4.861  23.619  0.00  0.00    +0.300 C 
ATOM     29  H   UNL     1     -14.647   3.829  25.255  0.00  0.00    +0.150 HD
ATOM     30  H   UNL     1     -13.467   4.137  23.535  0.00  0.00    +0.150 HD
BRANCH   6  22
ATOM     22  C   UNL     1     -13.858   5.122  21.694  0.00  0.00    +0.102 C 
ATOM     27  C   UNL     1     -12.619   5.994  21.697  0.00  0.00    +0.024 C 
ENDBRANCH   6  22
ENDBRANCH  14   3
ENDBRANCH   9  14
TORSDOF 5
ENDMDL
MODEL 2
REMARK VINA RESULT:      -7.2     19.991     22.703
REMARK  Name = 26742380
REMARK  7 active torsions:
REMARK  status: ('A' for Active; 'I' for Inactive)
REMARK    1  A    between atoms: N_3  and  C_14
REMARK    2  A    between atoms: N_6  and  C_22
REMARK    3  A    between atoms: C_8  and  C_15
REMARK    4  A    between atoms: C_9  and  C_14
REMARK    5  A    between atoms: C_17  and  C_20
REMARK    6  A    between atoms: C_18  and  C_21
REMARK    7  A    between atoms: C_22  and  C_27
REMARK                            x       y       z     vdW  Elec       q    Type
REMARK                         _______ _______ _______ _____ _____    ______ ____
ROOT
ATOM      2  N   UNL     1      -5.550 -10.916  10.563  0.00  0.00    -0.297 NA
ATOM      7  C   UNL     1      -3.180 -11.653  11.351  0.00  0.00    +0.002 C 
ATOM      8  C   UNL     1      -4.209 -11.807  12.504  0.00  0.00    +0.055 C 
ATOM      9  C   UNL     1      -4.551  -9.869  10.218  0.00  0.00    +0.074 C 
ATOM     10  C   UNL     1      -3.183 -10.190  10.856  0.00  0.00    +0.024 C 
ATOM     11  C   UNL     1      -3.684 -12.527  10.183  0.00  0.00    +0.019 C 
ATOM     12  C   UNL     1      -5.542 -11.164  12.025  0.00  0.00    +0.094 C 
ATOM     13  C   UNL     1      -5.150 -12.169   9.878  0.00  0.00    +0.085 C 
ENDROOT
BRANCH   8  15
ATOM      4  N   UNL     1      -2.520 -10.966  14.061  0.00  0.00    -0.237 NA
ATOM      5  N   UNL     1      -3.026 -10.483  16.367  0.00  0.00    -0.232 NA
ATOM     15  C   UNL     1      -3.807 -11.335  13.894  0.00  0.00    +0.050 A 
ATOM     16  C   UNL     1      -4.750 -11.307  14.902  0.00  0.00    +0.052 A 
ATOM     17  C   UNL     1      -4.298 -10.868  16.130  0.00  0.00    +0.075 A 
ATOM     18  C   UNL     1      -2.202 -10.557  15.304  0.00  0.00    +0.127 A 
ATOM     21  C   UNL     1      -0.788 -10.142  15.527  0.00  0.00    +0.088 C 
BRANCH  17  20
ATOM     20  C   UNL     1      -5.184 -10.792  17.267  0.00  0.00    +0.000 A 
ATOM     23  C   UNL     1      -4.789 -11.324  18.495  0.00  0.00    +0.010 A 
ATOM     24  C   UNL     1      -6.434 -10.189  17.137  0.00  0.00    +0.010 A 
ATOM     25  C   UNL     1      -5.645 -11.252  19.593  0.00  0.00    +0.001 A 
ATOM     26  C   UNL     1      -7.291 -10.117  18.237  0.00  0.00    +0.001 A 
ATOM     28  C   UNL     1      -6.896 -10.648  19.465  0.00  0.00    +0.000 A 
ENDBRANCH  17  20
ENDBRANCH   8  15
BRANCH   9  14
ATOM     14  C   UNL     1      -5.034  -8.463  10.578  0.00  0.00    +0.124 C 
BRANCH  14   3
ATOM      1  O   UNL     1      -7.800  -8.474   9.762  0.00  0.00    -0.253 OA
ATOM      3  N   UNL     1      -5.598  -7.809   9.438  0.00  0.00    -0.298 N 
ATOM      6  N   UNL     1      -7.235  -7.139   7.949  0.00  0.00    -0.300 N 
ATOM     19  C   UNL     1      -6.958  -7.862   9.107  0.00  0.00    +0.300 C 
ATOM     29  H   UNL     1      -4.978  -7.280   8.831  0.00  0.00    +0.150 HD
ATOM     30  H   UNL     1      -6.471  -6.675   7.469  0.00  0.00    +0.150 HD
BRANCH   6  22
ATOM     22  C   UNL     1      -8.563  -7.034   7.392  0.00  0.00    +0.102 C 
ATOM     27  C   UNL     1      -9.335  -5.888   8.013  0.00  0.00    +0.024 C 
ENDBRANCH   6  22
ENDBRANCH  14   3
ENDBRANCH   9  14
TORSDOF 5
ENDMDL
MODEL 3
REMARK VINA RESULT:      -7.2     19.173     21.976
REMARK  Name = 26742380
REMARK  7 active torsions:
REMARK  status: ('A' for Active; 'I' for Inactive)
REMARK    1  A    between atoms: N_3  and  C_14
REMARK    2  A    between atoms: N_6  and  C_22
REMARK    3  A    between atoms: C_8  and  C_15
REMARK    4  A    between atoms: C_9  and  C_14
REMARK    5  A    between atoms: C_17  and  C_20
REMARK    6  A    between atoms: C_18  and  C_21
REMARK    7  A    between atoms: C_22  and  C_27
REMARK                            x       y       z     vdW  Elec       q    Type
REMARK                         _______ _______ _______ _____ _____    ______ ____
ROOT
ATOM      2  N   UNL     1      -6.236 -11.234  10.889  0.00  0.00    -0.297 NA
ATOM      7  C   UNL     1      -4.294  -9.608  11.493  0.00  0.00    +0.002 C 
ATOM      8  C   UNL     1      -4.143 -10.946  12.267  0.00  0.00    +0.055 C 
ATOM      9  C   UNL     1      -6.784  -9.900  11.252  0.00  0.00    +0.074 C 
ATOM     10  C   UNL     1      -5.671  -8.988  11.811  0.00  0.00    +0.024 C 
ATOM     11  C   UNL     1      -4.290  -9.958   9.990  0.00  0.00    +0.019 C 
ATOM     12  C   UNL     1      -5.434 -11.777  12.012  0.00  0.00    +0.094 C 
ATOM     13  C   UNL     1      -5.338 -11.054   9.723  0.00  0.00    +0.085 C 
ENDROOT
BRANCH   8  15
ATOM      4  N   UNL     1      -2.504 -10.551  14.039  0.00  0.00    -0.237 NA
ATOM      5  N   UNL     1      -3.061 -10.765  16.374  0.00  0.00    -0.232 NA
ATOM     15  C   UNL     1      -3.777 -10.886  13.743  0.00  0.00    +0.050 A 
ATOM     16  C   UNL     1      -4.737 -11.171  14.694  0.00  0.00    +0.052 A 
ATOM     17  C   UNL     1      -4.317 -11.094  16.007  0.00  0.00    +0.075 A 
ATOM     18  C   UNL     1      -2.219 -10.510  15.355  0.00  0.00    +0.127 A 
ATOM     21  C   UNL     1      -0.821 -10.144  15.721  0.00  0.00    +0.088 C 
BRANCH  17  20
ATOM     20  C   UNL     1      -5.223 -11.370  17.096  0.00  0.00    +0.000 A 
ATOM     23  C   UNL     1      -5.088 -10.687  18.305  0.00  0.00    +0.010 A 
ATOM     24  C   UNL     1      -6.232 -12.320  16.940  0.00  0.00    +0.010 A 
ATOM     25  C   UNL     1      -5.963 -10.954  19.358  0.00  0.00    +0.001 A 
ATOM     26  C   UNL     1      -7.106 -12.587  17.994  0.00  0.00    +0.001 A 
ATOM     28  C   UNL     1      -6.973 -11.903  19.202  0.00  0.00    +0.000 A 
ENDBRANCH  17  20
ENDBRANCH   8  15
BRANCH   9  14
ATOM     14  C   UNL     1      -7.974 -10.000  12.209  0.00  0.00    +0.124 C 
BRANCH  14   3
ATOM      1  O   UNL     1      -9.311 -10.500  14.716  0.00  0.00    -0.253 OA
ATOM      3  N   UNL     1      -7.653  -9.437  13.483  0.00  0.00    -0.298 N 
ATOM      6  N   UNL     1      -7.831  -9.045  15.755  0.00  0.00    -0.300 N 
ATOM     19  C   UNL     1      -8.353  -9.730  14.660  0.00  0.00    +0.300 C 
ATOM     29  H   UNL     1      -6.877  -8.784  13.539  0.00  0.00    +0.150 HD
ATOM     30  H   UNL     1      -7.044  -8.421  15.610  0.00  0.00    +0.150 HD
BRANCH   6  22
ATOM     22  C   UNL     1      -8.372  -9.172  17.087  0.00  0.00    +0.102 C 
ATOM     27  C   UNL     1      -9.539  -8.230  17.304  0.00  0.00    +0.024 C 
ENDBRANCH   6  22
ENDBRANCH  14   3
ENDBRANCH   9  14
TORSDOF 5
ENDMDL
MODEL 4
REMARK VINA RESULT:      -7.1     19.071     22.282
REMARK  Name = 26742380
REMARK  7 active torsions:
REMARK  status: ('A' for Active; 'I' for Inactive)
REMARK    1  A    between atoms: N_3  and  C_14
REMARK    2  A    between atoms: N_6  and  C_22
REMARK    3  A    between atoms: C_8  and  C_15
REMARK    4  A    between atoms: C_9  and  C_14
REMARK    5  A    between atoms: C_17  and  C_20
REMARK    6  A    between atoms: C_18  and  C_21
REMARK    7  A    between atoms: C_22  and  C_27
REMARK                            x       y       z     vdW  Elec       q    Type
REMARK                         _______ _______ _______ _____ _____    ______ ____
ROOT
ATOM      2  N   UNL     1      -6.188 -10.266  17.762  0.00  0.00    -0.297 NA
ATOM      7  C   UNL     1      -4.864 -12.465  17.324  0.00  0.00    +0.002 C 
ATOM      8  C   UNL     1      -4.174 -11.265  16.619  0.00  0.00    +0.055 C 
ATOM      9  C   UNL     1      -7.113 -11.332  17.293  0.00  0.00    +0.074 C 
ATOM     10  C   UNL     1      -6.323 -12.575  16.832  0.00  0.00    +0.024 C 
ATOM     11  C   UNL     1      -4.917 -12.128  18.829  0.00  0.00    +0.019 C 
ATOM     12  C   UNL     1      -5.122 -10.039  16.756  0.00  0.00    +0.094 C 
ATOM     13  C   UNL     1      -5.550 -10.738  19.014  0.00  0.00    +0.085 C 
ENDROOT
BRANCH   8  15
ATOM      4  N   UNL     1      -2.790 -12.451  14.987  0.00  0.00    -0.237 NA
ATOM      5  N   UNL     1      -2.753 -11.846  12.654  0.00  0.00    -0.232 NA
ATOM     15  C   UNL     1      -3.679 -11.457  15.192  0.00  0.00    +0.050 A 
ATOM     16  C   UNL     1      -4.146 -10.626  14.194  0.00  0.00    +0.052 A 
ATOM     17  C   UNL     1      -3.644 -10.869  12.931  0.00  0.00    +0.075 A 
ATOM     18  C   UNL     1      -2.375 -12.588  13.712  0.00  0.00    +0.127 A 
ATOM     21  C   UNL     1      -1.392 -13.675  13.447  0.00  0.00    +0.088 C 
BRANCH  17  20
ATOM     20  C   UNL     1      -4.050 -10.071  11.800  0.00  0.00    +0.000 A 
ATOM     23  C   UNL     1      -5.324  -9.501  11.771  0.00  0.00    +0.010 A 
ATOM     24  C   UNL     1      -3.171  -9.870  10.737  0.00  0.00    +0.010 A 
ATOM     25  C   UNL     1      -5.717  -8.729  10.678  0.00  0.00    +0.001 A 
ATOM     26  C   UNL     1      -3.566  -9.098   9.643  0.00  0.00    +0.001 A 
ATOM     28  C   UNL     1      -4.839  -8.527   9.614  0.00  0.00    +0.000 A 
ENDBRANCH  17  20
ENDBRANCH   8  15
BRANCH   9  14
ATOM     14  C   UNL     1      -8.075 -10.834  16.212  0.00  0.00    +0.124 C 
BRANCH  14   3
ATOM      1  O   UNL     1      -9.477  -9.026  14.456  0.00  0.00    -0.253 OA
ATOM      3  N   UNL     1      -8.579  -9.536  16.537  0.00  0.00    -0.298 N 
ATOM      6  N   UNL     1      -9.634  -7.505  16.203  0.00  0.00    -0.300 N 
ATOM     19  C   UNL     1      -9.253  -8.714  15.625  0.00  0.00    +0.300 C 
ATOM     29  H   UNL     1      -8.438  -9.187  17.480  0.00  0.00    +0.150 HD
ATOM     30  H   UNL     1      -9.393  -7.332  17.174  0.00  0.00    +0.150 HD
BRANCH   6  22
ATOM     22  C   UNL     1     -10.343  -6.480  15.476  0.00  0.00    +0.102 C 
ATOM     27  C   UNL     1     -11.653  -6.126  16.151  0.00  0.00    +0.024 C 
ENDBRANCH   6  22
ENDBRANCH  14   3
ENDBRANCH   9  14
TORSDOF 5
ENDMDL
MODEL 5
REMARK VINA RESULT:      -7.0     20.495     23.566
REMARK  Name = 26742380
REMARK  7 active torsions:
REMARK  status: ('A' for Active; 'I' for Inactive)
REMARK    1  A    between atoms: N_3  and  C_14
REMARK    2  A    between atoms: N_6  and  C_22
REMARK    3  A    between atoms: C_8  and  C_15
REMARK    4  A    between atoms: C_9  and  C_14
REMARK    5  A    between atoms: C_17  and  C_20
REMARK    6  A    between atoms: C_18  and  C_21
REMARK    7  A    between atoms: C_22  and  C_27
REMARK                            x       y       z     vdW  Elec       q    Type
REMARK                         _______ _______ _______ _____ _____    ______ ____
ROOT
ATOM      2  N   UNL     1      -7.468 -11.762  17.537  0.00  0.00    -0.297 NA
ATOM      7  C   UNL     1      -5.146 -10.883  18.322  0.00  0.00    +0.002 C 
ATOM      8  C   UNL     1      -5.448 -10.406  16.875  0.00  0.00    +0.055 C 
ATOM      9  C   UNL     1      -6.664 -12.880  18.097  0.00  0.00    +0.074 C 
ATOM     10  C   UNL     1      -5.216 -12.424  18.375  0.00  0.00    +0.024 C 
ATOM     11  C   UNL     1      -6.284 -10.346  19.215  0.00  0.00    +0.019 C 
ATOM     12  C   UNL     1      -6.743 -11.130  16.408  0.00  0.00    +0.094 C 
ATOM     13  C   UNL     1      -7.639 -10.747  18.604  0.00  0.00    +0.085 C 
ENDROOT
BRANCH   8  15
ATOM      4  N   UNL     1      -3.069 -10.419  16.307  0.00  0.00    -0.237 NA
ATOM      5  N   UNL     1      -2.292 -10.641  14.036  0.00  0.00    -0.232 NA
ATOM     15  C   UNL     1      -4.333 -10.493  15.842  0.00  0.00    +0.050 A 
ATOM     16  C   UNL     1      -4.653 -10.639  14.507  0.00  0.00    +0.052 A 
ATOM     17  C   UNL     1      -3.581 -10.708  13.640  0.00  0.00    +0.075 A 
ATOM     18  C   UNL     1      -2.111 -10.498  15.362  0.00  0.00    +0.127 A 
ATOM     21  C   UNL     1      -0.700 -10.419  15.838  0.00  0.00    +0.088 C 
BRANCH  17  20
ATOM     20  C   UNL     1      -3.780 -10.859  12.219  0.00  0.00    +0.000 A 
ATOM     23  C   UNL     1      -3.658 -12.117  11.628  0.00  0.00    +0.010 A 
ATOM     24  C   UNL     1      -4.092  -9.748  11.437  0.00  0.00    +0.010 A 
ATOM     25  C   UNL     1      -3.850 -12.263  10.254  0.00  0.00    +0.001 A 
ATOM     26  C   UNL     1      -4.284  -9.894  10.063  0.00  0.00    +0.001 A 
ATOM     28  C   UNL     1      -4.163 -11.152   9.471  0.00  0.00    +0.000 A 
ENDBRANCH  17  20
ENDBRANCH   8  15
BRANCH   9  14
ATOM     14  C   UNL     1      -6.709 -14.129  17.214  0.00  0.00    +0.124 C 
BRANCH  14   3
ATOM      1  O   UNL     1      -5.578 -14.424  14.577  0.00  0.00    -0.253 OA
ATOM      3  N   UNL     1      -5.389 -14.572  16.888  0.00  0.00    -0.298 N 
ATOM      6  N   UNL     1      -3.594 -15.141  15.546  0.00  0.00    -0.300 N 
ATOM     19  C   UNL     1      -4.912 -14.689  15.577  0.00  0.00    +0.300 C 
ATOM     29  H   UNL     1      -4.763 -14.819  17.648  0.00  0.00    +0.150 HD
ATOM     30  H   UNL     1      -3.128 -15.345  16.424  0.00  0.00    +0.150 HD
BRANCH   6  22
ATOM     22  C   UNL     1      -2.867 -15.347  14.316  0.00  0.00    +0.102 C 
ATOM     27  C   UNL     1      -1.902 -14.212  14.046  0.00  0.00    +0.024 C 
ENDBRANCH   6  22
ENDBRANCH  14   3
ENDBRANCH   9  14
TORSDOF 5
ENDMDL
MODEL 6
REMARK VINA RESULT:      -6.9     32.624     36.883
REMARK  Name = 26742380
REMARK  7 active torsions:
REMARK  status: ('A' for Active; 'I' for Inactive)
REMARK    1  A    between atoms: N_3  and  C_14
REMARK    2  A    between atoms: N_6  and  C_22
REMARK    3  A    between atoms: C_8  and  C_15
REMARK    4  A    between atoms: C_9  and  C_14
REMARK    5  A    between atoms: C_17  and  C_20
REMARK    6  A    between atoms: C_18  and  C_21
REMARK    7  A    between atoms: C_22  and  C_27
REMARK                            x       y       z     vdW  Elec       q    Type
REMARK                         _______ _______ _______ _____ _____    ______ ____
ROOT
ATOM      2  N   UNL     1      10.567   5.702   7.778  0.00  0.00    -0.297 NA
ATOM      7  C   UNL     1       9.352   7.697   6.628  0.00  0.00    +0.002 C 
ATOM      8  C   UNL     1       9.248   6.418   5.752  0.00  0.00    +0.055 C 
ATOM      9  C   UNL     1      11.459   6.891   7.748  0.00  0.00    +0.074 C 
ATOM     10  C   UNL     1      10.839   8.015   6.890  0.00  0.00    +0.024 C 
ATOM     11  C   UNL     1       8.713   7.357   7.991  0.00  0.00    +0.019 C 
ATOM     12  C   UNL     1      10.159   5.336   6.400  0.00  0.00    +0.094 C 
ATOM     13  C   UNL     1       9.349   6.068   8.540  0.00  0.00    +0.085 C 
ENDROOT
BRANCH   8  15
ATOM      4  N   UNL     1       8.831   7.550   3.623  0.00  0.00    -0.237 NA
ATOM      5  N   UNL     1       9.867   6.838   1.567  0.00  0.00    -0.232 NA
ATOM     15  C   UNL     1       9.484   6.551   4.254  0.00  0.00    +0.050 A 
ATOM     16  C   UNL     1      10.333   5.668   3.619  0.00  0.00    +0.052 A 
ATOM     17  C   UNL     1      10.489   5.861   2.261  0.00  0.00    +0.075 A 
ATOM     18  C   UNL     1       9.065   7.634   2.299  0.00  0.00    +0.127 A 
ATOM     21  C   UNL     1       8.360   8.724   1.568  0.00  0.00    +0.088 C 
BRANCH  17  20
ATOM     20  C   UNL     1      11.348   5.004   1.479  0.00  0.00    +0.000 A 
ATOM     23  C   UNL     1      12.080   3.994   2.105  0.00  0.00    +0.010 A 
ATOM     24  C   UNL     1      11.446   5.186   0.101  0.00  0.00    +0.010 A 
ATOM     25  C   UNL     1      12.911   3.166   1.350  0.00  0.00    +0.001 A 
ATOM     26  C   UNL     1      12.278   4.358  -0.654  0.00  0.00    +0.001 A 
ATOM     28  C   UNL     1      13.010   3.347  -0.030  0.00  0.00    +0.000 A 
ENDBRANCH  17  20
ENDBRANCH   8  15
BRANCH   9  14
ATOM     14  C   UNL     1      12.878   6.543   7.293  0.00  0.00    +0.124 C 
BRANCH  14   3
ATOM      1  O   UNL     1      15.096   7.469   5.697  0.00  0.00    -0.253 OA
ATOM      3  N   UNL     1      12.972   6.543   5.866  0.00  0.00    -0.298 N 
ATOM      6  N   UNL     1      13.912   6.897   3.784  0.00  0.00    -0.300 N 
ATOM     19  C   UNL     1      14.087   7.012   5.161  0.00  0.00    +0.300 C 
ATOM     29  H   UNL     1      12.184   6.188   5.332  0.00  0.00    +0.150 HD
ATOM     30  H   UNL     1      13.039   6.517   3.433  0.00  0.00    +0.150 HD
BRANCH   6  22
ATOM     22  C   UNL     1      14.916   7.310   2.831  0.00  0.00    +0.102 C 
ATOM     27  C   UNL     1      15.026   6.329   1.682  0.00  0.00    +0.024 C 
ENDBRANCH   6  22
ENDBRANCH  14   3
ENDBRANCH   9  14
TORSDOF 5
ENDMDL
MODEL 7
REMARK VINA RESULT:      -6.8     33.094     37.307
REMARK  Name = 26742380
REMARK  7 active torsions:
REMARK  status: ('A' for Active; 'I' for Inactive)
REMARK    1  A    between atoms: N_3  and  C_14
REMARK    2  A    between atoms: N_6  and  C_22
REMARK    3  A    between atoms: C_8  and  C_15
REMARK    4  A    between atoms: C_9  and  C_14
REMARK    5  A    between atoms: C_17  and  C_20
REMARK    6  A    between atoms: C_18  and  C_21
REMARK    7  A    between atoms: C_22  and  C_27
REMARK                            x       y       z     vdW  Elec       q    Type
REMARK                         _______ _______ _______ _____ _____    ______ ____
ROOT
ATOM      2  N   UNL     1      13.536   5.414  -0.161  0.00  0.00    -0.297 NA
ATOM      7  C   UNL     1      12.127   3.949   1.466  0.00  0.00    +0.002 C 
ATOM      8  C   UNL     1      11.298   5.168   0.977  0.00  0.00    +0.055 C 
ATOM      9  C   UNL     1      14.313   5.138   1.076  0.00  0.00    +0.074 C 
ATOM     10  C   UNL     1      13.425   4.449   2.135  0.00  0.00    +0.024 C 
ATOM     11  C   UNL     1      12.541   3.157   0.208  0.00  0.00    +0.019 C 
ATOM     12  C   UNL     1      12.262   6.094   0.179  0.00  0.00    +0.094 C 
ATOM     13  C   UNL     1      13.212   4.113  -0.794  0.00  0.00    +0.085 C 
ENDROOT
BRANCH   8  15
ATOM      4  N   UNL     1       9.761   6.984   1.542  0.00  0.00    -0.237 NA
ATOM      5  N   UNL     1       8.982   7.353   3.793  0.00  0.00    -0.232 NA
ATOM     15  C   UNL     1      10.475   5.936   2.001  0.00  0.00    +0.050 A 
ATOM     16  C   UNL     1      10.495   5.539   3.323  0.00  0.00    +0.052 A 
ATOM     17  C   UNL     1       9.721   6.293   4.184  0.00  0.00    +0.075 A 
ATOM     18  C   UNL     1       9.047   7.639   2.479  0.00  0.00    +0.127 A 
ATOM     21  C   UNL     1       8.245   8.804   2.010  0.00  0.00    +0.088 C 
BRANCH  17  20
ATOM     20  C   UNL     1       9.656   5.984   5.592  0.00  0.00    +0.000 A 
ATOM     23  C   UNL     1       9.314   6.979   6.508  0.00  0.00    +0.010 A 
ATOM     24  C   UNL     1       9.935   4.692   6.035  0.00  0.00    +0.010 A 
ATOM     25  C   UNL     1       9.251   6.680   7.870  0.00  0.00    +0.001 A 
ATOM     26  C   UNL     1       9.872   4.394   7.397  0.00  0.00    +0.001 A 
ATOM     28  C   UNL     1       9.530   5.388   8.314  0.00  0.00    +0.000 A 
ENDBRANCH  17  20
ENDBRANCH   8  15
BRANCH   9  14
ATOM     14  C   UNL     1      14.993   6.392   1.629  0.00  0.00    +0.124 C 
BRANCH  14   3
ATOM      1  O   UNL     1      13.813   8.079   3.650  0.00  0.00    -0.253 OA
ATOM      3  N   UNL     1      15.171   6.293   3.045  0.00  0.00    -0.298 N 
ATOM      6  N   UNL     1      14.906   6.834   5.277  0.00  0.00    -0.300 N 
ATOM     19  C   UNL     1      14.561   7.154   3.965  0.00  0.00    +0.300 C 
ATOM     29  H   UNL     1      15.777   5.561   3.403  0.00  0.00    +0.150 HD
ATOM     30  H   UNL     1      15.540   6.059   5.439  0.00  0.00    +0.150 HD
BRANCH   6  22
ATOM     22  C   UNL     1      14.411   7.569   6.416  0.00  0.00    +0.102 C 
ATOM     27  C   UNL     1      13.142   6.951   6.966  0.00  0.00    +0.024 C 
ENDBRANCH   6  22
ENDBRANCH  14   3
ENDBRANCH   9  14
TORSDOF 5
ENDMDL
MODEL 8
REMARK VINA RESULT:      -6.7      5.171      8.599
REMARK  Name = 26742380
REMARK  7 active torsions:
REMARK  status: ('A' for Active; 'I' for Inactive)
REMARK    1  A    between atoms: N_3  and  C_14
REMARK    2  A    between atoms: N_6  and  C_22
REMARK    3  A    between atoms: C_8  and  C_15
REMARK    4  A    between atoms: C_9  and  C_14
REMARK    5  A    between atoms: C_17  and  C_20
REMARK    6  A    between atoms: C_18  and  C_21
REMARK    7  A    between atoms: C_22  and  C_27
REMARK                            x       y       z     vdW  Elec       q    Type
REMARK                         _______ _______ _______ _____ _____    ______ ____
ROOT
ATOM      2  N   UNL     1     -15.291   5.074  31.995  0.00  0.00    -0.297 NA
ATOM      7  C   UNL     1     -15.042   5.526  34.548  0.00  0.00    +0.002 C 
ATOM      8  C   UNL     1     -14.751   6.818  33.736  0.00  0.00    +0.055 C 
ATOM      9  C   UNL     1     -14.422   4.038  32.612  0.00  0.00    +0.074 C 
ATOM     10  C   UNL     1     -14.094   4.403  34.076  0.00  0.00    +0.024 C 
ATOM     11  C   UNL     1     -16.478   5.088  34.189  0.00  0.00    +0.019 C 
ATOM     12  C   UNL     1     -14.721   6.423  32.231  0.00  0.00    +0.094 C 
ATOM     13  C   UNL     1     -16.616   5.010  32.658  0.00  0.00    +0.085 C 
ENDROOT
BRANCH   8  15
ATOM      4  N   UNL     1     -13.076   7.490  35.387  0.00  0.00    -0.237 NA
ATOM      5  N   UNL     1     -11.398   9.153  34.910  0.00  0.00    -0.232 NA
ATOM     15  C   UNL     1     -13.550   7.663  34.136  0.00  0.00    +0.050 A 
ATOM     16  C   UNL     1     -13.009   8.549  33.226  0.00  0.00    +0.052 A 
ATOM     17  C   UNL     1     -11.923   9.276  33.673  0.00  0.00    +0.075 A 
ATOM     18  C   UNL     1     -12.014   8.256  35.703  0.00  0.00    +0.127 A 
ATOM     21  C   UNL     1     -11.463   8.094  37.079  0.00  0.00    +0.088 C 
BRANCH  17  20
ATOM     20  C   UNL     1     -11.268  10.237  32.820  0.00  0.00    +0.000 A 
ATOM     23  C   UNL     1     -10.124  10.900  33.267  0.00  0.00    +0.010 A 
ATOM     24  C   UNL     1     -11.777  10.504  31.550  0.00  0.00    +0.010 A 
ATOM     25  C   UNL     1      -9.490  11.830  32.443  0.00  0.00    +0.001 A 
ATOM     26  C   UNL     1     -11.143  11.435  30.726  0.00  0.00    +0.001 A 
ATOM     28  C   UNL     1      -9.999  12.097  31.172  0.00  0.00    +0.000 A 
ENDBRANCH  17  20
ENDBRANCH   8  15
BRANCH   9  14
ATOM     14  C   UNL     1     -13.157   3.776  31.793  0.00  0.00    +0.124 C 
BRANCH  14   3
ATOM      1  O   UNL     1     -14.436   2.299  29.670  0.00  0.00    -0.253 OA
ATOM      3  N   UNL     1     -13.015   2.382  31.506  0.00  0.00    -0.298 N 
ATOM      6  N   UNL     1     -13.355   0.379  30.401  0.00  0.00    -0.300 N 
ATOM     19  C   UNL     1     -13.672   1.735  30.452  0.00  0.00    +0.300 C 
ATOM     29  H   UNL     1     -12.407   1.827  32.102  0.00  0.00    +0.150 HD
ATOM     30  H   UNL     1     -12.723  -0.000  31.098  0.00  0.00    +0.150 HD
BRANCH   6  22
ATOM     22  C   UNL     1     -13.901  -0.514  29.408  0.00  0.00    +0.102 C 
ATOM     27  C   UNL     1     -12.920  -1.612  29.051  0.00  0.00    +0.024 C 
ENDBRANCH   6  22
ENDBRANCH  14   3
ENDBRANCH   9  14
TORSDOF 5
ENDMDL
MODEL 9
REMARK VINA RESULT:      -6.6     19.068     22.362
REMARK  Name = 26742380
REMARK  7 active torsions:
REMARK  status: ('A' for Active; 'I' for Inactive)
REMARK    1  A    between atoms: N_3  and  C_14
REMARK    2  A    between atoms: N_6  and  C_22
REMARK    3  A    between atoms: C_8  and  C_15
REMARK    4  A    between atoms: C_9  and  C_14
REMARK    5  A    between atoms: C_17  and  C_20
REMARK    6  A    between atoms: C_18  and  C_21
REMARK    7  A    between atoms: C_22  and  C_27
REMARK                            x       y       z     vdW  Elec       q    Type
REMARK                         _______ _______ _______ _____ _____    ______ ____
ROOT
ATOM      2  N   UNL     1      -6.372 -10.351  17.811  0.00  0.00    -0.297 NA
ATOM      7  C   UNL     1      -4.713 -12.338  17.522  0.00  0.00    +0.002 C 
ATOM      8  C   UNL     1      -4.239 -11.109  16.697  0.00  0.00    +0.055 C 
ATOM      9  C   UNL     1      -7.117 -11.590  17.462  0.00  0.00    +0.074 C 
ATOM     10  C   UNL     1      -6.142 -12.725  17.085  0.00  0.00    +0.024 C 
ATOM     11  C   UNL     1      -4.796 -11.882  18.994  0.00  0.00    +0.019 C 
ATOM     12  C   UNL     1      -5.373 -10.045  16.758  0.00  0.00    +0.094 C 
ATOM     13  C   UNL     1      -5.645 -10.601  19.079  0.00  0.00    +0.085 C 
ENDROOT
BRANCH   8  15
ATOM      4  N   UNL     1      -2.860 -12.350  15.102  0.00  0.00    -0.237 NA
ATOM      5  N   UNL     1      -2.814 -11.811  12.753  0.00  0.00    -0.232 NA
ATOM     15  C   UNL     1      -3.743 -11.344  15.278  0.00  0.00    +0.050 A 
ATOM     16  C   UNL     1      -4.202 -10.539  14.255  0.00  0.00    +0.052 A 
ATOM     17  C   UNL     1      -3.699 -10.821  13.001  0.00  0.00    +0.075 A 
ATOM     18  C   UNL     1      -2.444 -12.525  13.833  0.00  0.00    +0.127 A 
ATOM     21  C   UNL     1      -1.467 -13.626  13.600  0.00  0.00    +0.088 C 
BRANCH  17  20
ATOM     20  C   UNL     1      -4.098 -10.052  11.847  0.00  0.00    +0.000 A 
ATOM     23  C   UNL     1      -3.210  -9.878  10.784  0.00  0.00    +0.010 A 
ATOM     24  C   UNL     1      -5.369  -9.483  11.794  0.00  0.00    +0.010 A 
ATOM     25  C   UNL     1      -3.596  -9.134   9.669  0.00  0.00    +0.001 A 
ATOM     26  C   UNL     1      -5.754  -8.739  10.678  0.00  0.00    +0.001 A 
ATOM     28  C   UNL     1      -4.868  -8.565   9.616  0.00  0.00    +0.000 A 
ENDBRANCH  17  20
ENDBRANCH   8  15
BRANCH   9  14
ATOM     14  C   UNL     1      -8.165 -11.351  16.373  0.00  0.00    +0.124 C 
BRANCH  14   3
ATOM      1  O   UNL     1      -9.564  -9.185  17.665  0.00  0.00    -0.253 OA
ATOM      3  N   UNL     1      -9.486 -11.384  16.920  0.00  0.00    -0.298 N 
ATOM      6  N   UNL     1     -11.384 -10.593  17.977  0.00  0.00    -0.300 N 
ATOM     19  C   UNL     1     -10.099 -10.285  17.534  0.00  0.00    +0.300 C 
ATOM     29  H   UNL     1     -10.008 -12.254  16.864  0.00  0.00    +0.150 HD
ATOM     30  H   UNL     1     -11.737 -11.533  17.834  0.00  0.00    +0.150 HD
BRANCH   6  22
ATOM     22  C   UNL     1     -12.231  -9.633  18.645  0.00  0.00    +0.102 C 
ATOM     27  C   UNL     1     -12.296  -9.894  20.136  0.00  0.00    +0.024 C 
ENDBRANCH   6  22
ENDBRANCH  14   3
ENDBRANCH   9  14
TORSDOF 5
ENDMDL
MODEL 10
REMARK VINA RESULT:      -6.6     32.712     36.072
REMARK  Name = 26742380
REMARK  7 active torsions:
REMARK  status: ('A' for Active; 'I' for Inactive)
REMARK    1  A    between atoms: N_3  and  C_14
REMARK    2  A    between atoms: N_6  and  C_22
REMARK    3  A    between atoms: C_8  and  C_15
REMARK    4  A    between atoms: C_9  and  C_14
REMARK    5  A    between atoms: C_17  and  C_20
REMARK    6  A    between atoms: C_18  and  C_21
REMARK    7  A    between atoms: C_22  and  C_27
REMARK                            x       y       z     vdW  Elec       q    Type
REMARK                         _______ _______ _______ _____ _____    ______ ____
ROOT
ATOM      2  N   UNL     1      10.724   7.087   7.671  0.00  0.00    -0.297 NA
ATOM      7  C   UNL     1       9.199   5.416   6.381  0.00  0.00    +0.002 C 
ATOM      8  C   UNL     1      10.479   5.729   5.559  0.00  0.00    +0.055 C 
ATOM      9  C   UNL     1       9.329   7.602   7.625  0.00  0.00    +0.074 C 
ATOM     10  C   UNL     1       8.458   6.734   6.692  0.00  0.00    +0.024 C 
ATOM     11  C   UNL     1       9.666   4.828   7.730  0.00  0.00    +0.019 C 
ATOM     12  C   UNL     1      11.233   6.875   6.293  0.00  0.00    +0.094 C 
ATOM     13  C   UNL     1      10.701   5.776   8.363  0.00  0.00    +0.085 C 
ENDROOT
BRANCH   8  15
ATOM      4  N   UNL     1       9.590   7.071   3.717  0.00  0.00    -0.237 NA
ATOM      5  N   UNL     1      10.023   6.529   1.409  0.00  0.00    -0.232 NA
ATOM     15  C   UNL     1      10.330   5.998   4.069  0.00  0.00    +0.050 A 
ATOM     16  C   UNL     1      10.939   5.155   3.161  0.00  0.00    +0.052 A 
ATOM     17  C   UNL     1      10.749   5.472   1.831  0.00  0.00    +0.075 A 
ATOM     18  C   UNL     1       9.480   7.274   2.390  0.00  0.00    +0.127 A 
ATOM     21  C   UNL     1       8.669   8.450   1.963  0.00  0.00    +0.088 C 
BRANCH  17  20
ATOM     20  C   UNL     1      11.332   4.670   0.783  0.00  0.00    +0.000 A 
ATOM     23  C   UNL     1      10.698   4.576  -0.457  0.00  0.00    +0.010 A 
ATOM     24  C   UNL     1      12.526   3.988   1.009  0.00  0.00    +0.010 A 
ATOM     25  C   UNL     1      11.261   3.800  -1.470  0.00  0.00    +0.001 A 
ATOM     26  C   UNL     1      13.088   3.211  -0.005  0.00  0.00    +0.001 A 
ATOM     28  C   UNL     1      12.456   3.117  -1.244  0.00  0.00    +0.000 A 
ENDBRANCH  17  20
ENDBRANCH   8  15
BRANCH   9  14
ATOM     14  C   UNL     1       9.268   9.084   7.248  0.00  0.00    +0.124 C 
BRANCH  14   3
ATOM      1  O   UNL     1      11.716  10.353   8.096  0.00  0.00    -0.253 OA
ATOM      3  N   UNL     1       9.455   9.912   8.399  0.00  0.00    -0.298 N 
ATOM      6  N   UNL     1      10.581  11.250   9.911  0.00  0.00    -0.300 N 
ATOM     19  C   UNL     1      10.681  10.494   8.745  0.00  0.00    +0.300 C 
ATOM     29  H   UNL     1       8.657  10.084   9.003  0.00  0.00    +0.150 HD
ATOM     30  H   UNL     1       9.685  11.299  10.386  0.00  0.00    +0.150 HD
BRANCH   6  22
ATOM     22  C   UNL     1      11.703  11.955  10.484  0.00  0.00    +0.102 C 
ATOM     27  C   UNL     1      11.497  12.218  11.962  0.00  0.00    +0.024 C 
ENDBRANCH   6  22
ENDBRANCH  14   3
ENDBRANCH   9  14
TORSDOF 5
ENDMDL
