REMARK  Name = 75536732
REMARK  10 active torsions:
REMARK  status: ('A' for Active; 'I' for Inactive)
REMARK    1  A    between atoms: O_2  and  C_9
REMARK    2  A    between atoms: O_4  and  C_16
REMARK    3  A    between atoms: N_5  and  C_8
REMARK    4  A    between atoms: N_5  and  C_13
REMARK    5  A    between atoms: N_6  and  C_12
REMARK    6  A    between atoms: N_7  and  C_18
REMARK    7  A    between atoms: C_10  and  C_12
REMARK    8  A    between atoms: C_13  and  C_14
REMARK    9  A    between atoms: C_18  and  C_21
REMARK   10  A    between atoms: C_18  and  C_22
REMARK                            x       y       z     vdW  Elec       q    Type
REMARK                         _______ _______ _______ _____ _____    ______ ____
ROOT
ATOM      1  O   UNL     1       1.082  -1.130  -0.082  0.00  0.00    -0.371 OA
ATOM      8  C   UNL     1      -0.868   0.201  -0.340  0.00  0.00    +0.111 C 
ATOM      9  C   UNL     1       0.107   0.923   0.572  0.00  0.00    +0.164 C 
ATOM     10  C   UNL     1       1.416   0.239   0.202  0.00  0.00    +0.165 C 
ATOM     11  C   UNL     1      -0.340  -1.223  -0.277  0.00  0.00    +0.181 C 
ENDROOT
BRANCH   9   2
ATOM      2  O   UNL     1       0.153   2.316   0.329  0.00  0.00    -0.388 OA
ATOM     25  H   UNL     1       0.372   2.455  -0.608  0.00  0.00    +0.210 HD
ENDBRANCH   9   2
BRANCH   8   5
ATOM      5  N   UNL     1      -2.254   0.310   0.085  0.00  0.00    -0.305 NA
ATOM     24  H   UNL     1      -2.451   1.280   0.334  0.00  0.00    +0.123 HD
BRANCH   5  13
ATOM     13  C   UNL     1      -3.164  -0.099  -0.979  0.00  0.00    +0.120 C 
BRANCH  13  14
ATOM     14  C   UNL     1      -4.604  -0.008  -0.551  0.00  0.00    +0.008 A 
ATOM     16  C   UNL     1      -5.160  -0.973   0.290  0.00  0.00    +0.121 A 
ATOM     17  C   UNL     1      -5.385   1.055  -1.005  0.00  0.00    +0.008 A 
ATOM     19  C   UNL     1      -6.496  -0.874   0.677  0.00  0.00    +0.046 A 
ATOM     20  C   UNL     1      -6.722   1.153  -0.618  0.00  0.00    +0.001 A 
ATOM     23  C   UNL     1      -7.277   0.189   0.223  0.00  0.00    +0.004 A 
BRANCH  16   4
ATOM      4  O   UNL     1      -4.412  -2.018   0.742  0.00  0.00    -0.506 OA
ATOM     28  H   UNL     1      -4.964  -2.581   1.311  0.00  0.00    +0.292 HD
ENDBRANCH  16   4
ENDBRANCH  13  14
ENDBRANCH   5  13
ENDBRANCH   8   5
BRANCH  10  12
ATOM     12  C   UNL     1       2.456   0.295   1.307  0.00  0.00    +0.140 C 
BRANCH  12   6
ATOM      3  O   UNL     1       4.727   1.478  -0.022  0.00  0.00    -0.253 OA
ATOM      6  N   UNL     1       3.668  -0.364   0.916  0.00  0.00    -0.297 N 
ATOM      7  N   UNL     1       5.778  -0.591   0.009  0.00  0.00    -0.297 N 
ATOM     15  C   UNL     1       4.727   0.284   0.273  0.00  0.00    +0.300 C 
ATOM     26  H   UNL     1       3.756  -1.358   1.105  0.00  0.00    +0.150 HD
ATOM     27  H   UNL     1       5.715  -1.542   0.359  0.00  0.00    +0.150 HD
BRANCH   7  18
ATOM     18  C   UNL     1       6.995  -0.175  -0.649  0.00  0.00    +0.068 C 
ATOM     21  C   UNL     1       8.007   0.333   0.370  0.00  0.00    +0.027 C 
ATOM     22  C   UNL     1       7.568  -1.320  -1.473  0.00  0.00    +0.027 C 
ENDBRANCH   7  18
ENDBRANCH  12   6
ENDBRANCH  10  12
TORSDOF 8
