MODEL 1
REMARK VINA RESULT:      -6.8      0.000      0.000
REMARK  Name = 26743244
REMARK  8 active torsions:
REMARK  status: ('A' for Active; 'I' for Inactive)
REMARK    1  A    between atoms: N_5  and  C_29
REMARK    2  A    between atoms: C_7  and  C_11
REMARK    3  A    between atoms: C_8  and  C_12
REMARK    4  A    between atoms: C_11  and  C_17
REMARK    5  A    between atoms: C_12  and  C_19
REMARK    6  A    between atoms: C_14  and  C_18
REMARK    7  A    between atoms: C_18  and  C_23
REMARK    8  A    between atoms: C_29  and  C_30
REMARK                            x       y       z     vdW  Elec       q    Type
REMARK                         _______ _______ _______ _____ _____    ______ ____
ROOT
ATOM      3  N   UNL     1       7.848  10.095   5.007  0.00  0.00    -0.316 NA
ATOM      7  C   UNL     1      10.399   8.635   5.269  0.00  0.00    +0.004 C 
ATOM      8  C   UNL     1       9.080   7.945   4.845  0.00  0.00    +0.012 C 
ATOM      9  C   UNL     1      10.316  10.131   4.923  0.00  0.00    +0.019 C 
ATOM     10  C   UNL     1       7.850   8.684   5.397  0.00  0.00    +0.085 C 
ATOM     13  C   UNL     1       9.049  10.787   5.469  0.00  0.00    +0.081 C 
ATOM     36  H   UNL     1       7.023  10.551   5.398  0.00  0.00    +0.122 HD
ENDROOT
BRANCH   7  11
ATOM     11  C   UNL     1      10.760   8.437   6.746  0.00  0.00    +0.100 C 
BRANCH  11  17
ATOM      2  O   UNL     1      11.656   6.271   7.092  0.00  0.00    -0.276 OA
ATOM      4  N   UNL     1      13.187   7.978   6.719  0.00  0.00    -0.299 N 
ATOM      5  N   UNL     1      15.729   8.783   5.672  0.00  0.00    -0.295 NA
ATOM     17  C   UNL     1      11.901   7.460   6.871  0.00  0.00    +0.216 C 
ATOM     24  C   UNL     1      14.345   7.093   6.822  0.00  0.00    +0.123 C 
ATOM     25  C   UNL     1      13.517   9.400   6.589  0.00  0.00    +0.123 C 
ATOM     27  C   UNL     1      15.349   7.362   5.701  0.00  0.00    +0.103 C 
ATOM     28  C   UNL     1      14.541   9.627   5.476  0.00  0.00    +0.103 C 
BRANCH   5  29
ATOM     29  C   UNL     1      16.714   9.029   4.621  0.00  0.00    +0.119 C 
BRANCH  29  30
ATOM     30  C   UNL     1      18.095   8.609   5.035  0.00  0.00    -0.033 A 
ATOM     31  C   UNL     1      18.942   7.993   4.113  0.00  0.00    +0.005 A 
ATOM     32  C   UNL     1      18.531   8.836   6.341  0.00  0.00    +0.005 A 
ATOM     33  C   UNL     1      20.225   7.603   4.498  0.00  0.00    +0.000 A 
ATOM     34  C   UNL     1      19.815   8.446   6.725  0.00  0.00    +0.000 A 
ATOM     35  C   UNL     1      20.661   7.830   5.803  0.00  0.00    +0.000 A 
ENDBRANCH  29  30
ENDBRANCH   5  29
ENDBRANCH  11  17
ENDBRANCH   7  11
BRANCH   8  12
ATOM     12  C   UNL     1       9.031   6.464   5.222  0.00  0.00    +0.064 C 
BRANCH  12  19
ATOM      1  O   UNL     1      10.899   3.933   3.469  0.00  0.00    -0.359 OA
ATOM      6  N   UNL     1      10.275   4.437   4.604  0.00  0.00    -0.083 NA
ATOM     19  C   UNL     1       9.784   5.624   4.232  0.00  0.00    +0.084 A 
ATOM     23  C   UNL     1      10.768   4.825   2.454  0.00  0.00    +0.138 A 
ATOM     26  C   UNL     1      10.065   5.918   2.887  0.00  0.00    +0.071 A 
BRANCH  23  18
ATOM     18  C   UNL     1      11.374   4.450   1.170  0.00  0.00    +0.080 C 
BRANCH  18  14
ATOM     14  C   UNL     1      12.882   4.685   1.127  0.00  0.00    -0.004 C 
ATOM     15  C   UNL     1      13.641   3.414   1.533  0.00  0.00    +0.004 C 
ATOM     16  C   UNL     1      13.316   5.159  -0.267  0.00  0.00    +0.004 C 
ATOM     20  C   UNL     1      15.153   3.608   1.446  0.00  0.00    +0.000 C 
ATOM     21  C   UNL     1      14.829   5.349  -0.351  0.00  0.00    +0.000 C 
ATOM     22  C   UNL     1      15.580   4.088   0.062  0.00  0.00    +0.000 C 
ENDBRANCH  18  14
ENDBRANCH  23  18
ENDBRANCH  12  19
ENDBRANCH   8  12
TORSDOF 8
ENDMDL
MODEL 2
REMARK VINA RESULT:      -6.8     26.934     31.100
REMARK  Name = 26743244
REMARK  8 active torsions:
REMARK  status: ('A' for Active; 'I' for Inactive)
REMARK    1  A    between atoms: N_5  and  C_29
REMARK    2  A    between atoms: C_7  and  C_11
REMARK    3  A    between atoms: C_8  and  C_12
REMARK    4  A    between atoms: C_11  and  C_17
REMARK    5  A    between atoms: C_12  and  C_19
REMARK    6  A    between atoms: C_14  and  C_18
REMARK    7  A    between atoms: C_18  and  C_23
REMARK    8  A    between atoms: C_29  and  C_30
REMARK                            x       y       z     vdW  Elec       q    Type
REMARK                         _______ _______ _______ _____ _____    ______ ____
ROOT
ATOM      3  N   UNL     1      -6.863 -12.996  18.832  0.00  0.00    -0.316 NA
ATOM      7  C   UNL     1      -6.911 -11.145  16.535  0.00  0.00    +0.004 C 
ATOM      8  C   UNL     1      -5.607 -11.522  17.278  0.00  0.00    +0.012 C 
ATOM      9  C   UNL     1      -7.945 -12.266  16.736  0.00  0.00    +0.019 C 
ATOM     10  C   UNL     1      -5.878 -11.917  18.739  0.00  0.00    +0.085 C 
ATOM     13  C   UNL     1      -8.131 -12.630  18.208  0.00  0.00    +0.081 C 
ATOM     36  H   UNL     1      -7.021 -13.223  19.814  0.00  0.00    +0.122 HD
ENDROOT
BRANCH   7  11
ATOM     11  C   UNL     1      -7.492  -9.787  16.947  0.00  0.00    +0.100 C 
BRANCH  11  17
ATOM      2  O   UNL     1      -8.574  -9.396  14.875  0.00  0.00    -0.276 OA
ATOM      4  N   UNL     1      -9.901  -9.265  16.777  0.00  0.00    -0.299 N 
ATOM      5  N   UNL     1     -12.480  -9.611  17.975  0.00  0.00    -0.295 NA
ATOM     17  C   UNL     1      -8.698  -9.464  16.101  0.00  0.00    +0.216 C 
ATOM     24  C   UNL     1     -11.115  -8.953  16.026  0.00  0.00    +0.123 C 
ATOM     25  C   UNL     1     -10.054  -9.208  18.233  0.00  0.00    +0.123 C 
ATOM     27  C   UNL     1     -12.302  -9.778  16.525  0.00  0.00    +0.103 C 
ATOM     28  C   UNL     1     -11.264 -10.024  18.692  0.00  0.00    +0.103 C 
BRANCH   5  29
ATOM     29  C   UNL     1     -13.636 -10.374  18.442  0.00  0.00    +0.119 C 
BRANCH  29  30
ATOM     30  C   UNL     1     -14.623  -9.509  19.171  0.00  0.00    -0.033 A 
ATOM     31  C   UNL     1     -15.712  -8.966  18.488  0.00  0.00    +0.005 A 
ATOM     32  C   UNL     1     -14.453  -9.251  20.531  0.00  0.00    +0.005 A 
ATOM     33  C   UNL     1     -16.630  -8.163  19.166  0.00  0.00    +0.000 A 
ATOM     34  C   UNL     1     -15.371  -8.448  21.209  0.00  0.00    +0.000 A 
ATOM     35  C   UNL     1     -16.459  -7.905  20.526  0.00  0.00    +0.000 A 
ENDBRANCH  29  30
ENDBRANCH   5  29
ENDBRANCH  11  17
ENDBRANCH   7  11
BRANCH   8  12
ATOM     12  C   UNL     1      -4.539 -10.430  17.205  0.00  0.00    +0.064 C 
BRANCH  12  19
ATOM      1  O   UNL     1      -1.732 -11.179  15.079  0.00  0.00    -0.359 OA
ATOM      6  N   UNL     1      -2.327 -11.040  16.326  0.00  0.00    -0.083 NA
ATOM     19  C   UNL     1      -3.586 -10.672  16.071  0.00  0.00    +0.084 A 
ATOM     23  C   UNL     1      -2.643 -10.891  14.115  0.00  0.00    +0.138 A 
ATOM     26  C   UNL     1      -3.840 -10.564  14.693  0.00  0.00    +0.071 A 
BRANCH  23  18
ATOM     18  C   UNL     1      -2.178 -10.988  12.725  0.00  0.00    +0.080 C 
BRANCH  18  14
ATOM     14  C   UNL     1      -3.242 -10.584  11.706  0.00  0.00    -0.004 C 
ATOM     15  C   UNL     1      -2.679  -9.556  10.714  0.00  0.00    +0.004 C 
ATOM     16  C   UNL     1      -3.782 -11.816  10.969  0.00  0.00    +0.004 C 
ATOM     20  C   UNL     1      -3.708  -9.175   9.652  0.00  0.00    +0.000 C 
ATOM     21  C   UNL     1      -4.809 -11.431   9.906  0.00  0.00    +0.000 C 
ATOM     22  C   UNL     1      -4.250 -10.404   8.928  0.00  0.00    +0.000 C 
ENDBRANCH  18  14
ENDBRANCH  23  18
ENDBRANCH  12  19
ENDBRANCH   8  12
TORSDOF 8
ENDMDL
MODEL 3
REMARK VINA RESULT:      -6.8     23.921     25.989
REMARK  Name = 26743244
REMARK  8 active torsions:
REMARK  status: ('A' for Active; 'I' for Inactive)
REMARK    1  A    between atoms: N_5  and  C_29
REMARK    2  A    between atoms: C_7  and  C_11
REMARK    3  A    between atoms: C_8  and  C_12
REMARK    4  A    between atoms: C_11  and  C_17
REMARK    5  A    between atoms: C_12  and  C_19
REMARK    6  A    between atoms: C_14  and  C_18
REMARK    7  A    between atoms: C_18  and  C_23
REMARK    8  A    between atoms: C_29  and  C_30
REMARK                            x       y       z     vdW  Elec       q    Type
REMARK                         _______ _______ _______ _____ _____    ______ ____
ROOT
ATOM      3  N   UNL     1      -6.444 -14.146   4.377  0.00  0.00    -0.316 NA
ATOM      7  C   UNL     1      -5.338 -11.683   5.568  0.00  0.00    +0.004 C 
ATOM      8  C   UNL     1      -4.524 -12.589   4.613  0.00  0.00    +0.012 C 
ATOM      9  C   UNL     1      -6.838 -11.888   5.296  0.00  0.00    +0.019 C 
ATOM     10  C   UNL     1      -5.011 -14.047   4.660  0.00  0.00    +0.085 C 
ATOM     13  C   UNL     1      -7.239 -13.362   5.319  0.00  0.00    +0.081 C 
ATOM     36  H   UNL     1      -6.729 -15.125   4.425  0.00  0.00    +0.122 HD
ENDROOT
BRANCH   7  11
ATOM     11  C   UNL     1      -5.019 -11.896   7.052  0.00  0.00    +0.100 C 
BRANCH  11  17
ATOM      2  O   UNL     1      -5.278  -9.543   7.157  0.00  0.00    -0.276 OA
ATOM      4  N   UNL     1      -4.485 -10.584   9.076  0.00  0.00    -0.299 N 
ATOM      5  N   UNL     1      -4.321 -10.621  11.936  0.00  0.00    -0.295 NA
ATOM     17  C   UNL     1      -4.940 -10.566   7.758  0.00  0.00    +0.216 C 
ATOM     24  C   UNL     1      -4.385  -9.336   9.829  0.00  0.00    +0.123 C 
ATOM     25  C   UNL     1      -3.953 -11.759   9.772  0.00  0.00    +0.123 C 
ATOM     27  C   UNL     1      -4.956  -9.493  11.239  0.00  0.00    +0.103 C 
ATOM     28  C   UNL     1      -4.527 -11.869  11.186  0.00  0.00    +0.103 C 
BRANCH   5  29
ATOM     29  C   UNL     1      -4.845 -10.745  13.294  0.00  0.00    +0.119 C 
BRANCH  29  30
ATOM     30  C   UNL     1      -3.753 -10.702  14.325  0.00  0.00    -0.033 A 
ATOM     31  C   UNL     1      -4.059 -10.890  15.673  0.00  0.00    +0.005 A 
ATOM     32  C   UNL     1      -2.434 -10.475  13.934  0.00  0.00    +0.005 A 
ATOM     33  C   UNL     1      -3.045 -10.851  16.630  0.00  0.00    +0.000 A 
ATOM     34  C   UNL     1      -1.419 -10.436  14.891  0.00  0.00    +0.000 A 
ATOM     35  C   UNL     1      -1.726 -10.624  16.239  0.00  0.00    +0.000 A 
ENDBRANCH  29  30
ENDBRANCH   5  29
ENDBRANCH  11  17
ENDBRANCH   7  11
BRANCH   8  12
ATOM     12  C   UNL     1      -3.017 -12.518   4.860  0.00  0.00    +0.064 C 
BRANCH  12  19
ATOM      1  O   UNL     1      -1.603 -13.265   1.634  0.00  0.00    -0.359 OA
ATOM      6  N   UNL     1      -2.469 -12.565   2.465  0.00  0.00    -0.083 NA
ATOM     19  C   UNL     1      -2.245 -13.053   3.689  0.00  0.00    +0.084 A 
ATOM     23  C   UNL     1      -0.887 -14.147   2.376  0.00  0.00    +0.138 A 
ATOM     26  C   UNL     1      -1.257 -14.052   3.691  0.00  0.00    +0.071 A 
BRANCH  23  18
ATOM     18  C   UNL     1       0.085 -14.976   1.651  0.00  0.00    +0.080 C 
BRANCH  18  14
ATOM     14  C   UNL     1       0.973 -14.171   0.705  0.00  0.00    -0.004 C 
ATOM     15  C   UNL     1       2.454 -14.353   1.065  0.00  0.00    +0.004 C 
ATOM     16  C   UNL     1       0.712 -14.570  -0.753  0.00  0.00    +0.004 C 
ATOM     20  C   UNL     1       3.366 -13.601   0.100  0.00  0.00    +0.000 C 
ATOM     21  C   UNL     1       1.628 -13.816  -1.716  0.00  0.00    +0.000 C 
ATOM     22  C   UNL     1       3.098 -13.993  -1.350  0.00  0.00    +0.000 C 
ENDBRANCH  18  14
ENDBRANCH  23  18
ENDBRANCH  12  19
ENDBRANCH   8  12
TORSDOF 8
ENDMDL
MODEL 4
REMARK VINA RESULT:      -6.7     14.579     18.198
REMARK  Name = 26743244
REMARK  8 active torsions:
REMARK  status: ('A' for Active; 'I' for Inactive)
REMARK    1  A    between atoms: N_5  and  C_29
REMARK    2  A    between atoms: C_7  and  C_11
REMARK    3  A    between atoms: C_8  and  C_12
REMARK    4  A    between atoms: C_11  and  C_17
REMARK    5  A    between atoms: C_12  and  C_19
REMARK    6  A    between atoms: C_14  and  C_18
REMARK    7  A    between atoms: C_18  and  C_23
REMARK    8  A    between atoms: C_29  and  C_30
REMARK                            x       y       z     vdW  Elec       q    Type
REMARK                         _______ _______ _______ _____ _____    ______ ____
ROOT
ATOM      3  N   UNL     1      23.393  -4.543   2.458  0.00  0.00    -0.316 NA
ATOM      7  C   UNL     1      22.170  -6.234   0.372  0.00  0.00    +0.004 C 
ATOM      8  C   UNL     1      21.476  -4.972   0.939  0.00  0.00    +0.012 C 
ATOM      9  C   UNL     1      23.690  -6.099   0.563  0.00  0.00    +0.019 C 
ATOM     10  C   UNL     1      21.937  -4.667   2.374  0.00  0.00    +0.085 C 
ATOM     13  C   UNL     1      24.068  -5.756   2.003  0.00  0.00    +0.081 C 
ATOM     36  H   UNL     1      23.659  -4.349   3.423  0.00  0.00    +0.122 HD
ENDROOT
BRANCH   7  11
ATOM     11  C   UNL     1      21.660  -7.549   0.972  0.00  0.00    +0.100 C 
BRANCH  11  17
ATOM      2  O   UNL     1      20.949  -8.083  -1.225  0.00  0.00    -0.276 OA
ATOM      4  N   UNL     1      19.771  -9.074   0.515  0.00  0.00    -0.299 N 
ATOM      5  N   UNL     1      18.265 -11.317   1.469  0.00  0.00    -0.295 NA
ATOM     17  C   UNL     1      20.765  -8.254  -0.017  0.00  0.00    +0.216 C 
ATOM     24  C   UNL     1      18.867  -9.795  -0.379  0.00  0.00    +0.123 C 
ATOM     25  C   UNL     1      19.443  -9.194   1.938  0.00  0.00    +0.123 C 
ATOM     27  C   UNL     1      18.693 -11.248   0.064  0.00  0.00    +0.103 C 
ATOM     28  C   UNL     1      19.252 -10.658   2.338  0.00  0.00    +0.103 C 
BRANCH   5  29
ATOM     29  C   UNL     1      18.067 -12.706   1.878  0.00  0.00    +0.119 C 
BRANCH  29  30
ATOM     30  C   UNL     1      17.244 -12.812   3.129  0.00  0.00    -0.033 A 
ATOM     31  C   UNL     1      17.840 -13.219   4.323  0.00  0.00    +0.005 A 
ATOM     32  C   UNL     1      15.884 -12.502   3.098  0.00  0.00    +0.005 A 
ATOM     33  C   UNL     1      17.076 -13.318   5.486  0.00  0.00    +0.000 A 
ATOM     34  C   UNL     1      15.120 -12.600   4.261  0.00  0.00    +0.000 A 
ATOM     35  C   UNL     1      15.716 -13.008   5.455  0.00  0.00    +0.000 A 
ENDBRANCH  29  30
ENDBRANCH   5  29
ENDBRANCH  11  17
ENDBRANCH   7  11
BRANCH   8  12
ATOM     12  C   UNL     1      19.950  -5.045   0.869  0.00  0.00    +0.064 C 
BRANCH  12  19
ATOM      1  O   UNL     1      19.299  -3.742  -2.424  0.00  0.00    -0.359 OA
ATOM      6  N   UNL     1      19.970  -3.730  -1.207  0.00  0.00    -0.083 NA
ATOM     19  C   UNL     1      19.452  -4.751  -0.516  0.00  0.00    +0.084 A 
ATOM     23  C   UNL     1      18.403  -4.761  -2.431  0.00  0.00    +0.138 A 
ATOM     26  C   UNL     1      18.461  -5.435  -1.240  0.00  0.00    +0.071 A 
BRANCH  23  18
ATOM     18  C   UNL     1      17.601  -4.920  -3.651  0.00  0.00    +0.080 C 
BRANCH  18  14
ATOM     14  C   UNL     1      16.372  -5.805  -3.451  0.00  0.00    -0.004 C 
ATOM     15  C   UNL     1      15.084  -5.004  -3.687  0.00  0.00    +0.004 C 
ATOM     16  C   UNL     1      16.431  -7.029  -4.373  0.00  0.00    +0.004 C 
ATOM     20  C   UNL     1      13.842  -5.880  -3.545  0.00  0.00    +0.000 C 
ATOM     21  C   UNL     1      15.186  -7.902  -4.230  0.00  0.00    +0.000 C 
ATOM     22  C   UNL     1      13.908  -7.102  -4.457  0.00  0.00    +0.000 C 
ENDBRANCH  18  14
ENDBRANCH  23  18
ENDBRANCH  12  19
ENDBRANCH   8  12
TORSDOF 8
ENDMDL
MODEL 5
REMARK VINA RESULT:      -6.7     24.562     28.325
REMARK  Name = 26743244
REMARK  8 active torsions:
REMARK  status: ('A' for Active; 'I' for Inactive)
REMARK    1  A    between atoms: N_5  and  C_29
REMARK    2  A    between atoms: C_7  and  C_11
REMARK    3  A    between atoms: C_8  and  C_12
REMARK    4  A    between atoms: C_11  and  C_17
REMARK    5  A    between atoms: C_12  and  C_19
REMARK    6  A    between atoms: C_14  and  C_18
REMARK    7  A    between atoms: C_18  and  C_23
REMARK    8  A    between atoms: C_29  and  C_30
REMARK                            x       y       z     vdW  Elec       q    Type
REMARK                         _______ _______ _______ _____ _____    ______ ____
ROOT
ATOM      3  N   UNL     1      -6.618 -12.259  19.701  0.00  0.00    -0.316 NA
ATOM      7  C   UNL     1      -6.720 -11.441  16.867  0.00  0.00    +0.004 C 
ATOM      8  C   UNL     1      -5.424 -11.374  17.711  0.00  0.00    +0.012 C 
ATOM      9  C   UNL     1      -7.659 -12.497  17.474  0.00  0.00    +0.019 C 
ATOM     10  C   UNL     1      -5.730 -11.204  19.209  0.00  0.00    +0.085 C 
ATOM     13  C   UNL     1      -7.883 -12.288  18.971  0.00  0.00    +0.081 C 
ATOM     36  H   UNL     1      -6.803 -12.108  20.692  0.00  0.00    +0.122 HD
ENDROOT
BRANCH   7  11
ATOM     11  C   UNL     1      -7.438 -10.095  16.718  0.00  0.00    +0.100 C 
BRANCH  11  17
ATOM      2  O   UNL     1      -9.726 -10.195  16.110  0.00  0.00    -0.276 OA
ATOM      4  N   UNL     1      -8.186 -10.339  14.377  0.00  0.00    -0.299 N 
ATOM      5  N   UNL     1      -7.553  -9.818  11.631  0.00  0.00    -0.295 NA
ATOM     17  C   UNL     1      -8.557 -10.215  15.715  0.00  0.00    +0.216 C 
ATOM     24  C   UNL     1      -9.213 -10.456  13.344  0.00  0.00    +0.123 C 
ATOM     25  C   UNL     1      -6.812 -10.499  13.891  0.00  0.00    +0.123 C 
ATOM     27  C   UNL     1      -8.903  -9.553  12.150  0.00  0.00    +0.103 C 
ATOM     28  C   UNL     1      -6.547  -9.599  12.682  0.00  0.00    +0.103 C 
BRANCH   5  29
ATOM     29  C   UNL     1      -7.274  -8.977  10.470  0.00  0.00    +0.119 C 
BRANCH  29  30
ATOM     30  C   UNL     1      -6.882  -9.788   9.269  0.00  0.00    -0.033 A 
ATOM     31  C   UNL     1      -6.275  -9.168   8.177  0.00  0.00    +0.005 A 
ATOM     32  C   UNL     1      -7.125 -11.162   9.245  0.00  0.00    +0.005 A 
ATOM     33  C   UNL     1      -5.910  -9.921   7.061  0.00  0.00    +0.000 A 
ATOM     34  C   UNL     1      -6.760 -11.915   8.129  0.00  0.00    +0.000 A 
ATOM     35  C   UNL     1      -6.153 -11.295   7.037  0.00  0.00    +0.000 A 
ENDBRANCH  29  30
ENDBRANCH   5  29
ENDBRANCH  11  17
ENDBRANCH   7  11
BRANCH   8  12
ATOM     12  C   UNL     1      -4.456 -10.291  17.235  0.00  0.00    +0.064 C 
BRANCH  12  19
ATOM      1  O   UNL     1      -1.458 -11.310  15.520  0.00  0.00    -0.359 OA
ATOM      6  N   UNL     1      -2.124 -10.671  16.558  0.00  0.00    -0.083 NA
ATOM     19  C   UNL     1      -3.423 -10.854  16.302  0.00  0.00    +0.084 A 
ATOM     23  C   UNL     1      -2.368 -11.854  14.673  0.00  0.00    +0.138 A 
ATOM     26  C   UNL     1      -3.635 -11.594  15.126  0.00  0.00    +0.071 A 
BRANCH  23  18
ATOM     18  C   UNL     1      -1.833 -12.573  13.510  0.00  0.00    +0.080 C 
BRANCH  18  14
ATOM     14  C   UNL     1      -2.047 -11.828  12.194  0.00  0.00    -0.004 C 
ATOM     15  C   UNL     1      -3.446 -12.113  11.630  0.00  0.00    +0.004 C 
ATOM     16  C   UNL     1      -1.831 -10.321  12.383  0.00  0.00    +0.004 C 
ATOM     20  C   UNL     1      -3.704 -11.338  10.341  0.00  0.00    +0.000 C 
ATOM     21  C   UNL     1      -2.092  -9.548  11.091  0.00  0.00    +0.000 C 
ATOM     22  C   UNL     1      -3.479  -9.841  10.531  0.00  0.00    +0.000 C 
ENDBRANCH  18  14
ENDBRANCH  23  18
ENDBRANCH  12  19
ENDBRANCH   8  12
TORSDOF 8
ENDMDL
MODEL 6
REMARK VINA RESULT:      -6.7     24.720     28.618
REMARK  Name = 26743244
REMARK  8 active torsions:
REMARK  status: ('A' for Active; 'I' for Inactive)
REMARK    1  A    between atoms: N_5  and  C_29
REMARK    2  A    between atoms: C_7  and  C_11
REMARK    3  A    between atoms: C_8  and  C_12
REMARK    4  A    between atoms: C_11  and  C_17
REMARK    5  A    between atoms: C_12  and  C_19
REMARK    6  A    between atoms: C_14  and  C_18
REMARK    7  A    between atoms: C_18  and  C_23
REMARK    8  A    between atoms: C_29  and  C_30
REMARK                            x       y       z     vdW  Elec       q    Type
REMARK                         _______ _______ _______ _____ _____    ______ ____
ROOT
ATOM      3  N   UNL     1      -2.823 -14.513  14.856  0.00  0.00    -0.316 NA
ATOM      7  C   UNL     1      -2.118 -12.046  13.400  0.00  0.00    +0.004 C 
ATOM      8  C   UNL     1      -3.145 -12.069  14.558  0.00  0.00    +0.012 C 
ATOM      9  C   UNL     1      -1.155 -13.235  13.560  0.00  0.00    +0.019 C 
ATOM     10  C   UNL     1      -3.813 -13.447  14.697  0.00  0.00    +0.085 C 
ATOM     13  C   UNL     1      -1.892 -14.562  13.733  0.00  0.00    +0.081 C 
ATOM     36  H   UNL     1      -3.304 -15.409  14.937  0.00  0.00    +0.122 HD
ENDROOT
BRANCH   7  11
ATOM     11  C   UNL     1      -2.752 -12.041  12.004  0.00  0.00    +0.100 C 
BRANCH  11  17
ATOM      2  O   UNL     1      -1.649 -10.004  11.506  0.00  0.00    -0.276 OA
ATOM      4  N   UNL     1      -3.852 -10.192  10.792  0.00  0.00    -0.299 N 
ATOM      5  N   UNL     1      -5.855  -9.494   8.866  0.00  0.00    -0.295 NA
ATOM     17  C   UNL     1      -2.694 -10.654  11.416  0.00  0.00    +0.216 C 
ATOM     24  C   UNL     1      -3.873  -8.858  10.194  0.00  0.00    +0.123 C 
ATOM     25  C   UNL     1      -5.144 -10.883  10.785  0.00  0.00    +0.123 C 
ATOM     27  C   UNL     1      -4.519  -8.884   8.808  0.00  0.00    +0.103 C 
ATOM     28  C   UNL     1      -5.770 -10.866   9.389  0.00  0.00    +0.103 C 
BRANCH   5  29
ATOM     29  C   UNL     1      -6.482  -9.485   7.546  0.00  0.00    +0.119 C 
BRANCH  29  30
ATOM     30  C   UNL     1      -7.548  -8.433   7.437  0.00  0.00    -0.033 A 
ATOM     31  C   UNL     1      -8.201  -8.227   6.222  0.00  0.00    +0.005 A 
ATOM     32  C   UNL     1      -7.885  -7.663   8.550  0.00  0.00    +0.005 A 
ATOM     33  C   UNL     1      -9.192  -7.250   6.119  0.00  0.00    +0.000 A 
ATOM     34  C   UNL     1      -8.875  -6.686   8.448  0.00  0.00    +0.000 A 
ATOM     35  C   UNL     1      -9.529  -6.480   7.232  0.00  0.00    +0.000 A 
ENDBRANCH  29  30
ENDBRANCH   5  29
ENDBRANCH  11  17
ENDBRANCH   7  11
BRANCH   8  12
ATOM     12  C   UNL     1      -4.200 -10.969  14.444  0.00  0.00    +0.064 C 
BRANCH  12  19
ATOM      1  O   UNL     1      -5.022 -10.337  17.892  0.00  0.00    -0.359 OA
ATOM      6  N   UNL     1      -4.114 -10.570  16.867  0.00  0.00    -0.083 NA
ATOM     19  C   UNL     1      -4.859 -10.705  15.766  0.00  0.00    +0.084 A 
ATOM     23  C   UNL     1      -6.280 -10.339  17.383  0.00  0.00    +0.138 A 
ATOM     26  C   UNL     1      -6.232 -10.568  16.033  0.00  0.00    +0.071 A 
BRANCH  23  18
ATOM     18  C   UNL     1      -7.373 -10.107  18.336  0.00  0.00    +0.080 C 
BRANCH  18  14
ATOM     14  C   UNL     1      -8.730  -9.923  17.660  0.00  0.00    -0.004 C 
ATOM     15  C   UNL     1      -9.859 -10.445  18.561  0.00  0.00    +0.004 C 
ATOM     16  C   UNL     1      -8.959  -8.451  17.295  0.00  0.00    +0.004 C 
ATOM     20  C   UNL     1     -11.232 -10.224  17.931  0.00  0.00    +0.000 C 
ATOM     21  C   UNL     1     -10.334  -8.233  16.666  0.00  0.00    +0.000 C 
ATOM     22  C   UNL     1     -11.452  -8.760  17.560  0.00  0.00    +0.000 C 
ENDBRANCH  18  14
ENDBRANCH  23  18
ENDBRANCH  12  19
ENDBRANCH   8  12
TORSDOF 8
ENDMDL
MODEL 7
REMARK VINA RESULT:      -6.6      7.745     13.853
REMARK  Name = 26743244
REMARK  8 active torsions:
REMARK  status: ('A' for Active; 'I' for Inactive)
REMARK    1  A    between atoms: N_5  and  C_29
REMARK    2  A    between atoms: C_7  and  C_11
REMARK    3  A    between atoms: C_8  and  C_12
REMARK    4  A    between atoms: C_11  and  C_17
REMARK    5  A    between atoms: C_12  and  C_19
REMARK    6  A    between atoms: C_14  and  C_18
REMARK    7  A    between atoms: C_18  and  C_23
REMARK    8  A    between atoms: C_29  and  C_30
REMARK                            x       y       z     vdW  Elec       q    Type
REMARK                         _______ _______ _______ _____ _____    ______ ____
ROOT
ATOM      3  N   UNL     1       4.361  14.324   8.003  0.00  0.00    -0.316 NA
ATOM      7  C   UNL     1       3.156  12.557   5.970  0.00  0.00    +0.004 C 
ATOM      8  C   UNL     1       4.649  12.967   5.944  0.00  0.00    +0.012 C 
ATOM      9  C   UNL     1       2.633  12.662   7.412  0.00  0.00    +0.019 C 
ATOM     10  C   UNL     1       4.879  14.322   6.633  0.00  0.00    +0.085 C 
ATOM     13  C   UNL     1       2.933  14.020   8.045  0.00  0.00    +0.081 C 
ATOM     36  H   UNL     1       4.525  15.240   8.423  0.00  0.00    +0.122 HD
ENDROOT
BRANCH   7  11
ATOM     11  C   UNL     1       2.272  13.362   5.010  0.00  0.00    +0.100 C 
BRANCH  11  17
ATOM      2  O   UNL     1       2.262  12.285   2.899  0.00  0.00    -0.276 OA
ATOM      4  N   UNL     1       0.470  11.827   4.304  0.00  0.00    -0.299 N 
ATOM      5  N   UNL     1      -1.521   9.964   5.183  0.00  0.00    -0.295 NA
ATOM     17  C   UNL     1       1.674  12.447   3.971  0.00  0.00    +0.216 C 
ATOM     24  C   UNL     1      -0.171  10.922   3.352  0.00  0.00    +0.123 C 
ATOM     25  C   UNL     1      -0.318  12.099   5.509  0.00  0.00    +0.123 C 
ATOM     27  C   UNL     1      -0.652   9.645   4.040  0.00  0.00    +0.103 C 
ATOM     28  C   UNL     1      -0.803  10.800   6.156  0.00  0.00    +0.103 C 
BRANCH   5  29
ATOM     29  C   UNL     1      -2.007   8.740   5.816  0.00  0.00    +0.119 C 
BRANCH  29  30
ATOM     30  C   UNL     1      -3.345   8.321   5.280  0.00  0.00    -0.033 A 
ATOM     31  C   UNL     1      -4.182   9.264   4.682  0.00  0.00    +0.005 A 
ATOM     32  C   UNL     1      -3.751   6.990   5.378  0.00  0.00    +0.005 A 
ATOM     33  C   UNL     1      -5.426   8.875   4.183  0.00  0.00    +0.000 A 
ATOM     34  C   UNL     1      -4.994   6.601   4.879  0.00  0.00    +0.000 A 
ATOM     35  C   UNL     1      -5.831   7.544   4.281  0.00  0.00    +0.000 A 
ENDBRANCH  29  30
ENDBRANCH   5  29
ENDBRANCH  11  17
ENDBRANCH   7  11
BRANCH   8  12
ATOM     12  C   UNL     1       5.243  12.973   4.535  0.00  0.00    +0.064 C 
BRANCH  12  19
ATOM      1  O   UNL     1       6.050   9.630   3.468  0.00  0.00    -0.359 OA
ATOM      6  N   UNL     1       5.166  10.689   3.632  0.00  0.00    -0.083 NA
ATOM     19  C   UNL     1       5.886  11.657   4.207  0.00  0.00    +0.084 A 
ATOM     23  C   UNL     1       7.269   9.988   3.946  0.00  0.00    +0.138 A 
ATOM     26  C   UNL     1       7.219  11.270   4.427  0.00  0.00    +0.071 A 
BRANCH  23  18
ATOM     18  C   UNL     1       8.331   8.979   3.851  0.00  0.00    +0.080 C 
BRANCH  18  14
ATOM     14  C   UNL     1       8.212   7.880   4.905  0.00  0.00    -0.004 C 
ATOM     15  C   UNL     1       9.024   6.644   4.494  0.00  0.00    +0.004 C 
ATOM     16  C   UNL     1       8.662   8.396   6.279  0.00  0.00    +0.004 C 
ATOM     20  C   UNL     1       8.965   5.550   5.557  0.00  0.00    +0.000 C 
ATOM     21  C   UNL     1       8.603   7.299   7.339  0.00  0.00    +0.000 C 
ATOM     22  C   UNL     1       9.403   6.070   6.923  0.00  0.00    +0.000 C 
ENDBRANCH  18  14
ENDBRANCH  23  18
ENDBRANCH  12  19
ENDBRANCH   8  12
TORSDOF 8
ENDMDL
MODEL 8
REMARK VINA RESULT:      -6.4     27.555     30.361
REMARK  Name = 26743244
REMARK  8 active torsions:
REMARK  status: ('A' for Active; 'I' for Inactive)
REMARK    1  A    between atoms: N_5  and  C_29
REMARK    2  A    between atoms: C_7  and  C_11
REMARK    3  A    between atoms: C_8  and  C_12
REMARK    4  A    between atoms: C_11  and  C_17
REMARK    5  A    between atoms: C_12  and  C_19
REMARK    6  A    between atoms: C_14  and  C_18
REMARK    7  A    between atoms: C_18  and  C_23
REMARK    8  A    between atoms: C_29  and  C_30
REMARK                            x       y       z     vdW  Elec       q    Type
REMARK                         _______ _______ _______ _____ _____    ______ ____
ROOT
ATOM      3  N   UNL     1      14.310  -8.204  30.508  0.00  0.00    -0.316 NA
ATOM      7  C   UNL     1      12.892  -5.690  31.122  0.00  0.00    +0.004 C 
ATOM      8  C   UNL     1      14.407  -5.741  30.807  0.00  0.00    +0.012 C 
ATOM      9  C   UNL     1      12.207  -6.911  30.484  0.00  0.00    +0.019 C 
ATOM     10  C   UNL     1      15.017  -7.105  31.169  0.00  0.00    +0.085 C 
ATOM     13  C   UNL     1      12.892  -8.225  30.856  0.00  0.00    +0.081 C 
ATOM     36  H   UNL     1      14.738  -9.090  30.779  0.00  0.00    +0.122 HD
ENDROOT
BRANCH   7  11
ATOM     11  C   UNL     1      12.568  -5.603  32.618  0.00  0.00    +0.100 C 
BRANCH  11  17
ATOM      2  O   UNL     1      11.108  -3.772  32.263  0.00  0.00    -0.276 OA
ATOM      4  N   UNL     1      10.327  -5.467  33.645  0.00  0.00    -0.299 N 
ATOM      5  N   UNL     1       8.095  -6.959  34.646  0.00  0.00    -0.295 NA
ATOM     17  C   UNL     1      11.273  -4.859  32.822  0.00  0.00    +0.216 C 
ATOM     24  C   UNL     1       9.044  -4.810  33.889  0.00  0.00    +0.123 C 
ATOM     25  C   UNL     1      10.543  -6.687  34.427  0.00  0.00    +0.123 C 
ATOM     27  C   UNL     1       7.884  -5.798  33.769  0.00  0.00    +0.103 C 
ATOM     28  C   UNL     1       9.353  -7.640  34.303  0.00  0.00    +0.103 C 
BRANCH   5  29
ATOM     29  C   UNL     1       6.968  -7.885  34.554  0.00  0.00    +0.119 C 
BRANCH  29  30
ATOM     30  C   UNL     1       6.911  -8.570  33.219  0.00  0.00    -0.033 A 
ATOM     31  C   UNL     1       7.273  -9.913  33.109  0.00  0.00    +0.005 A 
ATOM     32  C   UNL     1       6.495  -7.864  32.090  0.00  0.00    +0.005 A 
ATOM     33  C   UNL     1       7.220 -10.550  31.869  0.00  0.00    +0.000 A 
ATOM     34  C   UNL     1       6.441  -8.502  30.850  0.00  0.00    +0.000 A 
ATOM     35  C   UNL     1       6.804  -9.845  30.740  0.00  0.00    +0.000 A 
ENDBRANCH  29  30
ENDBRANCH   5  29
ENDBRANCH  11  17
ENDBRANCH   7  11
BRANCH   8  12
ATOM     12  C   UNL     1      15.194  -4.609  31.468  0.00  0.00    +0.064 C 
BRANCH  12  19
ATOM      1  O   UNL     1      17.055  -2.257  29.475  0.00  0.00    -0.359 OA
ATOM      6  N   UNL     1      16.174  -2.573  30.502  0.00  0.00    -0.083 NA
ATOM     19  C   UNL     1      16.076  -3.906  30.478  0.00  0.00    +0.084 A 
ATOM     23  C   UNL     1      17.458  -3.401  28.865  0.00  0.00    +0.138 A 
ATOM     26  C   UNL     1      16.865  -4.479  29.466  0.00  0.00    +0.071 A 
BRANCH  23  18
ATOM     18  C   UNL     1      18.399  -3.250  27.748  0.00  0.00    +0.080 C 
BRANCH  18  14
ATOM     14  C   UNL     1      17.751  -2.679  26.489  0.00  0.00    -0.004 C 
ATOM     15  C   UNL     1      18.713  -1.723  25.769  0.00  0.00    +0.004 C 
ATOM     16  C   UNL     1      17.299  -3.807  25.553  0.00  0.00    +0.004 C 
ATOM     20  C   UNL     1      18.107  -1.180  24.478  0.00  0.00    +0.000 C 
ATOM     21  C   UNL     1      16.695  -3.259  24.261  0.00  0.00    +0.000 C 
ATOM     22  C   UNL     1      17.650  -2.304  23.554  0.00  0.00    +0.000 C 
ENDBRANCH  18  14
ENDBRANCH  23  18
ENDBRANCH  12  19
ENDBRANCH   8  12
TORSDOF 8
ENDMDL
MODEL 9
REMARK VINA RESULT:      -6.4      6.878      9.884
REMARK  Name = 26743244
REMARK  8 active torsions:
REMARK  status: ('A' for Active; 'I' for Inactive)
REMARK    1  A    between atoms: N_5  and  C_29
REMARK    2  A    between atoms: C_7  and  C_11
REMARK    3  A    between atoms: C_8  and  C_12
REMARK    4  A    between atoms: C_11  and  C_17
REMARK    5  A    between atoms: C_12  and  C_19
REMARK    6  A    between atoms: C_14  and  C_18
REMARK    7  A    between atoms: C_18  and  C_23
REMARK    8  A    between atoms: C_29  and  C_30
REMARK                            x       y       z     vdW  Elec       q    Type
REMARK                         _______ _______ _______ _____ _____    ______ ____
ROOT
ATOM      3  N   UNL     1      10.856   7.825  -4.720  0.00  0.00    -0.316 NA
ATOM      7  C   UNL     1      10.094   5.762  -2.753  0.00  0.00    +0.004 C 
ATOM      8  C   UNL     1       9.052   6.598  -3.535  0.00  0.00    +0.012 C 
ATOM      9  C   UNL     1      11.405   5.717  -3.556  0.00  0.00    +0.019 C 
ATOM     10  C   UNL     1       9.618   7.965  -3.952  0.00  0.00    +0.085 C 
ATOM     13  C   UNL     1      11.884   7.108  -3.969  0.00  0.00    +0.081 C 
ATOM     36  H   UNL     1      11.204   8.751  -4.971  0.00  0.00    +0.122 HD
ENDROOT
BRANCH   7  11
ATOM     11  C   UNL     1      10.346   6.257  -1.325  0.00  0.00    +0.100 C 
BRANCH  11  17
ATOM      2  O   UNL     1      10.588   3.956  -0.818  0.00  0.00    -0.276 OA
ATOM      4  N   UNL     1      10.191   5.375   0.977  0.00  0.00    -0.299 N 
ATOM      5  N   UNL     1      10.577   5.953   3.757  0.00  0.00    -0.295 NA
ATOM     17  C   UNL     1      10.385   5.089  -0.373  0.00  0.00    +0.216 C 
ATOM     24  C   UNL     1      10.219   4.296   1.963  0.00  0.00    +0.123 C 
ATOM     25  C   UNL     1       9.818   6.685   1.520  0.00  0.00    +0.123 C 
ATOM     27  C   UNL     1      11.051   4.684   3.185  0.00  0.00    +0.103 C 
ATOM     28  C   UNL     1      10.653   7.027   2.755  0.00  0.00    +0.103 C 
BRANCH   5  29
ATOM     29  C   UNL     1      11.352   6.303   4.945  0.00  0.00    +0.119 C 
BRANCH  29  30
ATOM     30  C   UNL     1      10.484   6.446   6.162  0.00  0.00    -0.033 A 
ATOM     31  C   UNL     1      10.577   5.515   7.197  0.00  0.00    +0.005 A 
ATOM     32  C   UNL     1       9.586   7.509   6.257  0.00  0.00    +0.005 A 
ATOM     33  C   UNL     1       9.771   5.648   8.328  0.00  0.00    +0.000 A 
ATOM     34  C   UNL     1       8.780   7.641   7.388  0.00  0.00    +0.000 A 
ATOM     35  C   UNL     1       8.873   6.711   8.423  0.00  0.00    +0.000 A 
ENDBRANCH  29  30
ENDBRANCH   5  29
ENDBRANCH  11  17
ENDBRANCH   7  11
BRANCH   8  12
ATOM     12  C   UNL     1       7.734   6.770  -2.779  0.00  0.00    +0.064 C 
BRANCH  12  19
ATOM      1  O   UNL     1       5.484   5.720  -5.387  0.00  0.00    -0.359 OA
ATOM      6  N   UNL     1       6.757   5.929  -4.871  0.00  0.00    -0.083 NA
ATOM     19  C   UNL     1       6.558   6.423  -3.645  0.00  0.00    +0.084 A 
ATOM     23  C   UNL     1       4.561   6.091  -4.463  0.00  0.00    +0.138 A 
ATOM     26  C   UNL     1       5.193   6.545  -3.335  0.00  0.00    +0.071 A 
BRANCH  23  18
ATOM     18  C   UNL     1       3.152   5.936  -4.845  0.00  0.00    +0.080 C 
BRANCH  18  14
ATOM     14  C   UNL     1       2.606   4.536  -4.571  0.00  0.00    -0.004 C 
ATOM     15  C   UNL     1       1.076   4.564  -4.457  0.00  0.00    +0.004 C 
ATOM     16  C   UNL     1       3.055   3.557  -5.664  0.00  0.00    +0.004 C 
ATOM     20  C   UNL     1       0.501   3.167  -4.236  0.00  0.00    +0.000 C 
ATOM     21  C   UNL     1       2.476   2.161  -5.440  0.00  0.00    +0.000 C 
ATOM     22  C   UNL     1       0.957   2.193  -5.319  0.00  0.00    +0.000 C 
ENDBRANCH  18  14
ENDBRANCH  23  18
ENDBRANCH  12  19
ENDBRANCH   8  12
TORSDOF 8
ENDMDL
MODEL 10
REMARK VINA RESULT:      -6.4      2.668      3.853
REMARK  Name = 26743244
REMARK  8 active torsions:
REMARK  status: ('A' for Active; 'I' for Inactive)
REMARK    1  A    between atoms: N_5  and  C_29
REMARK    2  A    between atoms: C_7  and  C_11
REMARK    3  A    between atoms: C_8  and  C_12
REMARK    4  A    between atoms: C_11  and  C_17
REMARK    5  A    between atoms: C_12  and  C_19
REMARK    6  A    between atoms: C_14  and  C_18
REMARK    7  A    between atoms: C_18  and  C_23
REMARK    8  A    between atoms: C_29  and  C_30
REMARK                            x       y       z     vdW  Elec       q    Type
REMARK                         _______ _______ _______ _____ _____    ______ ____
ROOT
ATOM      3  N   UNL     1       8.139   6.252   5.304  0.00  0.00    -0.316 NA
ATOM      7  C   UNL     1      10.309   6.690   3.354  0.00  0.00    +0.004 C 
ATOM      8  C   UNL     1       9.831   5.278   3.769  0.00  0.00    +0.012 C 
ATOM      9  C   UNL     1       9.167   7.694   3.584  0.00  0.00    +0.019 C 
ATOM     10  C   UNL     1       9.224   5.277   5.182  0.00  0.00    +0.085 C 
ATOM     13  C   UNL     1       8.588   7.607   4.995  0.00  0.00    +0.081 C 
ATOM     36  H   UNL     1       7.769   6.226   6.254  0.00  0.00    +0.122 HD
ENDROOT
BRANCH   7  11
ATOM     11  C   UNL     1      11.589   7.149   4.063  0.00  0.00    +0.100 C 
BRANCH  11  17
ATOM      2  O   UNL     1      12.393   7.509   1.863  0.00  0.00    -0.276 OA
ATOM      4  N   UNL     1      13.991   7.404   3.546  0.00  0.00    -0.299 N 
ATOM      5  N   UNL     1      16.541   8.253   4.538  0.00  0.00    -0.295 NA
ATOM     17  C   UNL     1      12.687   7.369   3.053  0.00  0.00    +0.216 C 
ATOM     24  C   UNL     1      15.110   7.618   2.630  0.00  0.00    +0.123 C 
ATOM     25  C   UNL     1      14.382   7.110   4.927  0.00  0.00    +0.123 C 
ATOM     27  C   UNL     1      16.097   8.641   3.191  0.00  0.00    +0.103 C 
ATOM     28  C   UNL     1      15.389   8.139   5.445  0.00  0.00    +0.103 C 
BRANCH   5  29
ATOM     29  C   UNL     1      17.510   9.215   5.057  0.00  0.00    +0.119 C 
BRANCH  29  30
ATOM     30  C   UNL     1      18.841   8.578   5.339  0.00  0.00    -0.033 A 
ATOM     31  C   UNL     1      19.432   8.724   6.594  0.00  0.00    +0.005 A 
ATOM     32  C   UNL     1      19.484   7.839   4.346  0.00  0.00    +0.005 A 
ATOM     33  C   UNL     1      20.667   8.132   6.856  0.00  0.00    +0.000 A 
ATOM     34  C   UNL     1      20.720   7.247   4.608  0.00  0.00    +0.000 A 
ATOM     35  C   UNL     1      21.311   7.393   5.863  0.00  0.00    +0.000 A 
ENDBRANCH  29  30
ENDBRANCH   5  29
ENDBRANCH  11  17
ENDBRANCH   7  11
BRANCH   8  12
ATOM     12  C   UNL     1      10.926   4.217   3.654  0.00  0.00    +0.064 C 
BRANCH  12  19
ATOM      1  O   UNL     1      12.936   3.887   0.685  0.00  0.00    -0.359 OA
ATOM      6  N   UNL     1      12.769   3.879   2.064  0.00  0.00    -0.083 NA
ATOM     19  C   UNL     1      11.474   4.147   2.258  0.00  0.00    +0.084 A 
ATOM     23  C   UNL     1      11.746   4.159   0.092  0.00  0.00    +0.138 A 
ATOM     26  C   UNL     1      10.782   4.332   1.049  0.00  0.00    +0.071 A 
BRANCH  23  18
ATOM     18  C   UNL     1      11.741   4.206  -1.375  0.00  0.00    +0.080 C 
BRANCH  18  14
ATOM     14  C   UNL     1      10.337   4.309  -1.968  0.00  0.00    -0.004 C 
ATOM     15  C   UNL     1       9.904   5.777  -2.085  0.00  0.00    +0.004 C 
ATOM     16  C   UNL     1      10.274   3.611  -3.333  0.00  0.00    +0.004 C 
ATOM     20  C   UNL     1       8.525   5.910  -2.725  0.00  0.00    +0.000 C 
ATOM     21  C   UNL     1       8.893   3.747  -3.971  0.00  0.00    +0.000 C 
ATOM     22  C   UNL     1       8.463   5.206  -4.077  0.00  0.00    +0.000 C 
ENDBRANCH  18  14
ENDBRANCH  23  18
ENDBRANCH  12  19
ENDBRANCH   8  12
TORSDOF 8
ENDMDL
