MODEL 1
REMARK VINA RESULT:      -6.1      0.000      0.000
REMARK  Name = 75536696
REMARK  10 active torsions:
REMARK  status: ('A' for Active; 'I' for Inactive)
REMARK    1  A    between atoms: S_1  and  N_7
REMARK    2  A    between atoms: S_1  and  C_16
REMARK    3  A    between atoms: O_3  and  C_9
REMARK    4  A    between atoms: N_6  and  C_8
REMARK    5  A    between atoms: N_6  and  C_13
REMARK    6  A    between atoms: N_7  and  C_12
REMARK    7  A    between atoms: C_10  and  C_12
REMARK    8  A    between atoms: C_13  and  C_14
REMARK    9  A    between atoms: C_13  and  C_15
REMARK   10  A    between atoms: C_21  and  C_22
REMARK                            x       y       z     vdW  Elec       q    Type
REMARK                         _______ _______ _______ _____ _____    ______ ____
ROOT
ATOM     12  C   UNL     1      -3.959 -10.829  17.137  0.00  0.00    +0.140 C 
ENDROOT
BRANCH  12  10
ATOM      2  O   UNL     1      -5.878 -11.477  18.456  0.00  0.00    -0.371 OA
ATOM      8  C   UNL     1      -7.555 -10.036  17.588  0.00  0.00    +0.111 C 
ATOM      9  C   UNL     1      -6.236  -9.726  16.906  0.00  0.00    +0.164 C 
ATOM     10  C   UNL     1      -5.465 -11.015  17.159  0.00  0.00    +0.164 C 
ATOM     11  C   UNL     1      -7.087 -10.788  18.822  0.00  0.00    +0.181 C 
BRANCH   9   3
ATOM      3  O   UNL     1      -6.384  -9.463  15.524  0.00  0.00    -0.388 OA
ATOM     24  H   UNL     1      -6.437  -8.501  15.400  0.00  0.00    +0.210 HD
ENDBRANCH   9   3
BRANCH   8   6
ATOM      6  N   UNL     1      -8.338  -8.854  17.909  0.00  0.00    -0.307 NA
ATOM     23  H   UNL     1      -7.878  -8.019  17.547  0.00  0.00    +0.123 HD
BRANCH   6  13
ATOM     13  C   UNL     1      -9.687  -8.953  17.367  0.00  0.00    +0.048 C 
ATOM     14  C   UNL     1     -10.183  -7.577  16.926  0.00  0.00    +0.023 C 
ATOM     15  C   UNL     1     -10.614  -9.558  18.416  0.00  0.00    +0.023 C 
ENDBRANCH   6  13
ENDBRANCH   8   6
ENDBRANCH  12  10
BRANCH  12   7
ATOM      7  N   UNL     1      -3.541 -10.325  15.813  0.00  0.00    -0.187 NA
ATOM     25  H   UNL     1      -4.150  -9.611  15.396  0.00  0.00    +0.148 HD
BRANCH   7   1
ATOM      1  S   UNL     1      -2.622 -11.312  14.776  0.00  0.00    +0.058 S 
ATOM      4  O   UNL     1      -3.139 -12.666  14.819  0.00  0.00    -0.153 OA
ATOM      5  O   UNL     1      -1.213 -11.062  15.012  0.00  0.00    -0.153 OA
BRANCH   1  16
ATOM     16  C   UNL     1      -3.009 -10.631  13.192  0.00  0.00    +0.105 A 
ATOM     17  C   UNL     1      -4.339 -10.402  12.837  0.00  0.00    +0.029 A 
ATOM     18  C   UNL     1      -1.986 -10.327  12.293  0.00  0.00    +0.029 A 
ATOM     19  C   UNL     1      -4.645  -9.869  11.586  0.00  0.00    +0.005 A 
ATOM     20  C   UNL     1      -2.292  -9.793  11.042  0.00  0.00    +0.005 A 
ATOM     21  C   UNL     1      -3.622  -9.563  10.689  0.00  0.00    -0.050 A 
ATOM     22  C   UNL     1      -3.950  -8.992   9.350  0.00  0.00    +0.044 C 
ENDBRANCH   1  16
ENDBRANCH   7   1
ENDBRANCH  12   7
TORSDOF 7
ENDMDL
MODEL 2
REMARK VINA RESULT:      -6.0     19.195     20.290
REMARK  Name = 75536696
REMARK  10 active torsions:
REMARK  status: ('A' for Active; 'I' for Inactive)
REMARK    1  A    between atoms: S_1  and  N_7
REMARK    2  A    between atoms: S_1  and  C_16
REMARK    3  A    between atoms: O_3  and  C_9
REMARK    4  A    between atoms: N_6  and  C_8
REMARK    5  A    between atoms: N_6  and  C_13
REMARK    6  A    between atoms: N_7  and  C_12
REMARK    7  A    between atoms: C_10  and  C_12
REMARK    8  A    between atoms: C_13  and  C_14
REMARK    9  A    between atoms: C_13  and  C_15
REMARK   10  A    between atoms: C_21  and  C_22
REMARK                            x       y       z     vdW  Elec       q    Type
REMARK                         _______ _______ _______ _____ _____    ______ ____
ROOT
ATOM     12  C   UNL     1     -16.885   2.209  23.929  0.00  0.00    +0.140 C 
ENDROOT
BRANCH  12  10
ATOM      2  O   UNL     1     -17.271   1.348  26.155  0.00  0.00    -0.371 OA
ATOM      8  C   UNL     1     -16.211   3.002  27.490  0.00  0.00    +0.111 C 
ATOM      9  C   UNL     1     -16.017   3.350  26.026  0.00  0.00    +0.164 C 
ATOM     10  C   UNL     1     -17.146   2.555  25.384  0.00  0.00    +0.164 C 
ATOM     11  C   UNL     1     -16.581   1.531  27.404  0.00  0.00    +0.181 C 
BRANCH   9   3
ATOM      3  O   UNL     1     -16.138   4.736  25.774  0.00  0.00    -0.388 OA
ATOM     24  H   UNL     1     -15.903   5.217  26.584  0.00  0.00    +0.210 HD
ENDBRANCH   9   3
BRANCH   8   6
ATOM      6  N   UNL     1     -15.033   3.243  28.308  0.00  0.00    -0.307 NA
ATOM     23  H   UNL     1     -14.757   4.222  28.246  0.00  0.00    +0.123 HD
BRANCH   6  13
ATOM     13  C   UNL     1     -15.276   2.881  29.699  0.00  0.00    +0.048 C 
ATOM     14  C   UNL     1     -15.369   4.137  30.563  0.00  0.00    +0.023 C 
ATOM     15  C   UNL     1     -14.162   1.962  30.188  0.00  0.00    +0.023 C 
ENDBRANCH   6  13
ENDBRANCH   8   6
ENDBRANCH  12  10
BRANCH  12   7
ATOM      7  N   UNL     1     -15.981   3.214  23.335  0.00  0.00    -0.187 NA
ATOM     25  H   UNL     1     -15.101   3.375  23.840  0.00  0.00    +0.148 HD
BRANCH   7   1
ATOM      1  S   UNL     1     -16.614   4.476  22.387  0.00  0.00    +0.058 S 
ATOM      4  O   UNL     1     -17.377   5.375  23.232  0.00  0.00    -0.153 OA
ATOM      5  O   UNL     1     -17.212   3.915  21.192  0.00  0.00    -0.153 OA
BRANCH   1  16
ATOM     16  C   UNL     1     -15.145   5.320  21.882  0.00  0.00    +0.105 A 
ATOM     17  C   UNL     1     -15.232   6.426  21.036  0.00  0.00    +0.029 A 
ATOM     18  C   UNL     1     -13.898   4.879  22.325  0.00  0.00    +0.029 A 
ATOM     19  C   UNL     1     -14.073   7.090  20.634  0.00  0.00    +0.005 A 
ATOM     20  C   UNL     1     -12.739   5.542  21.924  0.00  0.00    +0.005 A 
ATOM     21  C   UNL     1     -12.827   6.649  21.078  0.00  0.00    -0.050 A 
ATOM     22  C   UNL     1     -11.589   7.359  20.649  0.00  0.00    +0.044 C 
ENDBRANCH   1  16
ENDBRANCH   7   1
ENDBRANCH  12   7
TORSDOF 7
ENDMDL
MODEL 3
REMARK VINA RESULT:      -5.8     21.526     25.371
REMARK  Name = 75536696
REMARK  10 active torsions:
REMARK  status: ('A' for Active; 'I' for Inactive)
REMARK    1  A    between atoms: S_1  and  N_7
REMARK    2  A    between atoms: S_1  and  C_16
REMARK    3  A    between atoms: O_3  and  C_9
REMARK    4  A    between atoms: N_6  and  C_8
REMARK    5  A    between atoms: N_6  and  C_13
REMARK    6  A    between atoms: N_7  and  C_12
REMARK    7  A    between atoms: C_10  and  C_12
REMARK    8  A    between atoms: C_13  and  C_14
REMARK    9  A    between atoms: C_13  and  C_15
REMARK   10  A    between atoms: C_21  and  C_22
REMARK                            x       y       z     vdW  Elec       q    Type
REMARK                         _______ _______ _______ _____ _____    ______ ____
ROOT
ATOM     12  C   UNL     1     -15.244   5.470  31.362  0.00  0.00    +0.140 C 
ENDROOT
BRANCH  12  10
ATOM      2  O   UNL     1     -15.778   3.977  29.537  0.00  0.00    -0.371 OA
ATOM      8  C   UNL     1     -14.593   2.018  30.170  0.00  0.00    +0.111 C 
ATOM      9  C   UNL     1     -14.323   3.109  31.189  0.00  0.00    +0.164 C 
ATOM     10  C   UNL     1     -15.509   4.034  30.948  0.00  0.00    +0.164 C 
ATOM     11  C   UNL     1     -15.107   2.827  28.991  0.00  0.00    +0.181 C 
BRANCH   9   3
ATOM      3  O   UNL     1     -14.297   2.621  32.516  0.00  0.00    -0.388 OA
ATOM     24  H   UNL     1     -13.471   2.126  32.644  0.00  0.00    +0.210 HD
ENDBRANCH   9   3
BRANCH   8   6
ATOM      6  N   UNL     1     -13.420   1.223  29.842  0.00  0.00    -0.307 NA
ATOM     23  H   UNL     1     -12.587   1.638  30.258  0.00  0.00    +0.123 HD
BRANCH   6  13
ATOM     13  C   UNL     1     -13.572  -0.152  30.298  0.00  0.00    +0.048 C 
ATOM     14  C   UNL     1     -13.209  -1.124  29.177  0.00  0.00    +0.023 C 
ATOM     15  C   UNL     1     -15.004  -0.376  30.773  0.00  0.00    +0.023 C 
ENDBRANCH   6  13
ENDBRANCH   8   6
ENDBRANCH  12  10
BRANCH  12   7
ATOM      7  N   UNL     1     -14.235   5.497  32.440  0.00  0.00    -0.187 NA
ATOM     25  H   UNL     1     -13.369   4.977  32.252  0.00  0.00    +0.148 HD
BRANCH   7   1
ATOM      1  S   UNL     1     -14.719   5.708  34.057  0.00  0.00    +0.058 S 
ATOM      4  O   UNL     1     -14.480   4.481  34.793  0.00  0.00    -0.153 OA
ATOM      5  O   UNL     1     -16.028   6.329  34.081  0.00  0.00    -0.153 OA
BRANCH   1  16
ATOM     16  C   UNL     1     -13.562   6.918  34.626  0.00  0.00    +0.105 A 
ATOM     17  C   UNL     1     -13.077   6.857  35.932  0.00  0.00    +0.029 A 
ATOM     18  C   UNL     1     -13.138   7.935  33.771  0.00  0.00    +0.029 A 
ATOM     19  C   UNL     1     -12.167   7.814  36.383  0.00  0.00    +0.005 A 
ATOM     20  C   UNL     1     -12.229   8.891  34.221  0.00  0.00    +0.005 A 
ATOM     21  C   UNL     1     -11.742   8.830  35.527  0.00  0.00    -0.050 A 
ATOM     22  C   UNL     1     -10.770   9.852  36.009  0.00  0.00    +0.044 C 
ENDBRANCH   1  16
ENDBRANCH   7   1
ENDBRANCH  12   7
TORSDOF 7
ENDMDL
MODEL 4
REMARK VINA RESULT:      -5.8     23.436     26.441
REMARK  Name = 75536696
REMARK  10 active torsions:
REMARK  status: ('A' for Active; 'I' for Inactive)
REMARK    1  A    between atoms: S_1  and  N_7
REMARK    2  A    between atoms: S_1  and  C_16
REMARK    3  A    between atoms: O_3  and  C_9
REMARK    4  A    between atoms: N_6  and  C_8
REMARK    5  A    between atoms: N_6  and  C_13
REMARK    6  A    between atoms: N_7  and  C_12
REMARK    7  A    between atoms: C_10  and  C_12
REMARK    8  A    between atoms: C_13  and  C_14
REMARK    9  A    between atoms: C_13  and  C_15
REMARK   10  A    between atoms: C_21  and  C_22
REMARK                            x       y       z     vdW  Elec       q    Type
REMARK                         _______ _______ _______ _____ _____    ______ ____
ROOT
ATOM     12  C   UNL     1      12.428   6.004   2.206  0.00  0.00    +0.140 C 
ENDROOT
BRANCH  12  10
ATOM      2  O   UNL     1      10.564   4.807   3.175  0.00  0.00    -0.371 OA
ATOM      8  C   UNL     1      10.479   5.755   5.352  0.00  0.00    +0.111 C 
ATOM      9  C   UNL     1      11.651   6.354   4.598  0.00  0.00    +0.164 C 
ATOM     10  C   UNL     1      11.247   6.073   3.157  0.00  0.00    +0.164 C 
ATOM     11  C   UNL     1      10.202   4.504   4.534  0.00  0.00    +0.181 C 
BRANCH   9   3
ATOM      3  O   UNL     1      11.805   7.739   4.841  0.00  0.00    -0.388 OA
ATOM     24  H   UNL     1      10.924   8.149   4.849  0.00  0.00    +0.210 HD
ENDBRANCH   9   3
BRANCH   8   6
ATOM      6  N   UNL     1      10.768   5.466   6.747  0.00  0.00    -0.307 NA
ATOM     23  H   UNL     1      11.410   6.162   7.124  0.00  0.00    +0.123 HD
BRANCH   6  13
ATOM     13  C   UNL     1       9.546   5.434   7.542  0.00  0.00    +0.048 C 
ATOM     14  C   UNL     1       9.193   6.840   8.025  0.00  0.00    +0.023 C 
ATOM     15  C   UNL     1       9.730   4.482   8.719  0.00  0.00    +0.023 C 
ENDBRANCH   6  13
ENDBRANCH   8   6
ENDBRANCH  12  10
BRANCH  12   7
ATOM      7  N   UNL     1      13.006   4.646   2.229  0.00  0.00    -0.187 NA
ATOM     25  H   UNL     1      12.772   4.077   3.052  0.00  0.00    +0.148 HD
BRANCH   7   1
ATOM      1  S   UNL     1      14.461   4.323   1.410  0.00  0.00    +0.058 S 
ATOM      4  O   UNL     1      15.063   3.122   1.955  0.00  0.00    -0.153 OA
ATOM      5  O   UNL     1      15.232   5.548   1.318  0.00  0.00    -0.153 OA
BRANCH   1  16
ATOM     16  C   UNL     1      13.884   3.952  -0.220  0.00  0.00    +0.105 A 
ATOM     17  C   UNL     1      14.552   4.469  -1.330  0.00  0.00    +0.029 A 
ATOM     18  C   UNL     1      12.759   3.147  -0.395  0.00  0.00    +0.029 A 
ATOM     19  C   UNL     1      14.095   4.179  -2.615  0.00  0.00    +0.005 A 
ATOM     20  C   UNL     1      12.302   2.857  -1.681  0.00  0.00    +0.005 A 
ATOM     21  C   UNL     1      12.971   3.373  -2.791  0.00  0.00    -0.050 A 
ATOM     22  C   UNL     1      12.483   3.063  -4.166  0.00  0.00    +0.044 C 
ENDBRANCH   1  16
ENDBRANCH   7   1
ENDBRANCH  12   7
TORSDOF 7
ENDMDL
MODEL 5
REMARK VINA RESULT:      -5.7      1.653      2.528
REMARK  Name = 75536696
REMARK  10 active torsions:
REMARK  status: ('A' for Active; 'I' for Inactive)
REMARK    1  A    between atoms: S_1  and  N_7
REMARK    2  A    between atoms: S_1  and  C_16
REMARK    3  A    between atoms: O_3  and  C_9
REMARK    4  A    between atoms: N_6  and  C_8
REMARK    5  A    between atoms: N_6  and  C_13
REMARK    6  A    between atoms: N_7  and  C_12
REMARK    7  A    between atoms: C_10  and  C_12
REMARK    8  A    between atoms: C_13  and  C_14
REMARK    9  A    between atoms: C_13  and  C_15
REMARK   10  A    between atoms: C_21  and  C_22
REMARK                            x       y       z     vdW  Elec       q    Type
REMARK                         _______ _______ _______ _____ _____    ______ ____
ROOT
ATOM     12  C   UNL     1      -4.160 -11.299  16.441  0.00  0.00    +0.140 C 
ENDROOT
BRANCH  12  10
ATOM      2  O   UNL     1      -6.039  -9.923  17.091  0.00  0.00    -0.371 OA
ATOM      8  C   UNL     1      -6.482 -10.735  19.279  0.00  0.00    +0.111 C 
ATOM      9  C   UNL     1      -5.346 -11.539  18.675  0.00  0.00    +0.164 C 
ATOM     10  C   UNL     1      -4.865 -10.591  17.584  0.00  0.00    +0.164 C 
ATOM     11  C   UNL     1      -7.104 -10.113  18.040  0.00  0.00    +0.181 C 
BRANCH   9   3
ATOM      3  O   UNL     1      -4.325 -11.828  19.609  0.00  0.00    -0.388 OA
ATOM     24  H   UNL     1      -3.806 -11.020  19.756  0.00  0.00    +0.210 HD
ENDBRANCH   9   3
BRANCH   8   6
ATOM      6  N   UNL     1      -7.424 -11.538  20.041  0.00  0.00    -0.307 NA
ATOM     23  H   UNL     1      -7.691 -11.050  20.895  0.00  0.00    +0.123 HD
BRANCH   6  13
ATOM     13  C   UNL     1      -8.610 -11.848  19.253  0.00  0.00    +0.048 C 
ATOM     14  C   UNL     1      -9.868 -11.395  19.991  0.00  0.00    +0.023 C 
ATOM     15  C   UNL     1      -8.654 -13.345  18.965  0.00  0.00    +0.023 C 
ENDBRANCH   6  13
ENDBRANCH   8   6
ENDBRANCH  12  10
BRANCH  12   7
ATOM      7  N   UNL     1      -3.470 -10.307  15.593  0.00  0.00    -0.187 NA
ATOM     25  H   UNL     1      -4.038  -9.505  15.293  0.00  0.00    +0.148 HD
BRANCH   7   1
ATOM      1  S   UNL     1      -2.162 -10.783  14.616  0.00  0.00    +0.058 S 
ATOM      4  O   UNL     1      -2.038 -12.228  14.649  0.00  0.00    -0.153 OA
ATOM      5  O   UNL     1      -1.017  -9.946  14.919  0.00  0.00    -0.153 OA
BRANCH   1  16
ATOM     16  C   UNL     1      -2.727 -10.322  13.005  0.00  0.00    +0.105 A 
ATOM     17  C   UNL     1      -1.807  -9.949  12.024  0.00  0.00    +0.029 A 
ATOM     18  C   UNL     1      -4.091 -10.327  12.716  0.00  0.00    +0.029 A 
ATOM     19  C   UNL     1      -2.253  -9.582  10.755  0.00  0.00    +0.005 A 
ATOM     20  C   UNL     1      -4.537  -9.960  11.447  0.00  0.00    +0.005 A 
ATOM     21  C   UNL     1      -3.617  -9.588  10.466  0.00  0.00    -0.050 A 
ATOM     22  C   UNL     1      -4.093  -9.195   9.108  0.00  0.00    +0.044 C 
ENDBRANCH   1  16
ENDBRANCH   7   1
ENDBRANCH  12   7
TORSDOF 7
ENDMDL
MODEL 6
REMARK VINA RESULT:      -5.4     18.112     20.987
REMARK  Name = 75536696
REMARK  10 active torsions:
REMARK  status: ('A' for Active; 'I' for Inactive)
REMARK    1  A    between atoms: S_1  and  N_7
REMARK    2  A    between atoms: S_1  and  C_16
REMARK    3  A    between atoms: O_3  and  C_9
REMARK    4  A    between atoms: N_6  and  C_8
REMARK    5  A    between atoms: N_6  and  C_13
REMARK    6  A    between atoms: N_7  and  C_12
REMARK    7  A    between atoms: C_10  and  C_12
REMARK    8  A    between atoms: C_13  and  C_14
REMARK    9  A    between atoms: C_13  and  C_15
REMARK   10  A    between atoms: C_21  and  C_22
REMARK                            x       y       z     vdW  Elec       q    Type
REMARK                         _______ _______ _______ _____ _____    ______ ____
ROOT
ATOM     12  C   UNL     1      -0.335 -12.956  -7.300  0.00  0.00    +0.140 C 
ENDROOT
BRANCH  12  10
ATOM      2  O   UNL     1      -0.869 -14.786  -5.812  0.00  0.00    -0.371 OA
ATOM      8  C   UNL     1      -2.088 -13.667  -4.109  0.00  0.00    +0.111 C 
ATOM      9  C   UNL     1      -1.609 -12.647  -5.124  0.00  0.00    +0.164 C 
ATOM     10  C   UNL     1      -1.352 -13.536  -6.334  0.00  0.00    +0.164 C 
ATOM     11  C   UNL     1      -1.173 -14.843  -4.408  0.00  0.00    +0.181 C 
BRANCH   9   3
ATOM      3  O   UNL     1      -2.577 -11.653  -5.398  0.00  0.00    -0.388 OA
ATOM     24  H   UNL     1      -3.443 -11.979  -5.101  0.00  0.00    +0.210 HD
ENDBRANCH   9   3
BRANCH   8   6
ATOM      6  N   UNL     1      -1.991 -13.210  -2.732  0.00  0.00    -0.307 NA
ATOM     23  H   UNL     1      -2.058 -12.194  -2.694  0.00  0.00    +0.123 HD
BRANCH   6  13
ATOM     13  C   UNL     1      -3.031 -13.809  -1.904  0.00  0.00    +0.048 C 
ATOM     14  C   UNL     1      -4.390 -13.684  -2.590  0.00  0.00    +0.023 C 
ATOM     15  C   UNL     1      -3.044 -13.134  -0.537  0.00  0.00    +0.023 C 
ENDBRANCH   6  13
ENDBRANCH   8   6
ENDBRANCH  12  10
BRANCH  12   7
ATOM      7  N   UNL     1       0.403 -11.859  -6.644  0.00  0.00    -0.187 NA
ATOM     25  H   UNL     1      -0.024 -10.927  -6.721  0.00  0.00    +0.148 HD
BRANCH   7   1
ATOM      1  S   UNL     1       2.089 -11.963  -6.446  0.00  0.00    +0.058 S 
ATOM      4  O   UNL     1       2.623 -10.643  -6.169  0.00  0.00    -0.153 OA
ATOM      5  O   UNL     1       2.642 -12.762  -7.522  0.00  0.00    -0.153 OA
BRANCH   1  16
ATOM     16  C   UNL     1       2.221 -12.924  -4.968  0.00  0.00    +0.105 A 
ATOM     17  C   UNL     1       2.931 -14.125  -4.979  0.00  0.00    +0.029 A 
ATOM     18  C   UNL     1       1.613 -12.485  -3.792  0.00  0.00    +0.029 A 
ATOM     19  C   UNL     1       3.032 -14.885  -3.814  0.00  0.00    +0.005 A 
ATOM     20  C   UNL     1       1.714 -13.245  -2.627  0.00  0.00    +0.005 A 
ATOM     21  C   UNL     1       2.425 -14.445  -2.639  0.00  0.00    -0.050 A 
ATOM     22  C   UNL     1       2.534 -15.258  -1.393  0.00  0.00    +0.044 C 
ENDBRANCH   1  16
ENDBRANCH   7   1
ENDBRANCH  12   7
TORSDOF 7
ENDMDL
MODEL 7
REMARK VINA RESULT:      -5.4     22.975     26.390
REMARK  Name = 75536696
REMARK  10 active torsions:
REMARK  status: ('A' for Active; 'I' for Inactive)
REMARK    1  A    between atoms: S_1  and  N_7
REMARK    2  A    between atoms: S_1  and  C_16
REMARK    3  A    between atoms: O_3  and  C_9
REMARK    4  A    between atoms: N_6  and  C_8
REMARK    5  A    between atoms: N_6  and  C_13
REMARK    6  A    between atoms: N_7  and  C_12
REMARK    7  A    between atoms: C_10  and  C_12
REMARK    8  A    between atoms: C_13  and  C_14
REMARK    9  A    between atoms: C_13  and  C_15
REMARK   10  A    between atoms: C_21  and  C_22
REMARK                            x       y       z     vdW  Elec       q    Type
REMARK                         _______ _______ _______ _____ _____    ______ ____
ROOT
ATOM     12  C   UNL     1       9.377   7.258   2.380  0.00  0.00    +0.140 C 
ENDROOT
BRANCH  12  10
ATOM      2  O   UNL     1      11.047   6.990   0.653  0.00  0.00    -0.371 OA
ATOM      8  C   UNL     1      12.395   5.259   1.566  0.00  0.00    +0.111 C 
ATOM      9  C   UNL     1      11.304   5.612   2.559  0.00  0.00    +0.164 C 
ATOM     10  C   UNL     1      10.285   6.286   1.649  0.00  0.00    +0.164 C 
ATOM     11  C   UNL     1      12.395   6.487   0.670  0.00  0.00    +0.181 C 
BRANCH   9   3
ATOM      3  O   UNL     1      10.763   4.475   3.202  0.00  0.00    -0.388 OA
ATOM     24  H   UNL     1      10.238   4.774   3.963  0.00  0.00    +0.210 HD
ENDBRANCH   9   3
BRANCH   8   6
ATOM      6  N   UNL     1      13.687   5.009   2.182  0.00  0.00    -0.307 NA
ATOM     23  H   UNL     1      13.591   4.974   3.196  0.00  0.00    +0.123 HD
BRANCH   6  13
ATOM     13  C   UNL     1      14.270   3.765   1.695  0.00  0.00    +0.048 C 
ATOM     14  C   UNL     1      15.408   4.061   0.720  0.00  0.00    +0.023 C 
ATOM     15  C   UNL     1      13.187   2.921   1.031  0.00  0.00    +0.023 C 
ENDBRANCH   6  13
ENDBRANCH   8   6
ENDBRANCH  12  10
BRANCH  12   7
ATOM      7  N   UNL     1       9.244   6.846   3.792  0.00  0.00    -0.187 NA
ATOM     25  H   UNL     1       8.656   6.021   3.961  0.00  0.00    +0.148 HD
BRANCH   7   1
ATOM      1  S   UNL     1       9.402   7.996   5.035  0.00  0.00    +0.058 S 
ATOM      4  O   UNL     1       8.215   8.829   5.073  0.00  0.00    -0.153 OA
ATOM      5  O   UNL     1      10.716   8.604   4.951  0.00  0.00    -0.153 OA
BRANCH   1  16
ATOM     16  C   UNL     1       9.397   6.974   6.477  0.00  0.00    +0.105 A 
ATOM     17  C   UNL     1       9.815   5.646   6.392  0.00  0.00    +0.029 A 
ATOM     18  C   UNL     1       8.971   7.493   7.700  0.00  0.00    +0.029 A 
ATOM     19  C   UNL     1       9.808   4.838   7.529  0.00  0.00    +0.005 A 
ATOM     20  C   UNL     1       8.963   6.686   8.837  0.00  0.00    +0.005 A 
ATOM     21  C   UNL     1       9.383   5.358   8.751  0.00  0.00    -0.050 A 
ATOM     22  C   UNL     1       9.375   4.494   9.966  0.00  0.00    +0.044 C 
ENDBRANCH   1  16
ENDBRANCH   7   1
ENDBRANCH  12   7
TORSDOF 7
ENDMDL
MODEL 8
REMARK VINA RESULT:      -5.4     19.371     21.041
REMARK  Name = 75536696
REMARK  10 active torsions:
REMARK  status: ('A' for Active; 'I' for Inactive)
REMARK    1  A    between atoms: S_1  and  N_7
REMARK    2  A    between atoms: S_1  and  C_16
REMARK    3  A    between atoms: O_3  and  C_9
REMARK    4  A    between atoms: N_6  and  C_8
REMARK    5  A    between atoms: N_6  and  C_13
REMARK    6  A    between atoms: N_7  and  C_12
REMARK    7  A    between atoms: C_10  and  C_12
REMARK    8  A    between atoms: C_13  and  C_14
REMARK    9  A    between atoms: C_13  and  C_15
REMARK   10  A    between atoms: C_21  and  C_22
REMARK                            x       y       z     vdW  Elec       q    Type
REMARK                         _______ _______ _______ _____ _____    ______ ____
ROOT
ATOM     12  C   UNL     1     -16.746   1.116  25.909  0.00  0.00    +0.140 C 
ENDROOT
BRANCH  12  10
ATOM      2  O   UNL     1     -16.517   0.570  28.252  0.00  0.00    -0.371 OA
ATOM      8  C   UNL     1     -15.603   2.584  29.118  0.00  0.00    +0.111 C 
ATOM      9  C   UNL     1     -15.764   2.721  27.615  0.00  0.00    +0.164 C 
ATOM     10  C   UNL     1     -16.798   1.638  27.333  0.00  0.00    +0.164 C 
ATOM     11  C   UNL     1     -15.660   1.076  29.292  0.00  0.00    +0.181 C 
BRANCH   9   3
ATOM      3  O   UNL     1     -16.223   4.001  27.230  0.00  0.00    -0.388 OA
ATOM     24  H   UNL     1     -16.443   3.976  26.284  0.00  0.00    +0.210 HD
ENDBRANCH   9   3
BRANCH   8   6
ATOM      6  N   UNL     1     -14.372   3.166  29.628  0.00  0.00    -0.307 NA
ATOM     23  H   UNL     1     -14.283   4.131  29.312  0.00  0.00    +0.123 HD
BRANCH   6  13
ATOM     13  C   UNL     1     -14.329   3.112  31.084  0.00  0.00    +0.048 C 
ATOM     14  C   UNL     1     -15.379   4.049  31.679  0.00  0.00    +0.023 C 
ATOM     15  C   UNL     1     -12.930   3.483  31.565  0.00  0.00    +0.023 C 
ENDBRANCH   6  13
ENDBRANCH   8   6
ENDBRANCH  12  10
BRANCH  12   7
ATOM      7  N   UNL     1     -16.189   2.154  25.019  0.00  0.00    -0.187 NA
ATOM     25  H   UNL     1     -15.474   2.763  25.438  0.00  0.00    +0.148 HD
BRANCH   7   1
ATOM      1  S   UNL     1     -17.119   2.765  23.733  0.00  0.00    +0.058 S 
ATOM      4  O   UNL     1     -18.488   2.949  24.175  0.00  0.00    -0.153 OA
ATOM      5  O   UNL     1     -16.836   1.993  22.538  0.00  0.00    -0.153 OA
BRANCH   1  16
ATOM     16  C   UNL     1     -16.403   4.364  23.495  0.00  0.00    +0.105 A 
ATOM     17  C   UNL     1     -15.079   4.479  23.073  0.00  0.00    +0.029 A 
ATOM     18  C   UNL     1     -17.161   5.510  23.734  0.00  0.00    +0.029 A 
ATOM     19  C   UNL     1     -14.513   5.741  22.889  0.00  0.00    +0.005 A 
ATOM     20  C   UNL     1     -16.596   6.772  23.550  0.00  0.00    +0.005 A 
ATOM     21  C   UNL     1     -15.271   6.887  23.127  0.00  0.00    -0.050 A 
ATOM     22  C   UNL     1     -14.666   8.235  22.930  0.00  0.00    +0.044 C 
ENDBRANCH   1  16
ENDBRANCH   7   1
ENDBRANCH  12   7
TORSDOF 7
ENDMDL
MODEL 9
REMARK VINA RESULT:      -5.3     18.833     20.721
REMARK  Name = 75536696
REMARK  10 active torsions:
REMARK  status: ('A' for Active; 'I' for Inactive)
REMARK    1  A    between atoms: S_1  and  N_7
REMARK    2  A    between atoms: S_1  and  C_16
REMARK    3  A    between atoms: O_3  and  C_9
REMARK    4  A    between atoms: N_6  and  C_8
REMARK    5  A    between atoms: N_6  and  C_13
REMARK    6  A    between atoms: N_7  and  C_12
REMARK    7  A    between atoms: C_10  and  C_12
REMARK    8  A    between atoms: C_13  and  C_14
REMARK    9  A    between atoms: C_13  and  C_15
REMARK   10  A    between atoms: C_21  and  C_22
REMARK                            x       y       z     vdW  Elec       q    Type
REMARK                         _______ _______ _______ _____ _____    ______ ____
ROOT
ATOM     12  C   UNL     1     -10.379   9.224  16.358  0.00  0.00    +0.140 C 
ENDROOT
BRANCH  12  10
ATOM      2  O   UNL     1     -10.290   8.188  14.175  0.00  0.00    -0.371 OA
ATOM      8  C   UNL     1     -12.598   7.850  13.721  0.00  0.00    +0.111 C 
ATOM      9  C   UNL     1     -12.450   8.451  15.106  0.00  0.00    +0.164 C 
ATOM     10  C   UNL     1     -11.061   9.069  15.010  0.00  0.00    +0.164 C 
ATOM     11  C   UNL     1     -11.196   7.319  13.471  0.00  0.00    +0.181 C 
BRANCH   9   3
ATOM      3  O   UNL     1     -13.439   9.421  15.388  0.00  0.00    -0.388 OA
ATOM     24  H   UNL     1     -12.996  10.239  15.669  0.00  0.00    +0.210 HD
ENDBRANCH   9   3
BRANCH   8   6
ATOM      6  N   UNL     1     -13.617   6.817  13.638  0.00  0.00    -0.307 NA
ATOM     23  H   UNL     1     -14.133   6.763  14.516  0.00  0.00    +0.123 HD
BRANCH   6  13
ATOM     13  C   UNL     1     -14.535   7.070  12.535  0.00  0.00    +0.048 C 
ATOM     14  C   UNL     1     -15.681   7.968  12.998  0.00  0.00    +0.023 C 
ATOM     15  C   UNL     1     -15.062   5.745  11.997  0.00  0.00    +0.023 C 
ENDBRANCH   6  13
ENDBRANCH   8   6
ENDBRANCH  12  10
BRANCH  12   7
ATOM      7  N   UNL     1     -11.183   8.556  17.400  0.00  0.00    -0.187 NA
ATOM     25  H   UNL     1     -11.656   7.691  17.112  0.00  0.00    +0.148 HD
BRANCH   7   1
ATOM      1  S   UNL     1     -11.860   9.465  18.669  0.00  0.00    +0.058 S 
ATOM      4  O   UNL     1     -13.009  10.199  18.173  0.00  0.00    -0.153 OA
ATOM      5  O   UNL     1     -10.798  10.160  19.370  0.00  0.00    -0.153 OA
BRANCH   1  16
ATOM     16  C   UNL     1     -12.449   8.196  19.749  0.00  0.00    +0.105 A 
ATOM     17  C   UNL     1     -11.545   7.329  20.364  0.00  0.00    +0.029 A 
ATOM     18  C   UNL     1     -13.817   8.059  19.985  0.00  0.00    +0.029 A 
ATOM     19  C   UNL     1     -12.009   6.326  21.214  0.00  0.00    +0.005 A 
ATOM     20  C   UNL     1     -14.281   7.056  20.835  0.00  0.00    +0.005 A 
ATOM     21  C   UNL     1     -13.377   6.190  21.450  0.00  0.00    -0.050 A 
ATOM     22  C   UNL     1     -13.873   5.117  22.360  0.00  0.00    +0.044 C 
ENDBRANCH   1  16
ENDBRANCH   7   1
ENDBRANCH  12   7
TORSDOF 7
ENDMDL
MODEL 10
REMARK VINA RESULT:      -5.3      2.220      3.185
REMARK  Name = 75536696
REMARK  10 active torsions:
REMARK  status: ('A' for Active; 'I' for Inactive)
REMARK    1  A    between atoms: S_1  and  N_7
REMARK    2  A    between atoms: S_1  and  C_16
REMARK    3  A    between atoms: O_3  and  C_9
REMARK    4  A    between atoms: N_6  and  C_8
REMARK    5  A    between atoms: N_6  and  C_13
REMARK    6  A    between atoms: N_7  and  C_12
REMARK    7  A    between atoms: C_10  and  C_12
REMARK    8  A    between atoms: C_13  and  C_14
REMARK    9  A    between atoms: C_13  and  C_15
REMARK   10  A    between atoms: C_21  and  C_22
REMARK                            x       y       z     vdW  Elec       q    Type
REMARK                         _______ _______ _______ _____ _____    ______ ____
ROOT
ATOM     12  C   UNL     1      -2.858 -11.174  15.139  0.00  0.00    +0.140 C 
ENDROOT
BRANCH  12  10
ATOM      2  O   UNL     1      -4.979 -10.113  15.612  0.00  0.00    -0.371 OA
ATOM      8  C   UNL     1      -5.607 -11.197  17.630  0.00  0.00    +0.111 C 
ATOM      9  C   UNL     1      -4.300 -11.788  17.138  0.00  0.00    +0.164 C 
ATOM     10  C   UNL     1      -3.805 -10.680  16.218  0.00  0.00    +0.164 C 
ATOM     11  C   UNL     1      -6.129 -10.529  16.369  0.00  0.00    +0.181 C 
BRANCH   9   3
ATOM      3  O   UNL     1      -3.389 -12.047  18.188  0.00  0.00    -0.388 OA
ATOM     24  H   UNL     1      -2.882 -12.845  17.965  0.00  0.00    +0.210 HD
ENDBRANCH   9   3
BRANCH   8   6
ATOM      6  N   UNL     1      -6.528 -12.184  18.169  0.00  0.00    -0.307 NA
ATOM     23  H   UNL     1      -6.067 -13.090  18.244  0.00  0.00    +0.123 HD
BRANCH   6  13
ATOM     13  C   UNL     1      -7.035 -11.774  19.473  0.00  0.00    +0.048 C 
ATOM     14  C   UNL     1      -8.452 -11.220  19.339  0.00  0.00    +0.023 C 
ATOM     15  C   UNL     1      -6.097 -10.737  20.080  0.00  0.00    +0.023 C 
ENDBRANCH   6  13
ENDBRANCH   8   6
ENDBRANCH  12  10
BRANCH  12   7
ATOM      7  N   UNL     1      -2.814 -10.196  14.033  0.00  0.00    -0.187 NA
ATOM     25  H   UNL     1      -3.449  -9.393  14.123  0.00  0.00    +0.148 HD
BRANCH   7   1
ATOM      1  S   UNL     1      -2.352 -10.693  12.474  0.00  0.00    +0.058 S 
ATOM      4  O   UNL     1      -2.461 -12.135  12.377  0.00  0.00    -0.153 OA
ATOM      5  O   UNL     1      -1.113 -10.030  12.115  0.00  0.00    -0.153 OA
BRANCH   1  16
ATOM     16  C   UNL     1      -3.625  -9.982  11.475  0.00  0.00    +0.105 A 
ATOM     17  C   UNL     1      -3.301  -9.361  10.269  0.00  0.00    +0.029 A 
ATOM     18  C   UNL     1      -4.955 -10.037  11.895  0.00  0.00    +0.029 A 
ATOM     19  C   UNL     1      -4.305  -8.797   9.483  0.00  0.00    +0.005 A 
ATOM     20  C   UNL     1      -5.959  -9.474  11.109  0.00  0.00    +0.005 A 
ATOM     21  C   UNL     1      -5.634  -8.854   9.902  0.00  0.00    -0.050 A 
ATOM     22  C   UNL     1      -6.708  -8.251   9.061  0.00  0.00    +0.044 C 
ENDBRANCH   1  16
ENDBRANCH   7   1
ENDBRANCH  12   7
TORSDOF 7
ENDMDL
