REMARK  Name = 75536585
REMARK  9 active torsions:
REMARK  status: ('A' for Active; 'I' for Inactive)
REMARK    1  A    between atoms: O_2  and  C_10
REMARK    2  A    between atoms: O_4  and  C_17
REMARK    3  A    between atoms: O_4  and  C_20
REMARK    4  A    between atoms: N_5  and  C_9
REMARK    5  A    between atoms: N_5  and  C_14
REMARK    6  A    between atoms: N_6  and  C_13
REMARK    7  A    between atoms: C_11  and  C_13
REMARK    8  A    between atoms: C_14  and  C_15
REMARK    9  A    between atoms: C_16  and  C_17
REMARK                            x       y       z     vdW  Elec       q    Type
REMARK                         _______ _______ _______ _____ _____    ______ ____
ROOT
ATOM      1  O   UNL     1       0.882  -1.206   0.123  0.00  0.00    -0.371 OA
ATOM      9  C   UNL     1      -1.082   0.057  -0.312  0.00  0.00    +0.111 C 
ATOM     10  C   UNL     1      -0.104   0.916   0.468  0.00  0.00    +0.164 C 
ATOM     11  C   UNL     1       1.207   0.193   0.192  0.00  0.00    +0.165 C 
ATOM     12  C   UNL     1      -0.541  -1.337  -0.041  0.00  0.00    +0.181 C 
ENDROOT
BRANCH  10   2
ATOM      2  O   UNL     1      -0.073   2.256   0.016  0.00  0.00    -0.388 OA
ATOM     22  H   UNL     1       0.136   2.254  -0.933  0.00  0.00    +0.210 HD
ENDBRANCH  10   2
BRANCH   9   5
ATOM      5  N   UNL     1      -2.465   0.219   0.107  0.00  0.00    -0.302 NA
ATOM     21  H   UNL     1      -2.668   1.214   0.208  0.00  0.00    +0.123 HD
BRANCH   5  14
ATOM     14  C   UNL     1      -3.381  -0.352  -0.873  0.00  0.00    +0.156 C 
BRANCH  14  15
ATOM      7  N   UNL     1      -5.360  -1.015   0.514  0.00  0.00    -0.347 N 
ATOM      8  N   UNL     1      -5.694   0.655  -0.911  0.00  0.00    -0.240 NA
ATOM     15  C   UNL     1      -4.818  -0.208  -0.448  0.00  0.00    +0.121 A 
ATOM     18  C   UNL     1      -6.665  -0.642   0.674  0.00  0.00    +0.104 A 
ATOM     19  C   UNL     1      -6.848   0.390  -0.216  0.00  0.00    +0.130 A 
ATOM     24  H   UNL     1      -4.883  -1.752   1.017  0.00  0.00    +0.167 HD
ENDBRANCH  14  15
ENDBRANCH   5  14
ENDBRANCH   9   5
BRANCH  11  13
ATOM     13  C   UNL     1       2.257   0.423   1.264  0.00  0.00    +0.138 C 
BRANCH  13   6
ATOM      3  O   UNL     1       4.513   1.406  -0.258  0.00  0.00    -0.273 OA
ATOM      6  N   UNL     1       3.471  -0.279   0.964  0.00  0.00    -0.311 N 
ATOM     16  C   UNL     1       4.510   0.275   0.221  0.00  0.00    +0.239 C 
ATOM     23  H   UNL     1       3.565  -1.231   1.307  0.00  0.00    +0.149 HD
BRANCH  16  17
ATOM     17  C   UNL     1       5.668  -0.686   0.059  0.00  0.00    +0.255 C 
BRANCH  17   4
ATOM      4  O   UNL     1       6.709  -0.091  -0.687  0.00  0.00    -0.374 OA
ATOM     20  C   UNL     1       7.814  -0.974  -0.855  0.00  0.00    +0.194 C 
ENDBRANCH  17   4
ENDBRANCH  16  17
ENDBRANCH  13   6
ENDBRANCH  11  13
TORSDOF 8
