MODEL 1
REMARK VINA RESULT:      -7.7      0.000      0.000
REMARK  Name = 40777165
REMARK  7 active torsions:
REMARK  status: ('A' for Active; 'I' for Inactive)
REMARK    1  A    between atoms: N_7  and  C_17
REMARK    2  A    between atoms: C_11  and  C_18
REMARK    3  A    between atoms: C_12  and  C_17
REMARK    4  A    between atoms: C_20  and  C_23
REMARK    5  A    between atoms: C_21  and  C_24
REMARK    6  A    between atoms: C_22  and  C_25
REMARK    7  A    between atoms: C_31  and  C_34
REMARK                            x       y       z     vdW  Elec       q    Type
REMARK                         _______ _______ _______ _____ _____    ______ ____
ROOT
ATOM      6  N   UNL     1      11.712  11.838  25.351  0.00  0.00    -0.297 NA
ATOM     10  C   UNL     1      11.222  12.510  22.882  0.00  0.00    +0.002 C 
ATOM     11  C   UNL     1      10.836  11.025  23.129  0.00  0.00    +0.055 C 
ATOM     12  C   UNL     1      12.904  12.500  24.758  0.00  0.00    +0.074 C 
ATOM     13  C   UNL     1      12.708  12.717  23.241  0.00  0.00    +0.024 C 
ATOM     14  C   UNL     1      10.393  13.355  23.874  0.00  0.00    +0.019 C 
ATOM     15  C   UNL     1      11.341  10.644  24.550  0.00  0.00    +0.094 C 
ATOM     16  C   UNL     1      10.585  12.800  25.296  0.00  0.00    +0.085 C 
ENDROOT
BRANCH  11  18
ATOM      8  N   UNL     1      10.900   8.712  22.333  0.00  0.00    -0.237 NA
ATOM      9  N   UNL     1      11.923   8.104  20.237  0.00  0.00    -0.232 NA
ATOM     18  C   UNL     1      11.234   9.995  22.080  0.00  0.00    +0.050 A 
ATOM     19  C   UNL     1      11.904  10.405  20.946  0.00  0.00    +0.052 A 
ATOM     20  C   UNL     1      12.227   9.406  20.049  0.00  0.00    +0.075 A 
ATOM     21  C   UNL     1      11.269   7.832  21.383  0.00  0.00    +0.127 A 
ATOM     24  C   UNL     1      10.920   6.403  21.626  0.00  0.00    +0.088 C 
BRANCH  20  23
ATOM     23  C   UNL     1      12.929   9.702  18.824  0.00  0.00    +0.000 A 
ATOM     26  C   UNL     1      13.396  10.994  18.582  0.00  0.00    +0.010 A 
ATOM     27  C   UNL     1      13.142   8.696  17.881  0.00  0.00    +0.010 A 
ATOM     29  C   UNL     1      14.075  11.281  17.398  0.00  0.00    +0.013 A 
ATOM     30  C   UNL     1      13.821   8.982  16.698  0.00  0.00    +0.013 A 
ATOM     31  C   UNL     1      14.288  10.274  16.455  0.00  0.00    +0.055 A 
BRANCH  31  34
ATOM      1  F   UNL     1      16.166  11.288  15.377  0.00  0.00    -0.166 F 
ATOM      2  F   UNL     1      14.266  11.320  14.321  0.00  0.00    -0.166 F 
ATOM      3  F   UNL     1      15.389   9.467  14.491  0.00  0.00    -0.166 F 
ATOM     34  C   UNL     1      15.013  10.580  15.190  0.00  0.00    +0.417 C 
ENDBRANCH  31  34
ENDBRANCH  20  23
ENDBRANCH  11  18
BRANCH  12  17
ATOM     17  C   UNL     1      14.200  11.746  25.062  0.00  0.00    +0.123 C 
BRANCH  17   7
ATOM      4  O   UNL     1      16.088  11.914  22.905  0.00  0.00    -0.267 OA
ATOM      7  N   UNL     1      14.455  10.747  24.071  0.00  0.00    -0.307 N 
ATOM     22  C   UNL     1      15.394  10.911  23.053  0.00  0.00    +0.279 C 
ATOM     35  H   UNL     1      13.918   9.885  24.109  0.00  0.00    +0.149 HD
BRANCH  22  25
ATOM      5  O   UNL     1      14.939   8.606  22.406  0.00  0.00    -0.458 OA
ATOM     25  C   UNL     1      15.521   9.792  22.086  0.00  0.00    +0.189 A 
ATOM     28  C   UNL     1      16.144   9.709  20.862  0.00  0.00    +0.054 A 
ATOM     32  C   UNL     1      15.930   8.388  20.400  0.00  0.00    +0.042 A 
ATOM     33  C   UNL     1      15.192   7.757  21.376  0.00  0.00    +0.196 A 
ENDBRANCH  22  25
ENDBRANCH  17   7
ENDBRANCH  12  17
TORSDOF 6
ENDMDL
MODEL 2
REMARK VINA RESULT:      -7.3     26.557     29.451
REMARK  Name = 40777165
REMARK  7 active torsions:
REMARK  status: ('A' for Active; 'I' for Inactive)
REMARK    1  A    between atoms: N_7  and  C_17
REMARK    2  A    between atoms: C_11  and  C_18
REMARK    3  A    between atoms: C_12  and  C_17
REMARK    4  A    between atoms: C_20  and  C_23
REMARK    5  A    between atoms: C_21  and  C_24
REMARK    6  A    between atoms: C_22  and  C_25
REMARK    7  A    between atoms: C_31  and  C_34
REMARK                            x       y       z     vdW  Elec       q    Type
REMARK                         _______ _______ _______ _____ _____    ______ ____
ROOT
ATOM      6  N   UNL     1      -7.477 -11.648  17.892  0.00  0.00    -0.297 NA
ATOM     10  C   UNL     1      -5.019 -11.174  18.614  0.00  0.00    +0.002 C 
ATOM     11  C   UNL     1      -5.353 -10.425  17.294  0.00  0.00    +0.055 C 
ATOM     12  C   UNL     1      -6.780 -12.926  18.194  0.00  0.00    +0.074 C 
ATOM     13  C   UNL     1      -5.272 -12.684  18.420  0.00  0.00    +0.024 C 
ATOM     14  C   UNL     1      -6.026 -10.677  19.673  0.00  0.00    +0.019 C 
ATOM     15  C   UNL     1      -6.753 -10.913  16.824  0.00  0.00    +0.094 C 
ATOM     16  C   UNL     1      -7.454 -10.817  19.120  0.00  0.00    +0.085 C 
ENDROOT
BRANCH  11  18
ATOM      8  N   UNL     1      -3.026 -10.449  16.538  0.00  0.00    -0.237 NA
ATOM      9  N   UNL     1      -2.436 -10.505  14.202  0.00  0.00    -0.232 NA
ATOM     18  C   UNL     1      -4.325 -10.454  16.171  0.00  0.00    +0.050 A 
ATOM     19  C   UNL     1      -4.752 -10.484  14.859  0.00  0.00    +0.052 A 
ATOM     20  C   UNL     1      -3.753 -10.509  13.906  0.00  0.00    +0.075 A 
ATOM     21  C   UNL     1      -2.148 -10.475  15.517  0.00  0.00    +0.127 A 
ATOM     24  C   UNL     1      -0.703 -10.466  15.882  0.00  0.00    +0.088 C 
BRANCH  20  23
ATOM     23  C   UNL     1      -4.066 -10.540  12.499  0.00  0.00    +0.000 A 
ATOM     26  C   UNL     1      -5.388 -10.696  12.081  0.00  0.00    +0.010 A 
ATOM     27  C   UNL     1      -3.048 -10.413  11.553  0.00  0.00    +0.010 A 
ATOM     29  C   UNL     1      -5.692 -10.726  10.720  0.00  0.00    +0.013 A 
ATOM     30  C   UNL     1      -3.351 -10.442  10.193  0.00  0.00    +0.013 A 
ATOM     31  C   UNL     1      -4.672 -10.598   9.775  0.00  0.00    +0.055 A 
BRANCH  31  34
ATOM      1  F   UNL     1      -6.281 -11.009   8.054  0.00  0.00    -0.166 F 
ATOM      2  F   UNL     1      -4.206 -11.499   7.625  0.00  0.00    -0.166 F 
ATOM      3  F   UNL     1      -4.846  -9.423   7.700  0.00  0.00    -0.166 F 
ATOM     34  C   UNL     1      -4.996 -10.630   8.321  0.00  0.00    +0.417 C 
ENDBRANCH  31  34
ENDBRANCH  20  23
ENDBRANCH  11  18
BRANCH  12  17
ATOM     17  C   UNL     1      -7.032 -13.992  17.126  0.00  0.00    +0.123 C 
BRANCH  17   7
ATOM      4  O   UNL     1      -7.012 -13.455  14.306  0.00  0.00    -0.267 OA
ATOM      7  N   UNL     1      -5.912 -14.105  16.243  0.00  0.00    -0.307 N 
ATOM     22  C   UNL     1      -5.990 -13.824  14.880  0.00  0.00    +0.279 C 
ATOM     35  H   UNL     1      -5.025 -14.415  16.630  0.00  0.00    +0.149 HD
BRANCH  22  25
ATOM      5  O   UNL     1      -3.559 -13.934  14.752  0.00  0.00    -0.458 OA
ATOM     25  C   UNL     1      -4.745 -14.016  14.094  0.00  0.00    +0.189 A 
ATOM     28  C   UNL     1      -4.540 -14.277  12.759  0.00  0.00    +0.054 A 
ATOM     32  C   UNL     1      -3.137 -14.360  12.586  0.00  0.00    +0.042 A 
ATOM     33  C   UNL     1      -2.585 -14.144  13.828  0.00  0.00    +0.196 A 
ENDBRANCH  22  25
ENDBRANCH  17   7
ENDBRANCH  12  17
TORSDOF 6
ENDMDL
MODEL 3
REMARK VINA RESULT:      -7.2     28.423     31.114
REMARK  Name = 40777165
REMARK  7 active torsions:
REMARK  status: ('A' for Active; 'I' for Inactive)
REMARK    1  A    between atoms: N_7  and  C_17
REMARK    2  A    between atoms: C_11  and  C_18
REMARK    3  A    between atoms: C_12  and  C_17
REMARK    4  A    between atoms: C_20  and  C_23
REMARK    5  A    between atoms: C_21  and  C_24
REMARK    6  A    between atoms: C_22  and  C_25
REMARK    7  A    between atoms: C_31  and  C_34
REMARK                            x       y       z     vdW  Elec       q    Type
REMARK                         _______ _______ _______ _____ _____    ______ ____
ROOT
ATOM      6  N   UNL     1     -18.524   2.890  26.067  0.00  0.00    -0.297 NA
ATOM     10  C   UNL     1     -16.806   0.933  26.041  0.00  0.00    +0.002 C 
ATOM     11  C   UNL     1     -17.207   1.285  27.500  0.00  0.00    +0.055 C 
ATOM     12  C   UNL     1     -17.361   3.247  25.213  0.00  0.00    +0.074 C 
ATOM     13  C   UNL     1     -16.241   2.192  25.350  0.00  0.00    +0.024 C 
ATOM     14  C   UNL     1     -18.106   0.554  25.301  0.00  0.00    +0.019 C 
ATOM     15  C   UNL     1     -18.068   2.580  27.445  0.00  0.00    +0.094 C 
ATOM     16  C   UNL     1     -19.146   1.670  25.500  0.00  0.00    +0.085 C 
ENDROOT
BRANCH  11  18
ATOM      8  N   UNL     1     -15.323   0.279  28.692  0.00  0.00    -0.237 NA
ATOM      9  N   UNL     1     -14.115   1.458  30.413  0.00  0.00    -0.232 NA
ATOM     18  C   UNL     1     -16.106   1.368  28.548  0.00  0.00    +0.050 A 
ATOM     19  C   UNL     1     -15.958   2.523  29.289  0.00  0.00    +0.052 A 
ATOM     20  C   UNL     1     -14.936   2.511  30.216  0.00  0.00    +0.075 A 
ATOM     21  C   UNL     1     -14.362   0.391  29.629  0.00  0.00    +0.127 A 
ATOM     24  C   UNL     1     -13.477  -0.794  29.820  0.00  0.00    +0.088 C 
BRANCH  20  23
ATOM     23  C   UNL     1     -14.677   3.656  31.056  0.00  0.00    +0.000 A 
ATOM     26  C   UNL     1     -13.648   3.612  31.997  0.00  0.00    +0.010 A 
ATOM     27  C   UNL     1     -15.454   4.807  30.926  0.00  0.00    +0.010 A 
ATOM     29  C   UNL     1     -13.398   4.718  32.809  0.00  0.00    +0.013 A 
ATOM     30  C   UNL     1     -15.203   5.913  31.737  0.00  0.00    +0.013 A 
ATOM     31  C   UNL     1     -14.175   5.870  32.678  0.00  0.00    +0.055 A 
BRANCH  31  34
ATOM      1  F   UNL     1     -14.925   7.962  33.560  0.00  0.00    -0.166 F 
ATOM      2  F   UNL     1     -12.800   7.748  33.157  0.00  0.00    -0.166 F 
ATOM      3  F   UNL     1     -13.696   6.733  34.857  0.00  0.00    -0.166 F 
ATOM     34  C   UNL     1     -13.907   7.052  33.545  0.00  0.00    +0.417 C 
ENDBRANCH  31  34
ENDBRANCH  20  23
ENDBRANCH  11  18
BRANCH  12  17
ATOM     17  C   UNL     1     -16.848   4.661  25.489  0.00  0.00    +0.123 C 
BRANCH  17   7
ATOM      4  O   UNL     1     -16.984   6.188  23.061  0.00  0.00    -0.267 OA
ATOM      7  N   UNL     1     -15.757   4.987  24.622  0.00  0.00    -0.307 N 
ATOM     22  C   UNL     1     -15.913   5.736  23.457  0.00  0.00    +0.279 C 
ATOM     35  H   UNL     1     -14.832   4.646  24.866  0.00  0.00    +0.149 HD
BRANCH  22  25
ATOM      5  O   UNL     1     -14.541   7.172  22.043  0.00  0.00    -0.458 OA
ATOM     25  C   UNL     1     -14.686   5.965  22.651  0.00  0.00    +0.189 A 
ATOM     28  C   UNL     1     -13.607   5.156  22.383  0.00  0.00    +0.054 A 
ATOM     32  C   UNL     1     -12.742   5.915  21.557  0.00  0.00    +0.042 A 
ATOM     33  C   UNL     1     -13.356   7.134  21.379  0.00  0.00    +0.196 A 
ENDBRANCH  22  25
ENDBRANCH  17   7
ENDBRANCH  12  17
TORSDOF 6
ENDMDL
MODEL 4
REMARK VINA RESULT:      -7.2     14.410     18.558
REMARK  Name = 40777165
REMARK  7 active torsions:
REMARK  status: ('A' for Active; 'I' for Inactive)
REMARK    1  A    between atoms: N_7  and  C_17
REMARK    2  A    between atoms: C_11  and  C_18
REMARK    3  A    between atoms: C_12  and  C_17
REMARK    4  A    between atoms: C_20  and  C_23
REMARK    5  A    between atoms: C_21  and  C_24
REMARK    6  A    between atoms: C_22  and  C_25
REMARK    7  A    between atoms: C_31  and  C_34
REMARK                            x       y       z     vdW  Elec       q    Type
REMARK                         _______ _______ _______ _____ _____    ______ ____
ROOT
ATOM      6  N   UNL     1      12.379   6.225   0.031  0.00  0.00    -0.297 NA
ATOM     10  C   UNL     1      10.138   5.128   0.781  0.00  0.00    +0.002 C 
ATOM     11  C   UNL     1      10.060   6.674   0.917  0.00  0.00    +0.055 C 
ATOM     12  C   UNL     1      12.649   5.127   0.995  0.00  0.00    +0.074 C 
ATOM     13  C   UNL     1      11.331   4.604   1.608  0.00  0.00    +0.024 C 
ATOM     14  C   UNL     1      10.447   4.828  -0.702  0.00  0.00    +0.019 C 
ATOM     15  C   UNL     1      11.485   7.237   0.649  0.00  0.00    +0.094 C 
ATOM     16  C   UNL     1      11.678   5.642  -1.138  0.00  0.00    +0.085 C 
ENDROOT
BRANCH  11  18
ATOM      8  N   UNL     1       8.746   8.402   2.045  0.00  0.00    -0.237 NA
ATOM      9  N   UNL     1       8.306   8.340   4.414  0.00  0.00    -0.232 NA
ATOM     18  C   UNL     1       9.439   7.253   2.182  0.00  0.00    +0.050 A 
ATOM     19  C   UNL     1       9.609   6.597   3.384  0.00  0.00    +0.052 A 
ATOM     20  C   UNL     1       9.014   7.192   4.478  0.00  0.00    +0.075 A 
ATOM     21  C   UNL     1       8.214   8.883   3.185  0.00  0.00    +0.127 A 
ATOM     24  C   UNL     1       7.441  10.154   3.076  0.00  0.00    +0.088 C 
BRANCH  20  23
ATOM     23  C   UNL     1       9.118   6.608   5.793  0.00  0.00    +0.000 A 
ATOM     26  C   UNL     1       9.680   5.341   5.951  0.00  0.00    +0.010 A 
ATOM     27  C   UNL     1       8.656   7.309   6.907  0.00  0.00    +0.010 A 
ATOM     29  C   UNL     1       9.780   4.775   7.222  0.00  0.00    +0.013 A 
ATOM     30  C   UNL     1       8.757   6.744   8.178  0.00  0.00    +0.013 A 
ATOM     31  C   UNL     1       9.319   5.477   8.336  0.00  0.00    +0.055 A 
BRANCH  31  34
ATOM      1  F   UNL     1      10.469   5.360  10.430  0.00  0.00    -0.166 F 
ATOM      2  F   UNL     1       9.606   3.521   9.655  0.00  0.00    -0.166 F 
ATOM      3  F   UNL     1       8.320   5.072  10.471  0.00  0.00    -0.166 F 
ATOM     34  C   UNL     1       9.426   4.873   9.694  0.00  0.00    +0.417 C 
ENDBRANCH  31  34
ENDBRANCH  20  23
ENDBRANCH  11  18
BRANCH  12  17
ATOM     17  C   UNL     1      13.656   5.532   2.073  0.00  0.00    +0.123 C 
BRANCH  17   7
ATOM      4  O   UNL     1      14.845   7.602   3.667  0.00  0.00    -0.267 OA
ATOM      7  N   UNL     1      13.020   6.282   3.111  0.00  0.00    -0.307 N 
ATOM     22  C   UNL     1      13.674   7.275   3.840  0.00  0.00    +0.279 C 
ATOM     35  H   UNL     1      12.050   6.071   3.331  0.00  0.00    +0.149 HD
BRANCH  22  25
ATOM      5  O   UNL     1      12.165   9.047   4.564  0.00  0.00    -0.458 OA
ATOM     25  C   UNL     1      12.882   7.943   4.903  0.00  0.00    +0.189 A 
ATOM     28  C   UNL     1      12.718   7.652   6.238  0.00  0.00    +0.054 A 
ATOM     32  C   UNL     1      11.844   8.641   6.751  0.00  0.00    +0.042 A 
ATOM     33  C   UNL     1      11.537   9.466   5.693  0.00  0.00    +0.196 A 
ENDBRANCH  22  25
ENDBRANCH  17   7
ENDBRANCH  12  17
TORSDOF 6
ENDMDL
MODEL 5
REMARK VINA RESULT:      -7.0     28.345     30.151
REMARK  Name = 40777165
REMARK  7 active torsions:
REMARK  status: ('A' for Active; 'I' for Inactive)
REMARK    1  A    between atoms: N_7  and  C_17
REMARK    2  A    between atoms: C_11  and  C_18
REMARK    3  A    between atoms: C_12  and  C_17
REMARK    4  A    between atoms: C_20  and  C_23
REMARK    5  A    between atoms: C_21  and  C_24
REMARK    6  A    between atoms: C_22  and  C_25
REMARK    7  A    between atoms: C_31  and  C_34
REMARK                            x       y       z     vdW  Elec       q    Type
REMARK                         _______ _______ _______ _____ _____    ______ ____
ROOT
ATOM      6  N   UNL     1      -5.637 -10.571   9.459  0.00  0.00    -0.297 NA
ATOM     10  C   UNL     1      -3.824  -9.576  11.042  0.00  0.00    +0.002 C 
ATOM     11  C   UNL     1      -3.673 -11.120  10.944  0.00  0.00    +0.055 C 
ATOM     12  C   UNL     1      -6.272  -9.667  10.454  0.00  0.00    +0.074 C 
ATOM     13  C   UNL     1      -5.249  -9.233  11.526  0.00  0.00    +0.024 C 
ATOM     14  C   UNL     1      -3.686  -9.024   9.607  0.00  0.00    +0.019 C 
ATOM     15  C   UNL     1      -4.901 -11.657  10.153  0.00  0.00    +0.094 C 
ATOM     16  C   UNL     1      -4.659  -9.773   8.680  0.00  0.00    +0.085 C 
ENDROOT
BRANCH  11  18
ATOM      8  N   UNL     1      -2.592 -12.957  12.143  0.00  0.00    -0.237 NA
ATOM      9  N   UNL     1      -2.948 -13.340  14.496  0.00  0.00    -0.232 NA
ATOM     18  C   UNL     1      -3.427 -11.901  12.227  0.00  0.00    +0.050 A 
ATOM     19  C   UNL     1      -4.052 -11.507  13.393  0.00  0.00    +0.052 A 
ATOM     20  C   UNL     1      -3.773 -12.272  14.508  0.00  0.00    +0.075 A 
ATOM     21  C   UNL     1      -2.401 -13.622  13.298  0.00  0.00    +0.127 A 
ATOM     24  C   UNL     1      -1.486 -14.799  13.246  0.00  0.00    +0.088 C 
BRANCH  20  23
ATOM     23  C   UNL     1      -4.364 -11.967  15.788  0.00  0.00    +0.000 A 
ATOM     26  C   UNL     1      -4.204 -10.697  16.346  0.00  0.00    +0.010 A 
ATOM     27  C   UNL     1      -5.095 -12.940  16.470  0.00  0.00    +0.010 A 
ATOM     29  C   UNL     1      -4.775 -10.402  17.583  0.00  0.00    +0.013 A 
ATOM     30  C   UNL     1      -5.667 -12.644  17.707  0.00  0.00    +0.013 A 
ATOM     31  C   UNL     1      -5.507 -11.376  18.264  0.00  0.00    +0.055 A 
BRANCH  31  34
ATOM      1  F   UNL     1      -5.427 -11.576  20.646  0.00  0.00    -0.166 F 
ATOM      2  F   UNL     1      -7.388 -11.545  19.708  0.00  0.00    -0.166 F 
ATOM      3  F   UNL     1      -6.212  -9.721  19.841  0.00  0.00    -0.166 F 
ATOM     34  C   UNL     1      -6.117 -11.060  19.587  0.00  0.00    +0.417 C 
ENDBRANCH  31  34
ENDBRANCH  20  23
ENDBRANCH  11  18
BRANCH  12  17
ATOM     17  C   UNL     1      -7.527 -10.279  11.079  0.00  0.00    +0.123 C 
BRANCH  17   7
ATOM      4  O   UNL     1      -9.905  -9.893  12.641  0.00  0.00    -0.267 OA
ATOM      7  N   UNL     1      -7.592  -9.992  12.479  0.00  0.00    -0.307 N 
ATOM     22  C   UNL     1      -8.795  -9.818  13.162  0.00  0.00    +0.279 C 
ATOM     35  H   UNL     1      -6.719  -9.902  12.992  0.00  0.00    +0.149 HD
BRANCH  22  25
ATOM      5  O   UNL     1      -9.553  -8.579  15.119  0.00  0.00    -0.458 OA
ATOM     25  C   UNL     1      -8.692  -9.498  14.608  0.00  0.00    +0.189 A 
ATOM     28  C   UNL     1      -7.854  -9.973  15.590  0.00  0.00    +0.054 A 
ATOM     32  C   UNL     1      -8.224  -9.302  16.781  0.00  0.00    +0.042 A 
ATOM     33  C   UNL     1      -9.262  -8.465  16.441  0.00  0.00    +0.196 A 
ENDBRANCH  22  25
ENDBRANCH  17   7
ENDBRANCH  12  17
TORSDOF 6
ENDMDL
MODEL 6
REMARK VINA RESULT:      -6.9     14.971     19.733
REMARK  Name = 40777165
REMARK  7 active torsions:
REMARK  status: ('A' for Active; 'I' for Inactive)
REMARK    1  A    between atoms: N_7  and  C_17
REMARK    2  A    between atoms: C_11  and  C_18
REMARK    3  A    between atoms: C_12  and  C_17
REMARK    4  A    between atoms: C_20  and  C_23
REMARK    5  A    between atoms: C_21  and  C_24
REMARK    6  A    between atoms: C_22  and  C_25
REMARK    7  A    between atoms: C_31  and  C_34
REMARK                            x       y       z     vdW  Elec       q    Type
REMARK                         _______ _______ _______ _____ _____    ______ ____
ROOT
ATOM      6  N   UNL     1      14.011   4.758  -1.541  0.00  0.00    -0.297 NA
ATOM     10  C   UNL     1      12.876   3.747   0.574  0.00  0.00    +0.002 C 
ATOM     11  C   UNL     1      12.277   5.143   0.250  0.00  0.00    +0.055 C 
ATOM     12  C   UNL     1      15.047   4.288  -0.584  0.00  0.00    +0.074 C 
ATOM     13  C   UNL     1      14.403   3.878   0.758  0.00  0.00    +0.024 C 
ATOM     14  C   UNL     1      12.643   2.863  -0.670  0.00  0.00    +0.019 C 
ATOM     15  C   UNL     1      13.135   5.764  -0.889  0.00  0.00    +0.094 C 
ATOM     16  C   UNL     1      13.176   3.592  -1.916  0.00  0.00    +0.085 C 
ENDROOT
BRANCH  11  18
ATOM      8  N   UNL     1      12.294   7.419   1.148  0.00  0.00    -0.237 NA
ATOM      9  N   UNL     1      11.680   7.905   3.427  0.00  0.00    -0.232 NA
ATOM     18  C   UNL     1      12.056   6.116   1.401  0.00  0.00    +0.050 A 
ATOM     19  C   UNL     1      11.634   5.636   2.625  0.00  0.00    +0.052 A 
ATOM     20  C   UNL     1      11.461   6.586   3.611  0.00  0.00    +0.075 A 
ATOM     21  C   UNL     1      12.089   8.247   2.190  0.00  0.00    +0.127 A 
ATOM     24  C   UNL     1      12.344   9.696   1.950  0.00  0.00    +0.088 C 
BRANCH  20  23
ATOM     23  C   UNL     1      11.024   6.215   4.935  0.00  0.00    +0.000 A 
ATOM     26  C   UNL     1       9.949   5.340   5.096  0.00  0.00    +0.010 A 
ATOM     27  C   UNL     1      11.677   6.730   6.055  0.00  0.00    +0.010 A 
ATOM     29  C   UNL     1       9.527   4.981   6.375  0.00  0.00    +0.013 A 
ATOM     30  C   UNL     1      11.255   6.370   7.335  0.00  0.00    +0.013 A 
ATOM     31  C   UNL     1      10.180   5.496   7.496  0.00  0.00    +0.055 A 
BRANCH  31  34
ATOM      1  F   UNL     1       9.401   3.792   8.982  0.00  0.00    -0.166 F 
ATOM      2  F   UNL     1       8.622   5.803   9.264  0.00  0.00    -0.166 F 
ATOM      3  F   UNL     1      10.667   5.334   9.832  0.00  0.00    -0.166 F 
ATOM     34  C   UNL     1       9.729   5.113   8.863  0.00  0.00    +0.417 C 
ENDBRANCH  31  34
ENDBRANCH  20  23
ENDBRANCH  11  18
BRANCH  12  17
ATOM     17  C   UNL     1      16.167   5.311  -0.389  0.00  0.00    +0.123 C 
BRANCH  17   7
ATOM      4  O   UNL     1      15.525   7.997   0.395  0.00  0.00    -0.267 OA
ATOM      7  N   UNL     1      16.157   5.833   0.943  0.00  0.00    -0.307 N 
ATOM     22  C   UNL     1      15.832   7.156   1.236  0.00  0.00    +0.279 C 
ATOM     35  H   UNL     1      16.409   5.209   1.704  0.00  0.00    +0.149 HD
BRANCH  22  25
ATOM      5  O   UNL     1      15.006   6.978   3.522  0.00  0.00    -0.458 OA
ATOM     25  C   UNL     1      15.894   7.549   2.666  0.00  0.00    +0.189 A 
ATOM     28  C   UNL     1      16.717   8.424   3.337  0.00  0.00    +0.054 A 
ATOM     32  C   UNL     1      16.309   8.387   4.693  0.00  0.00    +0.042 A 
ATOM     33  C   UNL     1      15.264   7.493   4.753  0.00  0.00    +0.196 A 
ENDBRANCH  22  25
ENDBRANCH  17   7
ENDBRANCH  12  17
TORSDOF 6
ENDMDL
MODEL 7
REMARK VINA RESULT:      -6.9     15.400     19.263
REMARK  Name = 40777165
REMARK  7 active torsions:
REMARK  status: ('A' for Active; 'I' for Inactive)
REMARK    1  A    between atoms: N_7  and  C_17
REMARK    2  A    between atoms: C_11  and  C_18
REMARK    3  A    between atoms: C_12  and  C_17
REMARK    4  A    between atoms: C_20  and  C_23
REMARK    5  A    between atoms: C_21  and  C_24
REMARK    6  A    between atoms: C_22  and  C_25
REMARK    7  A    between atoms: C_31  and  C_34
REMARK                            x       y       z     vdW  Elec       q    Type
REMARK                         _______ _______ _______ _____ _____    ______ ____
ROOT
ATOM      6  N   UNL     1       9.645   7.210   7.590  0.00  0.00    -0.297 NA
ATOM     10  C   UNL     1       9.885   5.198   5.953  0.00  0.00    +0.002 C 
ATOM     11  C   UNL     1      11.113   6.143   5.837  0.00  0.00    +0.055 C 
ATOM     12  C   UNL     1       8.399   7.051   6.795  0.00  0.00    +0.074 C 
ATOM     13  C   UNL     1       8.596   6.001   5.679  0.00  0.00    +0.024 C 
ATOM     14  C   UNL     1       9.824   4.728   7.422  0.00  0.00    +0.019 C 
ATOM     15  C   UNL     1      10.805   7.411   6.685  0.00  0.00    +0.094 C 
ATOM     16  C   UNL     1       9.864   5.955   8.349  0.00  0.00    +0.085 C 
ENDROOT
BRANCH  11  18
ATOM      8  N   UNL     1      12.162   7.717   4.285  0.00  0.00    -0.237 NA
ATOM      9  N   UNL     1      12.553   7.170   1.971  0.00  0.00    -0.232 NA
ATOM     18  C   UNL     1      11.623   6.491   4.444  0.00  0.00    +0.050 A 
ATOM     19  C   UNL     1      11.515   5.562   3.429  0.00  0.00    +0.052 A 
ATOM     20  C   UNL     1      12.002   5.960   2.201  0.00  0.00    +0.075 A 
ATOM     21  C   UNL     1      12.600   7.987   3.041  0.00  0.00    +0.127 A 
ATOM     24  C   UNL     1      13.200   9.335   2.823  0.00  0.00    +0.088 C 
BRANCH  20  23
ATOM     23  C   UNL     1      11.948   5.083   1.057  0.00  0.00    +0.000 A 
ATOM     26  C   UNL     1      10.929   5.227   0.115  0.00  0.00    +0.010 A 
ATOM     27  C   UNL     1      12.914   4.090   0.892  0.00  0.00    +0.010 A 
ATOM     29  C   UNL     1      10.876   4.379  -0.991  0.00  0.00    +0.013 A 
ATOM     30  C   UNL     1      12.862   3.243  -0.214  0.00  0.00    +0.013 A 
ATOM     31  C   UNL     1      11.843   3.386  -1.156  0.00  0.00    +0.055 A 
BRANCH  31  34
ATOM      1  F   UNL     1      12.123   1.187  -2.053  0.00  0.00    -0.166 F 
ATOM      2  F   UNL     1      12.633   2.866  -3.337  0.00  0.00    -0.166 F 
ATOM      3  F   UNL     1      10.551   2.408  -2.914  0.00  0.00    -0.166 F 
ATOM     34  C   UNL     1      11.787   2.480  -2.338  0.00  0.00    +0.417 C 
ENDBRANCH  31  34
ENDBRANCH  20  23
ENDBRANCH  11  18
BRANCH  12  17
ATOM     17  C   UNL     1       7.888   8.381   6.241  0.00  0.00    +0.123 C 
BRANCH  17   7
ATOM      4  O   UNL     1       9.643  10.038   4.685  0.00  0.00    -0.267 OA
ATOM      7  N   UNL     1       7.990   8.414   4.814  0.00  0.00    -0.307 N 
ATOM     22  C   UNL     1       8.873   9.254   4.137  0.00  0.00    +0.279 C 
ATOM     35  H   UNL     1       7.381   7.804   4.276  0.00  0.00    +0.149 HD
BRANCH  22  25
ATOM      5  O   UNL     1       8.538  10.326   1.973  0.00  0.00    -0.458 OA
ATOM     25  C   UNL     1       8.838   9.188   2.654  0.00  0.00    +0.189 A 
ATOM     28  C   UNL     1       9.063   8.148   1.781  0.00  0.00    +0.054 A 
ATOM     32  C   UNL     1       8.890   8.682   0.481  0.00  0.00    +0.042 A 
ATOM     33  C   UNL     1       8.571  10.010   0.652  0.00  0.00    +0.196 A 
ENDBRANCH  22  25
ENDBRANCH  17   7
ENDBRANCH  12  17
TORSDOF 6
ENDMDL
MODEL 8
REMARK VINA RESULT:      -6.7     26.770     30.486
REMARK  Name = 40777165
REMARK  7 active torsions:
REMARK  status: ('A' for Active; 'I' for Inactive)
REMARK    1  A    between atoms: N_7  and  C_17
REMARK    2  A    between atoms: C_11  and  C_18
REMARK    3  A    between atoms: C_12  and  C_17
REMARK    4  A    between atoms: C_20  and  C_23
REMARK    5  A    between atoms: C_21  and  C_24
REMARK    6  A    between atoms: C_22  and  C_25
REMARK    7  A    between atoms: C_31  and  C_34
REMARK                            x       y       z     vdW  Elec       q    Type
REMARK                         _______ _______ _______ _____ _____    ______ ____
ROOT
ATOM      6  N   UNL     1      -5.210 -11.730  10.322  0.00  0.00    -0.297 NA
ATOM     10  C   UNL     1      -4.314  -9.514  11.359  0.00  0.00    +0.002 C 
ATOM     11  C   UNL     1      -3.600 -10.740  11.993  0.00  0.00    +0.055 C 
ATOM     12  C   UNL     1      -6.347 -10.874  10.752  0.00  0.00    +0.074 C 
ATOM     13  C   UNL     1      -5.838  -9.656  11.554  0.00  0.00    +0.024 C 
ATOM     14  C   UNL     1      -4.042  -9.579   9.840  0.00  0.00    +0.019 C 
ATOM     15  C   UNL     1      -4.323 -12.017  11.477  0.00  0.00    +0.094 C 
ATOM     16  C   UNL     1      -4.427 -10.973   9.315  0.00  0.00    +0.085 C 
ENDROOT
BRANCH  11  18
ATOM      8  N   UNL     1      -2.180 -10.428  13.961  0.00  0.00    -0.237 NA
ATOM      9  N   UNL     1      -2.999 -10.770  16.201  0.00  0.00    -0.232 NA
ATOM     18  C   UNL     1      -3.406 -10.757  13.503  0.00  0.00    +0.050 A 
ATOM     19  C   UNL     1      -4.464 -11.100  14.320  0.00  0.00    +0.052 A 
ATOM     20  C   UNL     1      -4.200 -11.090  15.675  0.00  0.00    +0.075 A 
ATOM     21  C   UNL     1      -2.048 -10.455  15.301  0.00  0.00    +0.127 A 
ATOM     24  C   UNL     1      -0.707 -10.100  15.846  0.00  0.00    +0.088 C 
BRANCH  20  23
ATOM     23  C   UNL     1      -5.220 -11.430  16.636  0.00  0.00    +0.000 A 
ATOM     26  C   UNL     1      -5.995 -12.577  16.455  0.00  0.00    +0.010 A 
ATOM     27  C   UNL     1      -5.433 -10.615  17.748  0.00  0.00    +0.010 A 
ATOM     29  C   UNL     1      -6.981 -12.907  17.384  0.00  0.00    +0.013 A 
ATOM     30  C   UNL     1      -6.419 -10.945  18.677  0.00  0.00    +0.013 A 
ATOM     31  C   UNL     1      -7.193 -12.090  18.496  0.00  0.00    +0.055 A 
BRANCH  31  34
ATOM      1  F   UNL     1      -9.228 -13.248  18.984  0.00  0.00    -0.166 F 
ATOM      2  F   UNL     1      -8.893 -11.346  19.982  0.00  0.00    -0.166 F 
ATOM      3  F   UNL     1      -7.769 -13.108  20.582  0.00  0.00    -0.166 F 
ATOM     34  C   UNL     1      -8.247 -12.443  19.489  0.00  0.00    +0.417 C 
ENDBRANCH  31  34
ENDBRANCH  20  23
ENDBRANCH  11  18
BRANCH  12  17
ATOM     17  C   UNL     1      -7.408 -11.660  11.523  0.00  0.00    +0.123 C 
BRANCH  17   7
ATOM      4  O   UNL     1      -8.780 -12.797  13.775  0.00  0.00    -0.267 OA
ATOM      7  N   UNL     1      -7.759 -10.989  12.737  0.00  0.00    -0.307 N 
ATOM     22  C   UNL     1      -8.429 -11.620  13.785  0.00  0.00    +0.279 C 
ATOM     35  H   UNL     1      -7.517 -10.007  12.830  0.00  0.00    +0.149 HD
BRANCH  22  25
ATOM      5  O   UNL     1      -7.975  -9.681  15.190  0.00  0.00    -0.458 OA
ATOM     25  C   UNL     1      -8.745 -10.779  14.967  0.00  0.00    +0.189 A 
ATOM     28  C   UNL     1      -9.715 -10.893  15.935  0.00  0.00    +0.054 A 
ATOM     32  C   UNL     1      -9.530  -9.794  16.809  0.00  0.00    +0.042 A 
ATOM     33  C   UNL     1      -8.459  -9.087  16.312  0.00  0.00    +0.196 A 
ENDBRANCH  22  25
ENDBRANCH  17   7
ENDBRANCH  12  17
TORSDOF 6
ENDMDL
MODEL 9
REMARK VINA RESULT:      -6.6     26.996     29.617
REMARK  Name = 40777165
REMARK  7 active torsions:
REMARK  status: ('A' for Active; 'I' for Inactive)
REMARK    1  A    between atoms: N_7  and  C_17
REMARK    2  A    between atoms: C_11  and  C_18
REMARK    3  A    between atoms: C_12  and  C_17
REMARK    4  A    between atoms: C_20  and  C_23
REMARK    5  A    between atoms: C_21  and  C_24
REMARK    6  A    between atoms: C_22  and  C_25
REMARK    7  A    between atoms: C_31  and  C_34
REMARK                            x       y       z     vdW  Elec       q    Type
REMARK                         _______ _______ _______ _____ _____    ______ ____
ROOT
ATOM      6  N   UNL     1      -7.854 -10.554  17.899  0.00  0.00    -0.297 NA
ATOM     10  C   UNL     1      -5.850 -12.218  17.876  0.00  0.00    +0.002 C 
ATOM     11  C   UNL     1      -5.391 -10.807  17.416  0.00  0.00    +0.055 C 
ATOM     12  C   UNL     1      -8.232 -11.794  17.171  0.00  0.00    +0.074 C 
ATOM     13  C   UNL     1      -6.999 -12.702  16.967  0.00  0.00    +0.024 C 
ATOM     14  C   UNL     1      -6.433 -12.054  19.296  0.00  0.00    +0.019 C 
ATOM     15  C   UNL     1      -6.668  -9.931  17.262  0.00  0.00    +0.094 C 
ATOM     16  C   UNL     1      -7.488 -10.934  19.285  0.00  0.00    +0.085 C 
ENDROOT
BRANCH  11  18
ATOM      8  N   UNL     1      -3.150 -10.816  16.435  0.00  0.00    -0.237 NA
ATOM      9  N   UNL     1      -2.782 -10.541  14.070  0.00  0.00    -0.232 NA
ATOM     18  C   UNL     1      -4.475 -10.709  16.204  0.00  0.00    +0.050 A 
ATOM     19  C   UNL     1      -5.022 -10.520  14.951  0.00  0.00    +0.052 A 
ATOM     20  C   UNL     1      -4.119 -10.442  13.910  0.00  0.00    +0.075 A 
ATOM     21  C   UNL     1      -2.373 -10.723  15.340  0.00  0.00    +0.127 A 
ATOM     24  C   UNL     1      -0.901 -10.833  15.555  0.00  0.00    +0.088 C 
BRANCH  20  23
ATOM     23  C   UNL     1      -4.562 -10.244  12.552  0.00  0.00    +0.000 A 
ATOM     26  C   UNL     1      -3.633  -9.961  11.549  0.00  0.00    +0.010 A 
ATOM     27  C   UNL     1      -5.918 -10.335  12.239  0.00  0.00    +0.010 A 
ATOM     29  C   UNL     1      -4.061  -9.770  10.236  0.00  0.00    +0.013 A 
ATOM     30  C   UNL     1      -6.346 -10.145  10.925  0.00  0.00    +0.013 A 
ATOM     31  C   UNL     1      -5.418  -9.862   9.924  0.00  0.00    +0.055 A 
BRANCH  31  34
ATOM      1  F   UNL     1      -6.509  -8.465   8.318  0.00  0.00    -0.166 F 
ATOM      2  F   UNL     1      -6.759 -10.614   8.110  0.00  0.00    -0.166 F 
ATOM      3  F   UNL     1      -4.862  -9.681   7.605  0.00  0.00    -0.166 F 
ATOM     34  C   UNL     1      -5.875  -9.658   8.520  0.00  0.00    +0.417 C 
ENDBRANCH  31  34
ENDBRANCH  20  23
ENDBRANCH  11  18
BRANCH  12  17
ATOM     17  C   UNL     1      -8.947 -11.500  15.852  0.00  0.00    +0.123 C 
BRANCH  17   7
ATOM      4  O   UNL     1      -8.815  -9.256  14.067  0.00  0.00    -0.267 OA
ATOM      7  N   UNL     1      -9.708 -10.292  15.941  0.00  0.00    -0.307 N 
ATOM     22  C   UNL     1      -9.580  -9.247  15.027  0.00  0.00    +0.279 C 
ATOM     35  H   UNL     1     -10.361 -10.192  16.713  0.00  0.00    +0.149 HD
BRANCH  22  25
ATOM      5  O   UNL     1     -11.380  -7.744  14.361  0.00  0.00    -0.458 OA
ATOM     25  C   UNL     1     -10.421  -8.048  15.274  0.00  0.00    +0.189 A 
ATOM     28  C   UNL     1     -10.425  -7.133  16.301  0.00  0.00    +0.054 A 
ATOM     32  C   UNL     1     -11.453  -6.207  15.999  0.00  0.00    +0.042 A 
ATOM     33  C   UNL     1     -12.003  -6.623  14.808  0.00  0.00    +0.196 A 
ENDBRANCH  22  25
ENDBRANCH  17   7
ENDBRANCH  12  17
TORSDOF 6
ENDMDL
MODEL 10
REMARK VINA RESULT:      -6.5     16.673     18.789
REMARK  Name = 40777165
REMARK  7 active torsions:
REMARK  status: ('A' for Active; 'I' for Inactive)
REMARK    1  A    between atoms: N_7  and  C_17
REMARK    2  A    between atoms: C_11  and  C_18
REMARK    3  A    between atoms: C_12  and  C_17
REMARK    4  A    between atoms: C_20  and  C_23
REMARK    5  A    between atoms: C_21  and  C_24
REMARK    6  A    between atoms: C_22  and  C_25
REMARK    7  A    between atoms: C_31  and  C_34
REMARK                            x       y       z     vdW  Elec       q    Type
REMARK                         _______ _______ _______ _____ _____    ______ ____
ROOT
ATOM      6  N   UNL     1       8.303  10.652   4.995  0.00  0.00    -0.297 NA
ATOM     10  C   UNL     1       7.668   8.915   3.161  0.00  0.00    +0.002 C 
ATOM     11  C   UNL     1       7.962   8.200   4.509  0.00  0.00    +0.055 C 
ATOM     12  C   UNL     1       9.108  10.891   3.768  0.00  0.00    +0.074 C 
ATOM     13  C   UNL     1       8.898   9.751   2.748  0.00  0.00    +0.024 C 
ATOM     14  C   UNL     1       6.514   9.905   3.425  0.00  0.00    +0.019 C 
ATOM     15  C   UNL     1       8.524   9.269   5.488  0.00  0.00    +0.094 C 
ATOM     16  C   UNL     1       6.871  10.789   4.633  0.00  0.00    +0.085 C 
ENDROOT
BRANCH  11  18
ATOM      8  N   UNL     1       8.946   6.272   5.648  0.00  0.00    -0.237 NA
ATOM      9  N   UNL     1      10.327   4.667   4.496  0.00  0.00    -0.232 NA
ATOM     18  C   UNL     1       8.813   6.937   4.482  0.00  0.00    +0.050 A 
ATOM     19  C   UNL     1       9.398   6.537   3.298  0.00  0.00    +0.052 A 
ATOM     20  C   UNL     1      10.152   5.383   3.366  0.00  0.00    +0.075 A 
ATOM     21  C   UNL     1       9.706   5.162   5.584  0.00  0.00    +0.127 A 
ATOM     24  C   UNL     1       9.879   4.399   6.854  0.00  0.00    +0.088 C 
BRANCH  20  23
ATOM     23  C   UNL     1      10.818   4.858   2.198  0.00  0.00    +0.000 A 
ATOM     26  C   UNL     1      10.343   5.171   0.924  0.00  0.00    +0.010 A 
ATOM     27  C   UNL     1      11.938   4.039   2.342  0.00  0.00    +0.010 A 
ATOM     29  C   UNL     1      10.986   4.664  -0.205  0.00  0.00    +0.013 A 
ATOM     30  C   UNL     1      12.581   3.533   1.213  0.00  0.00    +0.013 A 
ATOM     31  C   UNL     1      12.106   3.845  -0.060  0.00  0.00    +0.055 A 
BRANCH  31  34
ATOM      1  F   UNL     1      12.547   1.979  -1.490  0.00  0.00    -0.166 F 
ATOM      2  F   UNL     1      14.152   3.414  -1.191  0.00  0.00    -0.166 F 
ATOM      3  F   UNL     1      12.441   3.931  -2.427  0.00  0.00    -0.166 F 
ATOM     34  C   UNL     1      12.794   3.303  -1.266  0.00  0.00    +0.417 C 
ENDBRANCH  31  34
ENDBRANCH  20  23
ENDBRANCH  11  18
BRANCH  12  17
ATOM     17  C   UNL     1      10.589  11.113   4.078  0.00  0.00    +0.123 C 
BRANCH  17   7
ATOM      4  O   UNL     1      11.871   8.789   5.173  0.00  0.00    -0.267 OA
ATOM      7  N   UNL     1      11.405  10.174   3.371  0.00  0.00    -0.307 N 
ATOM     22  C   UNL     1      11.992   9.068   3.984  0.00  0.00    +0.279 C 
ATOM     35  H   UNL     1      11.569  10.332   2.381  0.00  0.00    +0.149 HD
BRANCH  22  25
ATOM      5  O   UNL     1      13.827   7.488   3.706  0.00  0.00    -0.458 OA
ATOM     25  C   UNL     1      12.833   8.204   3.118  0.00  0.00    +0.189 A 
ATOM     28  C   UNL     1      12.807   7.968   1.762  0.00  0.00    +0.054 A 
ATOM     32  C   UNL     1      13.851   7.048   1.502  0.00  0.00    +0.042 A 
ATOM     33  C   UNL     1      14.442   6.787   2.718  0.00  0.00    +0.196 A 
ENDBRANCH  22  25
ENDBRANCH  17   7
ENDBRANCH  12  17
TORSDOF 6
ENDMDL
