MODEL 1
REMARK VINA RESULT:      -7.8      0.000      0.000
REMARK  Name = 7051348
REMARK  4 active torsions:
REMARK  status: ('A' for Active; 'I' for Inactive)
REMARK    1  A    between atoms: S_1  and  N_9
REMARK    2  A    between atoms: S_1  and  C_28
REMARK    3  A    between atoms: N_9  and  C_20
REMARK    4  A    between atoms: C_19  and  C_22
REMARK                            x       y       z     vdW  Elec       q    Type
REMARK                         _______ _______ _______ _____ _____    ______ ____
ROOT
ATOM      3  O   UNL     1      13.567   8.500  16.493  0.00  0.00    -0.266 OA
ATOM      4  O   UNL     1      11.429   7.513  21.108  0.00  0.00    -0.270 OA
ATOM      7  N   UNL     1      13.693   7.983  21.461  0.00  0.00    -0.297 N 
ATOM      8  N   UNL     1      14.691   8.705  18.537  0.00  0.00    -0.310 N 
ATOM     10  C   UNL     1      15.267   6.699  20.022  0.00  0.00    +0.027 C 
ATOM     11  C   UNL     1      15.858   8.975  20.756  0.00  0.00    +0.054 C 
ATOM     12  C   UNL     1      16.416   7.573  20.513  0.00  0.00    +0.018 C 
ATOM     13  C   UNL     1      14.144   6.647  21.073  0.00  0.00    +0.113 C 
ATOM     14  C   UNL     1      14.772   7.245  18.676  0.00  0.00    +0.130 C 
ATOM     15  C   UNL     1      14.768   8.915  21.843  0.00  0.00    +0.117 C 
ATOM     16  C   UNL     1      15.278   9.560  19.482  0.00  0.00    +0.027 A 
ATOM     17  C   UNL     1      15.293  10.891  19.281  0.00  0.00    +0.024 A 
ATOM     18  C   UNL     1      14.084   9.199  17.363  0.00  0.00    +0.274 A 
ATOM     19  C   UNL     1      12.331   8.287  21.426  0.00  0.00    +0.247 C 
ATOM     20  C   UNL     1      14.111  10.675  17.210  0.00  0.00    +0.112 A 
ATOM     21  C   UNL     1      14.691  11.469  18.111  0.00  0.00    +0.031 A 
ENDROOT
BRANCH  19  22
ATOM     22  C   UNL     1      11.921   9.650  21.779  0.00  0.00    +0.037 A 
ATOM     23  C   UNL     1      12.179  10.701  20.902  0.00  0.00    +0.021 A 
ATOM     24  C   UNL     1      11.276   9.886  22.987  0.00  0.00    +0.013 A 
ATOM     25  C   UNL     1      11.793  12.012  21.226  0.00  0.00    -0.017 A 
ATOM     26  C   UNL     1      10.885  11.182  23.325  0.00  0.00    +0.009 A 
ATOM     27  C   UNL     1      11.136  12.255  22.455  0.00  0.00    -0.018 A 
ATOM     29  C   UNL     1      12.044  13.086  20.356  0.00  0.00    +0.008 A 
ATOM     30  C   UNL     1      10.749  13.566  22.780  0.00  0.00    +0.008 A 
ATOM     32  C   UNL     1      11.653  14.381  20.694  0.00  0.00    +0.001 A 
ATOM     33  C   UNL     1      11.006  14.621  21.903  0.00  0.00    +0.001 A 
ENDBRANCH  19  22
BRANCH  20   9
ATOM      9  N   UNL     1      13.523  11.281  16.086  0.00  0.00    -0.211 N 
ATOM     36  H   UNL     1      12.572  10.945  15.878  0.00  0.00    +0.174 HD
BRANCH   9   1
ATOM      1  S   UNL     1      14.513  11.528  14.737  0.00  0.00    +0.079 S 
ATOM      5  O   UNL     1      15.660  10.641  14.803  0.00  0.00    -0.149 OA
ATOM      6  O   UNL     1      13.700  11.582  13.537  0.00  0.00    -0.149 OA
BRANCH   1  28
ATOM      2  S   UNL     1      13.881  14.274  15.516  0.00  0.00    -0.077 S 
ATOM     28  C   UNL     1      15.097  13.167  15.054  0.00  0.00    +0.146 A 
ATOM     31  C   UNL     1      16.341  13.740  15.005  0.00  0.00    +0.036 A 
ATOM     34  C   UNL     1      16.301  15.121  15.353  0.00  0.00    +0.010 A 
ATOM     35  C   UNL     1      15.024  15.542  15.655  0.00  0.00    +0.047 A 
ENDBRANCH   1  28
ENDBRANCH   9   1
ENDBRANCH  20   9
TORSDOF 4
ENDMDL
MODEL 2
REMARK VINA RESULT:      -7.3     28.446     30.393
REMARK  Name = 7051348
REMARK  4 active torsions:
REMARK  status: ('A' for Active; 'I' for Inactive)
REMARK    1  A    between atoms: S_1  and  N_9
REMARK    2  A    between atoms: S_1  and  C_28
REMARK    3  A    between atoms: N_9  and  C_20
REMARK    4  A    between atoms: C_19  and  C_22
REMARK                            x       y       z     vdW  Elec       q    Type
REMARK                         _______ _______ _______ _____ _____    ______ ____
ROOT
ATOM      3  O   UNL     1      -7.931  -9.157  17.547  0.00  0.00    -0.266 OA
ATOM      4  O   UNL     1      -3.082 -10.501  16.313  0.00  0.00    -0.270 OA
ATOM      7  N   UNL     1      -4.457 -12.349  15.904  0.00  0.00    -0.297 N 
ATOM      8  N   UNL     1      -7.338 -11.203  16.572  0.00  0.00    -0.310 N 
ATOM     10  C   UNL     1      -5.953 -12.980  17.790  0.00  0.00    +0.027 C 
ATOM     11  C   UNL     1      -6.678 -13.371  15.469  0.00  0.00    +0.054 C 
ATOM     12  C   UNL     1      -6.676 -13.965  16.877  0.00  0.00    +0.018 C 
ATOM     13  C   UNL     1      -4.508 -12.759  17.307  0.00  0.00    +0.113 C 
ATOM     14  C   UNL     1      -6.752 -11.672  17.836  0.00  0.00    +0.130 C 
ATOM     15  C   UNL     1      -5.227 -13.198  14.980  0.00  0.00    +0.117 C 
ATOM     16  C   UNL     1      -7.389 -12.031  15.442  0.00  0.00    +0.027 A 
ATOM     17  C   UNL     1      -8.029 -11.627  14.330  0.00  0.00    +0.024 A 
ATOM     18  C   UNL     1      -7.930  -9.922  16.585  0.00  0.00    +0.274 A 
ATOM     19  C   UNL     1      -3.727 -11.213  15.546  0.00  0.00    +0.247 C 
ATOM     20  C   UNL     1      -8.600  -9.524  15.321  0.00  0.00    +0.112 A 
ATOM     21  C   UNL     1      -8.654 -10.334  14.263  0.00  0.00    +0.031 A 
ENDROOT
BRANCH  19  22
ATOM     22  C   UNL     1      -3.735 -10.809  14.136  0.00  0.00    +0.037 A 
ATOM     23  C   UNL     1      -4.851 -10.168  13.604  0.00  0.00    +0.021 A 
ATOM     24  C   UNL     1      -2.626 -11.066  13.338  0.00  0.00    +0.013 A 
ATOM     25  C   UNL     1      -4.874  -9.774  12.256  0.00  0.00    -0.017 A 
ATOM     26  C   UNL     1      -2.631 -10.681  11.997  0.00  0.00    +0.009 A 
ATOM     27  C   UNL     1      -3.746 -10.034  11.441  0.00  0.00    -0.018 A 
ATOM     29  C   UNL     1      -5.989  -9.126  11.701  0.00  0.00    +0.008 A 
ATOM     30  C   UNL     1      -3.768  -9.639  10.093  0.00  0.00    +0.008 A 
ATOM     32  C   UNL     1      -5.994  -8.742  10.360  0.00  0.00    +0.001 A 
ATOM     33  C   UNL     1      -4.885  -8.997   9.557  0.00  0.00    +0.001 A 
ENDBRANCH  19  22
BRANCH  20   9
ATOM      9  N   UNL     1      -9.212  -8.263  15.211  0.00  0.00    -0.211 N 
ATOM     36  H   UNL     1      -8.558  -7.471  15.293  0.00  0.00    +0.174 HD
BRANCH   9   1
ATOM      1  S   UNL     1     -10.699  -8.057  15.992  0.00  0.00    +0.079 S 
ATOM      5  O   UNL     1     -11.397  -9.328  16.055  0.00  0.00    -0.149 OA
ATOM      6  O   UNL     1     -10.515  -7.264  17.192  0.00  0.00    -0.149 OA
BRANCH   1  28
ATOM      2  S   UNL     1     -12.074  -7.875  13.418  0.00  0.00    -0.077 S 
ATOM     28  C   UNL     1     -11.550  -7.047  14.816  0.00  0.00    +0.146 A 
ATOM     31  C   UNL     1     -11.880  -5.716  14.796  0.00  0.00    +0.036 A 
ATOM     34  C   UNL     1     -12.580  -5.364  13.606  0.00  0.00    +0.010 A 
ATOM     35  C   UNL     1     -12.754  -6.444  12.769  0.00  0.00    +0.047 A 
ENDBRANCH   1  28
ENDBRANCH   9   1
ENDBRANCH  20   9
TORSDOF 4
ENDMDL
MODEL 3
REMARK VINA RESULT:      -7.1     10.136     12.986
REMARK  Name = 7051348
REMARK  4 active torsions:
REMARK  status: ('A' for Active; 'I' for Inactive)
REMARK    1  A    between atoms: S_1  and  N_9
REMARK    2  A    between atoms: S_1  and  C_28
REMARK    3  A    between atoms: N_9  and  C_20
REMARK    4  A    between atoms: C_19  and  C_22
REMARK                            x       y       z     vdW  Elec       q    Type
REMARK                         _______ _______ _______ _____ _____    ______ ____
ROOT
ATOM      3  O   UNL     1      12.476   7.218   3.353  0.00  0.00    -0.266 OA
ATOM      4  O   UNL     1       8.662   9.733   5.798  0.00  0.00    -0.270 OA
ATOM      7  N   UNL     1       9.048   7.734   6.952  0.00  0.00    -0.297 N 
ATOM      8  N   UNL     1      11.503   6.506   5.363  0.00  0.00    -0.310 N 
ATOM     10  C   UNL     1       9.081   5.692   5.529  0.00  0.00    +0.027 C 
ATOM     11  C   UNL     1      10.480   5.797   7.554  0.00  0.00    +0.054 C 
ATOM     12  C   UNL     1       9.585   4.881   6.719  0.00  0.00    +0.018 C 
ATOM     13  C   UNL     1       8.282   6.916   6.013  0.00  0.00    +0.113 C 
ATOM     14  C   UNL     1      10.280   6.093   4.661  0.00  0.00    +0.130 C 
ATOM     15  C   UNL     1       9.657   6.993   8.070  0.00  0.00    +0.117 C 
ATOM     16  C   UNL     1      11.658   6.299   6.741  0.00  0.00    +0.027 A 
ATOM     17  C   UNL     1      12.827   6.580   7.345  0.00  0.00    +0.024 A 
ATOM     18  C   UNL     1      12.545   7.027   4.567  0.00  0.00    +0.274 A 
ATOM     19  C   UNL     1       9.168   9.108   6.729  0.00  0.00    +0.247 C 
ATOM     20  C   UNL     1      13.801   7.340   5.295  0.00  0.00    +0.112 A 
ATOM     21  C   UNL     1      13.934   7.118   6.603  0.00  0.00    +0.031 A 
ENDROOT
BRANCH  19  22
ATOM     22  C   UNL     1       9.980   9.888   7.669  0.00  0.00    +0.037 A 
ATOM     23  C   UNL     1       9.395  10.423   8.813  0.00  0.00    +0.021 A 
ATOM     24  C   UNL     1      11.331  10.088   7.412  0.00  0.00    +0.013 A 
ATOM     25  C   UNL     1      10.160  11.173   9.723  0.00  0.00    -0.017 A 
ATOM     26  C   UNL     1      12.106  10.830   8.303  0.00  0.00    +0.009 A 
ATOM     27  C   UNL     1      11.535  11.378   9.464  0.00  0.00    -0.018 A 
ATOM     29  C   UNL     1       9.589  11.721  10.883  0.00  0.00    +0.008 A 
ATOM     30  C   UNL     1      12.301  12.127  10.373  0.00  0.00    +0.008 A 
ATOM     32  C   UNL     1      10.364  12.463  11.775  0.00  0.00    +0.001 A 
ATOM     33  C   UNL     1      11.717  12.665  11.521  0.00  0.00    +0.001 A 
ENDBRANCH  19  22
BRANCH  20   9
ATOM      9  N   UNL     1      14.903   7.879   4.608  0.00  0.00    -0.211 N 
ATOM     36  H   UNL     1      15.776   7.347   4.733  0.00  0.00    +0.174 HD
BRANCH   9   1
ATOM      1  S   UNL     1      15.072   9.562   4.623  0.00  0.00    +0.079 S 
ATOM      5  O   UNL     1      15.242  10.049   3.267  0.00  0.00    -0.149 OA
ATOM      6  O   UNL     1      14.065  10.146   5.488  0.00  0.00    -0.149 OA
BRANCH   1  28
ATOM      2  S   UNL     1      16.953  11.293   6.043  0.00  0.00    -0.077 S 
ATOM     28  C   UNL     1      16.631   9.727   5.441  0.00  0.00    +0.146 A 
ATOM     31  C   UNL     1      17.649   8.844   5.696  0.00  0.00    +0.036 A 
ATOM     34  C   UNL     1      18.721   9.463   6.401  0.00  0.00    +0.010 A 
ATOM     35  C   UNL     1      18.473  10.795   6.655  0.00  0.00    +0.047 A 
ENDBRANCH   1  28
ENDBRANCH   9   1
ENDBRANCH  20   9
TORSDOF 4
ENDMDL
MODEL 4
REMARK VINA RESULT:      -6.9     22.651     25.412
REMARK  Name = 7051348
REMARK  4 active torsions:
REMARK  status: ('A' for Active; 'I' for Inactive)
REMARK    1  A    between atoms: S_1  and  N_9
REMARK    2  A    between atoms: S_1  and  C_28
REMARK    3  A    between atoms: N_9  and  C_20
REMARK    4  A    between atoms: C_19  and  C_22
REMARK                            x       y       z     vdW  Elec       q    Type
REMARK                         _______ _______ _______ _____ _____    ______ ____
ROOT
ATOM      3  O   UNL     1       5.927 -10.531  34.518  0.00  0.00    -0.266 OA
ATOM      4  O   UNL     1      10.159 -13.061  32.927  0.00  0.00    -0.270 OA
ATOM      7  N   UNL     1       8.809 -12.687  31.053  0.00  0.00    -0.297 N 
ATOM      8  N   UNL     1       6.417 -11.001  32.276  0.00  0.00    -0.310 N 
ATOM     10  C   UNL     1       6.432 -13.377  31.319  0.00  0.00    +0.027 C 
ATOM     11  C   UNL     1       6.999 -11.469  29.868  0.00  0.00    +0.054 C 
ATOM     12  C   UNL     1       6.095 -12.694  29.997  0.00  0.00    +0.018 C 
ATOM     13  C   UNL     1       7.910 -13.805  31.340  0.00  0.00    +0.113 C 
ATOM     14  C   UNL     1       6.092 -12.421  32.469  0.00  0.00    +0.130 C 
ATOM     15  C   UNL     1       8.473 -11.915  29.845  0.00  0.00    +0.117 C 
ATOM     16  C   UNL     1       6.776 -10.502  31.016  0.00  0.00    +0.027 A 
ATOM     17  C   UNL     1       6.959  -9.181  30.833  0.00  0.00    +0.024 A 
ATOM     18  C   UNL     1       6.253 -10.155  33.393  0.00  0.00    +0.274 A 
ATOM     19  C   UNL     1       9.873 -12.420  31.917  0.00  0.00    +0.247 C 
ATOM     20  C   UNL     1       6.493  -8.713  33.134  0.00  0.00    +0.112 A 
ATOM     21  C   UNL     1       6.816  -8.256  31.924  0.00  0.00    +0.031 A 
ENDROOT
BRANCH  19  22
ATOM     22  C   UNL     1      10.726 -11.265  31.619  0.00  0.00    +0.037 A 
ATOM     23  C   UNL     1      10.371 -10.002  32.087  0.00  0.00    +0.021 A 
ATOM     24  C   UNL     1      11.885 -11.437  30.873  0.00  0.00    +0.013 A 
ATOM     25  C   UNL     1      11.178  -8.886  31.811  0.00  0.00    -0.017 A 
ATOM     26  C   UNL     1      12.699 -10.340  30.589  0.00  0.00    +0.009 A 
ATOM     27  C   UNL     1      12.359  -9.058  31.051  0.00  0.00    -0.018 A 
ATOM     29  C   UNL     1      10.838  -7.604  32.273  0.00  0.00    +0.008 A 
ATOM     30  C   UNL     1      13.167  -7.942  30.775  0.00  0.00    +0.008 A 
ATOM     32  C   UNL     1      11.652  -6.507  31.989  0.00  0.00    +0.001 A 
ATOM     33  C   UNL     1      12.814  -6.675  31.242  0.00  0.00    +0.001 A 
ENDBRANCH  19  22
BRANCH  20   9
ATOM      9  N   UNL     1       6.375  -7.778  34.177  0.00  0.00    -0.211 N 
ATOM     36  H   UNL     1       6.015  -6.860  33.878  0.00  0.00    +0.174 HD
BRANCH   9   1
ATOM      1  S   UNL     1       7.627  -7.728  35.313  0.00  0.00    +0.079 S 
ATOM      5  O   UNL     1       7.080  -7.481  36.634  0.00  0.00    -0.149 OA
ATOM      6  O   UNL     1       8.531  -8.841  35.093  0.00  0.00    -0.149 OA
BRANCH   1  28
ATOM      2  S   UNL     1       9.895  -5.920  35.687  0.00  0.00    -0.077 S 
ATOM     28  C   UNL     1       8.469  -6.256  34.809  0.00  0.00    +0.146 A 
ATOM     31  C   UNL     1       8.209  -5.317  33.845  0.00  0.00    +0.036 A 
ATOM     34  C   UNL     1       9.201  -4.295  33.823  0.00  0.00    +0.010 A 
ATOM     35  C   UNL     1      10.177  -4.500  34.773  0.00  0.00    +0.047 A 
ENDBRANCH   1  28
ENDBRANCH   9   1
ENDBRANCH  20   9
TORSDOF 4
ENDMDL
MODEL 5
REMARK VINA RESULT:      -6.9     28.550     30.374
REMARK  Name = 7051348
REMARK  4 active torsions:
REMARK  status: ('A' for Active; 'I' for Inactive)
REMARK    1  A    between atoms: S_1  and  N_9
REMARK    2  A    between atoms: S_1  and  C_28
REMARK    3  A    between atoms: N_9  and  C_20
REMARK    4  A    between atoms: C_19  and  C_22
REMARK                            x       y       z     vdW  Elec       q    Type
REMARK                         _______ _______ _______ _____ _____    ______ ____
ROOT
ATOM      3  O   UNL     1      -4.522  -9.933  16.280  0.00  0.00    -0.266 OA
ATOM      4  O   UNL     1      -1.989  -9.906  11.760  0.00  0.00    -0.270 OA
ATOM      7  N   UNL     1      -3.007 -12.000  11.990  0.00  0.00    -0.297 N 
ATOM      8  N   UNL     1      -4.599 -11.674  14.715  0.00  0.00    -0.310 N 
ATOM     10  C   UNL     1      -2.575 -13.142  14.159  0.00  0.00    +0.027 C 
ATOM     11  C   UNL     1      -4.711 -13.507  12.987  0.00  0.00    +0.054 C 
ATOM     12  C   UNL     1      -3.617 -14.197  13.802  0.00  0.00    +0.018 C 
ATOM     13  C   UNL     1      -1.975 -12.526  12.883  0.00  0.00    +0.113 C 
ATOM     14  C   UNL     1      -3.230 -12.085  15.057  0.00  0.00    +0.130 C 
ATOM     15  C   UNL     1      -4.105 -12.935  11.691  0.00  0.00    +0.117 C 
ATOM     16  C   UNL     1      -5.362 -12.392  13.783  0.00  0.00    +0.027 A 
ATOM     17  C   UNL     1      -6.651 -12.070  13.566  0.00  0.00    +0.024 A 
ATOM     18  C   UNL     1      -5.136 -10.590  15.440  0.00  0.00    +0.274 A 
ATOM     19  C   UNL     1      -2.903 -10.691  11.514  0.00  0.00    +0.247 C 
ATOM     20  C   UNL     1      -6.554 -10.268  15.139  0.00  0.00    +0.112 A 
ATOM     21  C   UNL     1      -7.268 -10.974  14.262  0.00  0.00    +0.031 A 
ENDROOT
BRANCH  19  22
ATOM     22  C   UNL     1      -3.980 -10.185  10.657  0.00  0.00    +0.037 A 
ATOM     23  C   UNL     1      -4.036 -10.561   9.317  0.00  0.00    +0.021 A 
ATOM     24  C   UNL     1      -4.941  -9.332  11.186  0.00  0.00    +0.013 A 
ATOM     25  C   UNL     1      -5.060 -10.085   8.483  0.00  0.00    -0.017 A 
ATOM     26  C   UNL     1      -5.966  -8.848  10.373  0.00  0.00    +0.009 A 
ATOM     27  C   UNL     1      -6.040  -9.216   9.020  0.00  0.00    -0.018 A 
ATOM     29  C   UNL     1      -5.134 -10.452   7.130  0.00  0.00    +0.008 A 
ATOM     30  C   UNL     1      -7.066  -8.739   8.187  0.00  0.00    +0.008 A 
ATOM     32  C   UNL     1      -6.160  -9.969   6.317  0.00  0.00    +0.001 A 
ATOM     33  C   UNL     1      -7.124  -9.115   6.844  0.00  0.00    +0.001 A 
ENDBRANCH  19  22
BRANCH  20   9
ATOM      9  N   UNL     1      -7.190  -9.197  15.791  0.00  0.00    -0.211 N 
ATOM     36  H   UNL     1      -6.542  -8.487  16.160  0.00  0.00    +0.174 HD
BRANCH   9   1
ATOM      1  S   UNL     1      -8.500  -9.573  16.793  0.00  0.00    +0.079 S 
ATOM      5  O   UNL     1      -8.977  -8.369  17.447  0.00  0.00    -0.149 OA
ATOM      6  O   UNL     1      -9.426 -10.435  16.083  0.00  0.00    -0.149 OA
BRANCH   1  28
ATOM      2  S   UNL     1      -8.259 -12.169  18.117  0.00  0.00    -0.077 S 
ATOM     28  C   UNL     1      -7.699 -10.558  18.024  0.00  0.00    +0.146 A 
ATOM     31  C   UNL     1      -6.706 -10.292  18.931  0.00  0.00    +0.036 A 
ATOM     34  C   UNL     1      -6.395 -11.433  19.724  0.00  0.00    +0.010 A 
ATOM     35  C   UNL     1      -7.166 -12.524  19.386  0.00  0.00    +0.047 A 
ENDBRANCH   1  28
ENDBRANCH   9   1
ENDBRANCH  20   9
TORSDOF 4
ENDMDL
MODEL 6
REMARK VINA RESULT:      -6.9     22.117     25.488
REMARK  Name = 7051348
REMARK  4 active torsions:
REMARK  status: ('A' for Active; 'I' for Inactive)
REMARK    1  A    between atoms: S_1  and  N_9
REMARK    2  A    between atoms: S_1  and  C_28
REMARK    3  A    between atoms: N_9  and  C_20
REMARK    4  A    between atoms: C_19  and  C_22
REMARK                            x       y       z     vdW  Elec       q    Type
REMARK                         _______ _______ _______ _____ _____    ______ ____
ROOT
ATOM      3  O   UNL     1       5.930  -9.838  34.551  0.00  0.00    -0.266 OA
ATOM      4  O   UNL     1      10.132 -12.602  33.308  0.00  0.00    -0.270 OA
ATOM      7  N   UNL     1       8.795 -12.445  31.395  0.00  0.00    -0.297 N 
ATOM      8  N   UNL     1       6.422 -10.589  32.387  0.00  0.00    -0.310 N 
ATOM     10  C   UNL     1       6.408 -13.064  31.731  0.00  0.00    +0.027 C 
ATOM     11  C   UNL     1       7.006 -11.358  30.059  0.00  0.00    +0.054 C 
ATOM     12  C   UNL     1       6.085 -12.546  30.333  0.00  0.00    +0.018 C 
ATOM     13  C   UNL     1       7.880 -13.506  31.813  0.00  0.00    +0.113 C 
ATOM     14  C   UNL     1       6.076 -11.970  32.753  0.00  0.00    +0.130 C 
ATOM     15  C   UNL     1       8.475 -11.824  30.099  0.00  0.00    +0.117 C 
ATOM     16  C   UNL     1       6.792 -10.254  31.077  0.00  0.00    +0.027 A 
ATOM     17  C   UNL     1       6.995  -8.968  30.733  0.00  0.00    +0.024 A 
ATOM     18  C   UNL     1       6.266  -9.609  33.390  0.00  0.00    +0.274 A 
ATOM     19  C   UNL     1       9.859 -12.087  32.225  0.00  0.00    +0.247 C 
ATOM     20  C   UNL     1       6.527  -8.213  32.956  0.00  0.00    +0.112 A 
ATOM     21  C   UNL     1       6.860  -7.913  31.700  0.00  0.00    +0.031 A 
ENDROOT
BRANCH  19  22
ATOM     22  C   UNL     1      10.730 -10.989  31.792  0.00  0.00    +0.037 A 
ATOM     23  C   UNL     1      10.421  -9.678  32.146  0.00  0.00    +0.021 A 
ATOM     24  C   UNL     1      11.859 -11.263  31.030  0.00  0.00    +0.013 A 
ATOM     25  C   UNL     1      11.244  -8.615  31.739  0.00  0.00    -0.017 A 
ATOM     26  C   UNL     1      12.689 -10.220  30.617  0.00  0.00    +0.009 A 
ATOM     27  C   UNL     1      12.395  -8.891  30.964  0.00  0.00    -0.018 A 
ATOM     29  C   UNL     1      10.950  -7.286  32.085  0.00  0.00    +0.008 A 
ATOM     30  C   UNL     1      13.220  -7.829  30.557  0.00  0.00    +0.008 A 
ATOM     32  C   UNL     1      11.780  -6.244  31.672  0.00  0.00    +0.001 A 
ATOM     33  C   UNL     1      12.912  -6.514  30.910  0.00  0.00    +0.001 A 
ENDBRANCH  19  22
BRANCH  20   9
ATOM      9  N   UNL     1       6.418  -7.154  33.874  0.00  0.00    -0.211 N 
ATOM     36  H   UNL     1       5.708  -6.452  33.622  0.00  0.00    +0.174 HD
BRANCH   9   1
ATOM      1  S   UNL     1       7.858  -6.532  34.508  0.00  0.00    +0.079 S 
ATOM      5  O   UNL     1       8.786  -7.617  34.770  0.00  0.00    -0.149 OA
ATOM      6  O   UNL     1       8.278  -5.383  33.729  0.00  0.00    -0.149 OA
BRANCH   1  28
ATOM      2  S   UNL     1       6.789  -7.149  37.159  0.00  0.00    -0.077 S 
ATOM     28  C   UNL     1       7.295  -5.932  36.074  0.00  0.00    +0.146 A 
ATOM     31  C   UNL     1       7.180  -4.672  36.603  0.00  0.00    +0.036 A 
ATOM     34  C   UNL     1       6.664  -4.702  37.930  0.00  0.00    +0.010 A 
ATOM     35  C   UNL     1       6.408  -5.987  38.357  0.00  0.00    +0.047 A 
ENDBRANCH   1  28
ENDBRANCH   9   1
ENDBRANCH  20   9
TORSDOF 4
ENDMDL
MODEL 7
REMARK VINA RESULT:      -6.8     22.855     26.306
REMARK  Name = 7051348
REMARK  4 active torsions:
REMARK  status: ('A' for Active; 'I' for Inactive)
REMARK    1  A    between atoms: S_1  and  N_9
REMARK    2  A    between atoms: S_1  and  C_28
REMARK    3  A    between atoms: N_9  and  C_20
REMARK    4  A    between atoms: C_19  and  C_22
REMARK                            x       y       z     vdW  Elec       q    Type
REMARK                         _______ _______ _______ _____ _____    ______ ____
ROOT
ATOM      3  O   UNL     1       9.744  -9.177  32.418  0.00  0.00    -0.266 OA
ATOM      4  O   UNL     1       9.202  -8.041  37.444  0.00  0.00    -0.270 OA
ATOM      7  N   UNL     1       8.549  -6.160  36.217  0.00  0.00    -0.297 N 
ATOM      8  N   UNL     1       8.816  -7.184  33.226  0.00  0.00    -0.310 N 
ATOM     10  C   UNL     1      10.178  -5.420  34.487  0.00  0.00    +0.027 C 
ATOM     11  C   UNL     1       7.767  -5.075  34.124  0.00  0.00    +0.054 C 
ATOM     12  C   UNL     1       9.144  -4.438  33.944  0.00  0.00    +0.018 C 
ATOM     13  C   UNL     1       9.918  -5.705  35.977  0.00  0.00    +0.113 C 
ATOM     14  C   UNL     1      10.139  -6.697  33.639  0.00  0.00    +0.130 C 
ATOM     15  C   UNL     1       7.501  -5.313  35.623  0.00  0.00    +0.117 C 
ATOM     16  C   UNL     1       7.670  -6.389  33.373  0.00  0.00    +0.027 A 
ATOM     17  C   UNL     1       6.485  -6.805  32.886  0.00  0.00    +0.024 A 
ATOM     18  C   UNL     1       8.773  -8.442  32.589  0.00  0.00    +0.274 A 
ATOM     19  C   UNL     1       8.330  -7.330  36.945  0.00  0.00    +0.247 C 
ATOM     20  C   UNL     1       7.435  -8.855  32.096  0.00  0.00    +0.112 A 
ATOM     21  C   UNL     1       6.360  -8.077  32.228  0.00  0.00    +0.031 A 
ENDROOT
BRANCH  19  22
ATOM     22  C   UNL     1       6.946  -7.778  37.128  0.00  0.00    +0.037 A 
ATOM     23  C   UNL     1       6.289  -8.441  36.095  0.00  0.00    +0.021 A 
ATOM     24  C   UNL     1       6.296  -7.538  38.333  0.00  0.00    +0.013 A 
ATOM     25  C   UNL     1       4.963  -8.876  36.254  0.00  0.00    -0.017 A 
ATOM     26  C   UNL     1       4.979  -7.963  38.509  0.00  0.00    +0.009 A 
ATOM     27  C   UNL     1       4.299  -8.634  37.479  0.00  0.00    -0.018 A 
ATOM     29  C   UNL     1       4.283  -9.547  35.224  0.00  0.00    +0.008 A 
ATOM     30  C   UNL     1       2.973  -9.069  37.640  0.00  0.00    +0.008 A 
ATOM     32  C   UNL     1       2.966  -9.972  35.401  0.00  0.00    +0.001 A 
ATOM     33  C   UNL     1       2.312  -9.734  36.606  0.00  0.00    +0.001 A 
ENDBRANCH  19  22
BRANCH  20   9
ATOM      9  N   UNL     1       7.268 -10.097  31.458  0.00  0.00    -0.211 N 
ATOM     36  H   UNL     1       6.547 -10.096  30.722  0.00  0.00    +0.174 HD
BRANCH   9   1
ATOM      1  S   UNL     1       7.303 -11.477  32.436  0.00  0.00    +0.079 S 
ATOM      5  O   UNL     1       8.590 -12.133  32.309  0.00  0.00    -0.149 OA
ATOM      6  O   UNL     1       6.770 -11.159  33.747  0.00  0.00    -0.149 OA
BRANCH   1  28
ATOM      2  S   UNL     1       5.007 -13.274  32.655  0.00  0.00    -0.077 S 
ATOM     28  C   UNL     1       6.111 -12.492  31.613  0.00  0.00    +0.146 A 
ATOM     31  C   UNL     1       5.888 -12.784  30.292  0.00  0.00    +0.036 A 
ATOM     34  C   UNL     1       4.786 -13.671  30.127  0.00  0.00    +0.010 A 
ATOM     35  C   UNL     1       4.214 -14.017  31.332  0.00  0.00    +0.047 A 
ENDBRANCH   1  28
ENDBRANCH   9   1
ENDBRANCH  20   9
TORSDOF 4
ENDMDL
MODEL 8
REMARK VINA RESULT:      -6.8     15.154     18.565
REMARK  Name = 7051348
REMARK  4 active torsions:
REMARK  status: ('A' for Active; 'I' for Inactive)
REMARK    1  A    between atoms: S_1  and  N_9
REMARK    2  A    between atoms: S_1  and  C_28
REMARK    3  A    between atoms: N_9  and  C_20
REMARK    4  A    between atoms: C_19  and  C_22
REMARK                            x       y       z     vdW  Elec       q    Type
REMARK                         _______ _______ _______ _____ _____    ______ ____
ROOT
ATOM      3  O   UNL     1      13.981   6.232   2.582  0.00  0.00    -0.266 OA
ATOM      4  O   UNL     1      11.721   8.879  -1.256  0.00  0.00    -0.270 OA
ATOM      7  N   UNL     1      10.915   6.685  -1.337  0.00  0.00    -0.297 N 
ATOM      8  N   UNL     1      12.312   5.364   1.186  0.00  0.00    -0.310 N 
ATOM     10  C   UNL     1      12.672   4.922  -1.311  0.00  0.00    +0.027 C 
ATOM     11  C   UNL     1      10.474   4.475  -0.293  0.00  0.00    +0.054 C 
ATOM     12  C   UNL     1      11.592   3.859  -1.133  0.00  0.00    +0.018 C 
ATOM     13  C   UNL     1      12.096   6.160  -2.021  0.00  0.00    +0.113 C 
ATOM     14  C   UNL     1      13.257   5.266   0.065  0.00  0.00    +0.130 C 
ATOM     15  C   UNL     1       9.876   5.685  -1.036  0.00  0.00    +0.117 C 
ATOM     16  C   UNL     1      10.990   4.914   1.065  0.00  0.00    +0.027 A 
ATOM     17  C   UNL     1      10.172   4.906   2.134  0.00  0.00    +0.024 A 
ATOM     18  C   UNL     1      12.828   5.838   2.411  0.00  0.00    +0.274 A 
ATOM     19  C   UNL     1      10.857   8.040  -1.007  0.00  0.00    +0.247 C 
ATOM     20  C   UNL     1      11.871   5.828   3.546  0.00  0.00    +0.112 A 
ATOM     21  C   UNL     1      10.623   5.379   3.415  0.00  0.00    +0.031 A 
ENDROOT
BRANCH  19  22
ATOM     22  C   UNL     1       9.676   8.521  -0.282  0.00  0.00    +0.037 A 
ATOM     23  C   UNL     1       9.600   8.367   1.100  0.00  0.00    +0.021 A 
ATOM     24  C   UNL     1       8.639   9.129  -0.979  0.00  0.00    +0.013 A 
ATOM     25  C   UNL     1       8.476   8.822   1.808  0.00  0.00    -0.017 A 
ATOM     26  C   UNL     1       7.514   9.587  -0.292  0.00  0.00    +0.009 A 
ATOM     27  C   UNL     1       7.418   9.442   1.101  0.00  0.00    -0.018 A 
ATOM     29  C   UNL     1       8.379   8.677   3.202  0.00  0.00    +0.008 A 
ATOM     30  C   UNL     1       6.293   9.898   1.809  0.00  0.00    +0.008 A 
ATOM     32  C   UNL     1       7.255   9.136   3.889  0.00  0.00    +0.001 A 
ATOM     33  C   UNL     1       6.214   9.745   3.194  0.00  0.00    +0.001 A 
ENDBRANCH  19  22
BRANCH  20   9
ATOM      9  N   UNL     1      12.270   6.293   4.811  0.00  0.00    -0.211 N 
ATOM     36  H   UNL     1      11.994   5.678   5.590  0.00  0.00    +0.174 HD
BRANCH   9   1
ATOM      1  S   UNL     1      12.111   7.951   5.108  0.00  0.00    +0.079 S 
ATOM      5  O   UNL     1      13.278   8.434   5.822  0.00  0.00    -0.149 OA
ATOM      6  O   UNL     1      11.662   8.622   3.903  0.00  0.00    -0.149 OA
BRANCH   1  28
ATOM      2  S   UNL     1      10.542   6.483   7.091  0.00  0.00    -0.077 S 
ATOM     28  C   UNL     1      10.759   7.952   6.248  0.00  0.00    +0.146 A 
ATOM     31  C   UNL     1       9.836   8.904   6.600  0.00  0.00    +0.036 A 
ATOM     34  C   UNL     1       8.928   8.419   7.584  0.00  0.00    +0.010 A 
ATOM     35  C   UNL     1       9.198   7.116   7.941  0.00  0.00    +0.047 A 
ENDBRANCH   1  28
ENDBRANCH   9   1
ENDBRANCH  20   9
TORSDOF 4
ENDMDL
MODEL 9
REMARK VINA RESULT:      -6.7     13.388     16.503
REMARK  Name = 7051348
REMARK  4 active torsions:
REMARK  status: ('A' for Active; 'I' for Inactive)
REMARK    1  A    between atoms: S_1  and  N_9
REMARK    2  A    between atoms: S_1  and  C_28
REMARK    3  A    between atoms: N_9  and  C_20
REMARK    4  A    between atoms: C_19  and  C_22
REMARK                            x       y       z     vdW  Elec       q    Type
REMARK                         _______ _______ _______ _____ _____    ______ ____
ROOT
ATOM      3  O   UNL     1       8.563   7.773   2.505  0.00  0.00    -0.266 OA
ATOM      4  O   UNL     1      10.825  11.033   5.836  0.00  0.00    -0.270 OA
ATOM      7  N   UNL     1      10.546   8.984   6.929  0.00  0.00    -0.297 N 
ATOM      8  N   UNL     1       9.319   7.165   4.638  0.00  0.00    -0.310 N 
ATOM     10  C   UNL     1       8.250   8.031   6.798  0.00  0.00    +0.027 C 
ATOM     11  C   UNL     1      10.195   6.525   6.913  0.00  0.00    +0.054 C 
ATOM     12  C   UNL     1       8.763   6.730   7.406  0.00  0.00    +0.018 C 
ATOM     13  C   UNL     1       9.134   9.214   7.233  0.00  0.00    +0.113 C 
ATOM     14  C   UNL     1       8.202   7.878   5.272  0.00  0.00    +0.130 C 
ATOM     15  C   UNL     1      11.079   7.692   7.395  0.00  0.00    +0.117 C 
ATOM     16  C   UNL     1      10.245   6.438   5.399  0.00  0.00    +0.027 A 
ATOM     17  C   UNL     1      11.194   5.699   4.795  0.00  0.00    +0.024 A 
ATOM     18  C   UNL     1       9.354   7.168   3.227  0.00  0.00    +0.274 A 
ATOM     19  C   UNL     1      11.265   9.953   6.227  0.00  0.00    +0.247 C 
ATOM     20  C   UNL     1      10.437   6.355   2.620  0.00  0.00    +0.112 A 
ATOM     21  C   UNL     1      11.297   5.655   3.361  0.00  0.00    +0.031 A 
ENDROOT
BRANCH  19  22
ATOM     22  C   UNL     1      12.667   9.668   5.903  0.00  0.00    +0.037 A 
ATOM     23  C   UNL     1      12.978   8.917   4.772  0.00  0.00    +0.021 A 
ATOM     24  C   UNL     1      13.678  10.149   6.726  0.00  0.00    +0.013 A 
ATOM     25  C   UNL     1      14.315   8.635   4.447  0.00  0.00    -0.017 A 
ATOM     26  C   UNL     1      15.012   9.880   6.419  0.00  0.00    +0.009 A 
ATOM     27  C   UNL     1      15.347   9.124   5.283  0.00  0.00    -0.018 A 
ATOM     29  C   UNL     1      14.650   7.880   3.312  0.00  0.00    +0.008 A 
ATOM     30  C   UNL     1      16.685   8.844   4.959  0.00  0.00    +0.008 A 
ATOM     32  C   UNL     1      15.984   7.610   3.005  0.00  0.00    +0.001 A 
ATOM     33  C   UNL     1      16.999   8.091   3.826  0.00  0.00    +0.001 A 
ENDBRANCH  19  22
BRANCH  20   9
ATOM      9  N   UNL     1      10.580   6.295   1.223  0.00  0.00    -0.211 N 
ATOM     36  H   UNL     1       9.983   6.962   0.712  0.00  0.00    +0.174 HD
BRANCH   9   1
ATOM      1  S   UNL     1      10.708   4.759   0.526  0.00  0.00    +0.079 S 
ATOM      5  O   UNL     1       9.934   3.805   1.298  0.00  0.00    -0.149 OA
ATOM      6  O   UNL     1      10.524   4.857  -0.910  0.00  0.00    -0.149 OA
BRANCH   1  28
ATOM      2  S   UNL     1      13.491   5.619   0.271  0.00  0.00    -0.077 S 
ATOM     28  C   UNL     1      12.417   4.409   0.816  0.00  0.00    +0.146 A 
ATOM     31  C   UNL     1      13.067   3.351   1.398  0.00  0.00    +0.036 A 
ATOM     34  C   UNL     1      14.479   3.534   1.398  0.00  0.00    +0.010 A 
ATOM     35  C   UNL     1      14.847   4.727   0.815  0.00  0.00    +0.047 A 
ENDBRANCH   1  28
ENDBRANCH   9   1
ENDBRANCH  20   9
TORSDOF 4
ENDMDL
MODEL 10
REMARK VINA RESULT:      -6.7     17.678     20.355
REMARK  Name = 7051348
REMARK  4 active torsions:
REMARK  status: ('A' for Active; 'I' for Inactive)
REMARK    1  A    between atoms: S_1  and  N_9
REMARK    2  A    between atoms: S_1  and  C_28
REMARK    3  A    between atoms: N_9  and  C_20
REMARK    4  A    between atoms: C_19  and  C_22
REMARK                            x       y       z     vdW  Elec       q    Type
REMARK                         _______ _______ _______ _____ _____    ______ ____
ROOT
ATOM      3  O   UNL     1      10.050   3.797  -2.249  0.00  0.00    -0.266 OA
ATOM      4  O   UNL     1      11.255   2.888   2.708  0.00  0.00    -0.270 OA
ATOM      7  N   UNL     1      12.739   4.507   1.902  0.00  0.00    -0.297 N 
ATOM      8  N   UNL     1      11.676   4.982  -1.048  0.00  0.00    -0.310 N 
ATOM     10  C   UNL     1      13.863   3.923  -0.241  0.00  0.00    +0.027 C 
ATOM     11  C   UNL     1      13.377   6.280   0.285  0.00  0.00    +0.054 C 
ATOM     12  C   UNL     1      14.416   5.342  -0.328  0.00  0.00    +0.018 C 
ATOM     13  C   UNL     1      13.601   3.537   1.226  0.00  0.00    +0.113 C 
ATOM     14  C   UNL     1      12.593   3.835  -1.096  0.00  0.00    +0.130 C 
ATOM     15  C   UNL     1      13.158   5.912   1.765  0.00  0.00    +0.117 C 
ATOM     16  C   UNL     1      12.059   6.197  -0.463  0.00  0.00    +0.027 A 
ATOM     17  C   UNL     1      11.250   7.271  -0.528  0.00  0.00    +0.024 A 
ATOM     18  C   UNL     1      10.436   4.831  -1.705  0.00  0.00    +0.274 A 
ATOM     19  C   UNL     1      11.609   4.060   2.590  0.00  0.00    +0.247 C 
ATOM     20  C   UNL     1       9.578   6.042  -1.723  0.00  0.00    +0.112 A 
ATOM     21  C   UNL     1       9.969   7.194  -1.176  0.00  0.00    +0.031 A 
ENDROOT
BRANCH  19  22
ATOM     22  C   UNL     1      10.745   5.065   3.218  0.00  0.00    +0.037 A 
ATOM     23  C   UNL     1      10.139   6.046   2.436  0.00  0.00    +0.021 A 
ATOM     24  C   UNL     1      10.535   5.034   4.591  0.00  0.00    +0.013 A 
ATOM     25  C   UNL     1       9.309   7.015   3.022  0.00  0.00    -0.017 A 
ATOM     26  C   UNL     1       9.714   5.989   5.191  0.00  0.00    +0.009 A 
ATOM     27  C   UNL     1       9.093   6.985   4.420  0.00  0.00    -0.018 A 
ATOM     29  C   UNL     1       8.689   8.012   2.252  0.00  0.00    +0.008 A 
ATOM     30  C   UNL     1       8.262   7.954   5.008  0.00  0.00    +0.008 A 
ATOM     32  C   UNL     1       7.867   8.967   2.852  0.00  0.00    +0.001 A 
ATOM     33  C   UNL     1       7.654   8.938   4.227  0.00  0.00    +0.001 A 
ENDBRANCH  19  22
BRANCH  20   9
ATOM      9  N   UNL     1       8.313   6.005  -2.335  0.00  0.00    -0.211 N 
ATOM     36  H   UNL     1       7.793   5.132  -2.170  0.00  0.00    +0.174 HD
BRANCH   9   1
ATOM      1  S   UNL     1       8.198   6.630  -3.904  0.00  0.00    +0.079 S 
ATOM      5  O   UNL     1       8.371   8.070  -3.870  0.00  0.00    -0.149 OA
ATOM      6  O   UNL     1       8.989   5.820  -4.811  0.00  0.00    -0.149 OA
BRANCH   1  28
ATOM      2  S   UNL     1       5.402   6.935  -3.104  0.00  0.00    -0.077 S 
ATOM     28  C   UNL     1       6.495   6.312  -4.259  0.00  0.00    +0.146 A 
ATOM     31  C   UNL     1       5.863   5.659  -5.285  0.00  0.00    +0.036 A 
ATOM     34  C   UNL     1       4.447   5.667  -5.124  0.00  0.00    +0.010 A 
ATOM     35  C   UNL     1       4.061   6.329  -3.979  0.00  0.00    +0.047 A 
ENDBRANCH   1  28
ENDBRANCH   9   1
ENDBRANCH  20   9
TORSDOF 4
ENDMDL
