MODEL 1
REMARK VINA RESULT:      -7.8      0.000      0.000
REMARK  Name = 38026852
REMARK  11 active torsions:
REMARK  status: ('A' for Active; 'I' for Inactive)
REMARK    1  A    between atoms: S_1  and  N_7
REMARK    2  A    between atoms: S_1  and  C_27
REMARK    3  A    between atoms: N_7  and  C_17
REMARK    4  A    between atoms: C_10  and  C_14
REMARK    5  A    between atoms: C_11  and  C_17
REMARK    6  A    between atoms: C_13  and  C_18
REMARK    7  A    between atoms: C_14  and  C_19
REMARK    8  A    between atoms: C_14  and  C_20
REMARK    9  A    between atoms: C_15  and  C_21
REMARK   10  A    between atoms: C_18  and  C_22
REMARK   11  A    between atoms: C_28  and  C_31
REMARK                            x       y       z     vdW  Elec       q    Type
REMARK                         _______ _______ _______ _____ _____    ______ ____
ROOT
ATOM     10  C   UNL     1      16.491   9.049  21.690  0.00  0.00    +0.000 C 
ATOM     11  C   UNL     1      15.566   8.059  20.939  0.00  0.00    +0.030 C 
ATOM     12  C   UNL     1      17.830   9.198  20.950  0.00  0.00    +0.012 C 
ATOM     13  C   UNL     1      18.569   7.854  20.806  0.00  0.00    +0.023 C 
ATOM     15  C   UNL     1      17.645   6.754  20.321  0.00  0.00    -0.073 C 
ATOM     16  C   UNL     1      16.307   6.869  20.377  0.00  0.00    -0.023 C 
ATOM     21  C   UNL     1      18.297   5.535  19.730  0.00  0.00    +0.039 C 
ENDROOT
BRANCH  10  14
ATOM     14  C   UNL     1      15.836  10.424  21.857  0.00  0.00    -0.013 C 
ATOM     19  C   UNL     1      16.731  11.343  22.685  0.00  0.00    +0.007 C 
ATOM     20  C   UNL     1      15.541  11.042  20.495  0.00  0.00    +0.007 C 
ENDBRANCH  10  14
BRANCH  11  17
ATOM     17  C   UNL     1      14.428   7.572  21.844  0.00  0.00    +0.113 C 
BRANCH  17   7
ATOM      7  N   UNL     1      13.694   6.498  21.156  0.00  0.00    -0.189 NA
ATOM     35  H   UNL     1      14.267   5.783  20.690  0.00  0.00    +0.148 HD
BRANCH   7   1
ATOM      1  S   UNL     1      12.144   6.795  20.515  0.00  0.00    +0.058 S 
ATOM      4  O   UNL     1      11.199   5.861  21.096  0.00  0.00    -0.153 OA
ATOM      5  O   UNL     1      12.243   6.931  19.074  0.00  0.00    -0.153 OA
BRANCH   1  27
ATOM      2  F   UNL     1      10.960  12.156  22.668  0.00  0.00    -0.205 F 
ATOM     27  C   UNL     1      11.789   8.402  21.160  0.00  0.00    +0.105 A 
ATOM     29  C   UNL     1      11.150   8.533  22.394  0.00  0.00    +0.031 A 
ATOM     30  C   UNL     1      12.147   9.540  20.437  0.00  0.00    +0.031 A 
ATOM     32  C   UNL     1      10.870   9.801  22.903  0.00  0.00    +0.040 A 
ATOM     33  C   UNL     1      11.868  10.807  20.946  0.00  0.00    +0.040 A 
ATOM     34  C   UNL     1      11.229  10.938  22.179  0.00  0.00    +0.124 A 
ENDBRANCH   1  27
ENDBRANCH   7   1
ENDBRANCH  17   7
ENDBRANCH  11  17
BRANCH  13  18
ATOM     18  C   UNL     1      19.254   7.457  22.119  0.00  0.00    +0.103 C 
BRANCH  18  22
ATOM      3  O   UNL     1      21.142   8.884  22.022  0.00  0.00    -0.276 OA
ATOM      6  O   UNL     1      23.559   2.280  20.746  0.00  0.00    -0.276 OA
ATOM      8  N   UNL     1      21.563   6.601  21.943  0.00  0.00    -0.298 N 
ATOM      9  N   UNL     1      23.134   4.563  20.759  0.00  0.00    -0.299 N 
ATOM     22  C   UNL     1      20.735   7.720  22.024  0.00  0.00    +0.216 C 
ATOM     23  C   UNL     1      23.014   6.770  21.845  0.00  0.00    +0.126 C 
ATOM     24  C   UNL     1      21.115   5.204  22.019  0.00  0.00    +0.126 C 
ATOM     25  C   UNL     1      23.582   5.960  20.683  0.00  0.00    +0.126 C 
ATOM     26  C   UNL     1      21.682   4.393  20.856  0.00  0.00    +0.126 C 
ATOM     28  C   UNL     1      23.962   3.444  20.679  0.00  0.00    +0.213 C 
ATOM     31  C   UNL     1      25.435   3.706  20.503  0.00  0.00    +0.109 C 
ENDBRANCH  18  22
ENDBRANCH  13  18
TORSDOF 7
ENDMDL
MODEL 2
REMARK VINA RESULT:      -7.1      2.852      3.832
REMARK  Name = 38026852
REMARK  11 active torsions:
REMARK  status: ('A' for Active; 'I' for Inactive)
REMARK    1  A    between atoms: S_1  and  N_7
REMARK    2  A    between atoms: S_1  and  C_27
REMARK    3  A    between atoms: N_7  and  C_17
REMARK    4  A    between atoms: C_10  and  C_14
REMARK    5  A    between atoms: C_11  and  C_17
REMARK    6  A    between atoms: C_13  and  C_18
REMARK    7  A    between atoms: C_14  and  C_19
REMARK    8  A    between atoms: C_14  and  C_20
REMARK    9  A    between atoms: C_15  and  C_21
REMARK   10  A    between atoms: C_18  and  C_22
REMARK   11  A    between atoms: C_28  and  C_31
REMARK                            x       y       z     vdW  Elec       q    Type
REMARK                         _______ _______ _______ _____ _____    ______ ____
ROOT
ATOM     10  C   UNL     1      16.802   8.471  21.209  0.00  0.00    +0.000 C 
ATOM     11  C   UNL     1      16.190   7.523  20.148  0.00  0.00    +0.030 C 
ATOM     12  C   UNL     1      18.310   8.642  20.968  0.00  0.00    +0.012 C 
ATOM     13  C   UNL     1      19.065   7.301  21.021  0.00  0.00    +0.023 C 
ATOM     15  C   UNL     1      18.366   6.230  20.205  0.00  0.00    -0.073 C 
ATOM     16  C   UNL     1      17.087   6.354  19.814  0.00  0.00    -0.023 C 
ATOM     21  C   UNL     1      19.189   5.035  19.813  0.00  0.00    +0.039 C 
ENDROOT
BRANCH  10  14
ATOM     14  C   UNL     1      16.118   9.842  21.209  0.00  0.00    -0.013 C 
ATOM     19  C   UNL     1      15.438  10.098  22.551  0.00  0.00    +0.007 C 
ATOM     20  C   UNL     1      17.128  10.941  20.897  0.00  0.00    +0.007 C 
ENDBRANCH  10  14
BRANCH  11  17
ATOM     17  C   UNL     1      14.819   7.004  20.595  0.00  0.00    +0.113 C 
BRANCH  17   7
ATOM      7  N   UNL     1      14.040   6.619  19.408  0.00  0.00    -0.189 NA
ATOM     35  H   UNL     1      14.582   6.329  18.584  0.00  0.00    +0.148 HD
BRANCH   7   1
ATOM      1  S   UNL     1      12.507   7.307  19.128  0.00  0.00    +0.058 S 
ATOM      4  O   UNL     1      11.611   6.934  20.206  0.00  0.00    -0.153 OA
ATOM      5  O   UNL     1      12.125   7.074  17.748  0.00  0.00    -0.153 OA
BRANCH   1  27
ATOM      2  F   UNL     1      13.665  13.067  19.640  0.00  0.00    -0.205 F 
ATOM     27  C   UNL     1      12.854   9.034  19.282  0.00  0.00    +0.105 A 
ATOM     29  C   UNL     1      13.652   9.672  18.332  0.00  0.00    +0.031 A 
ATOM     30  C   UNL     1      12.330   9.759  20.352  0.00  0.00    +0.031 A 
ATOM     32  C   UNL     1      13.926  11.034  18.453  0.00  0.00    +0.040 A 
ATOM     33  C   UNL     1      12.603  11.121  20.473  0.00  0.00    +0.040 A 
ATOM     34  C   UNL     1      13.401  11.759  19.523  0.00  0.00    +0.124 A 
ENDBRANCH   1  27
ENDBRANCH   7   1
ENDBRANCH  17   7
ENDBRANCH  11  17
BRANCH  13  18
ATOM     18  C   UNL     1      19.273   6.840  22.468  0.00  0.00    +0.103 C 
BRANCH  18  22
ATOM      3  O   UNL     1      21.480   6.228  21.863  0.00  0.00    -0.276 OA
ATOM      6  O   UNL     1      21.648   7.650  28.866  0.00  0.00    -0.276 OA
ATOM      8  N   UNL     1      21.184   7.046  24.017  0.00  0.00    -0.298 N 
ATOM      9  N   UNL     1      21.932   6.771  26.735  0.00  0.00    -0.299 N 
ATOM     22  C   UNL     1      20.745   6.675  22.747  0.00  0.00    +0.216 C 
ATOM     23  C   UNL     1      22.600   6.914  24.369  0.00  0.00    +0.126 C 
ATOM     24  C   UNL     1      20.349   7.650  25.064  0.00  0.00    +0.126 C 
ATOM     25  C   UNL     1      22.767   6.167  25.688  0.00  0.00    +0.126 C 
ATOM     26  C   UNL     1      20.516   6.902  26.384  0.00  0.00    +0.126 C 
ATOM     28  C   UNL     1      22.372   7.144  28.004  0.00  0.00    +0.213 C 
ATOM     31  C   UNL     1      23.828   6.905  28.311  0.00  0.00    +0.109 C 
ENDBRANCH  18  22
ENDBRANCH  13  18
TORSDOF 7
ENDMDL
MODEL 3
REMARK VINA RESULT:      -7.1     16.146     18.518
REMARK  Name = 38026852
REMARK  11 active torsions:
REMARK  status: ('A' for Active; 'I' for Inactive)
REMARK    1  A    between atoms: S_1  and  N_7
REMARK    2  A    between atoms: S_1  and  C_27
REMARK    3  A    between atoms: N_7  and  C_17
REMARK    4  A    between atoms: C_10  and  C_14
REMARK    5  A    between atoms: C_11  and  C_17
REMARK    6  A    between atoms: C_13  and  C_18
REMARK    7  A    between atoms: C_14  and  C_19
REMARK    8  A    between atoms: C_14  and  C_20
REMARK    9  A    between atoms: C_15  and  C_21
REMARK   10  A    between atoms: C_18  and  C_22
REMARK   11  A    between atoms: C_28  and  C_31
REMARK                            x       y       z     vdW  Elec       q    Type
REMARK                         _______ _______ _______ _____ _____    ______ ____
ROOT
ATOM     10  C   UNL     1       8.921   8.534   4.812  0.00  0.00    +0.000 C 
ATOM     11  C   UNL     1       8.586   9.184   6.179  0.00  0.00    +0.030 C 
ATOM     12  C   UNL     1       8.450   7.072   4.785  0.00  0.00    +0.012 C 
ATOM     13  C   UNL     1       9.101   6.229   5.897  0.00  0.00    +0.023 C 
ATOM     15  C   UNL     1       9.049   6.932   7.239  0.00  0.00    -0.073 C 
ATOM     16  C   UNL     1       8.805   8.249   7.345  0.00  0.00    -0.023 C 
ATOM     21  C   UNL     1       9.241   6.075   8.459  0.00  0.00    +0.039 C 
ENDROOT
BRANCH  10  14
ATOM     14  C   UNL     1       8.290   9.304   3.648  0.00  0.00    -0.013 C 
ATOM     19  C   UNL     1       8.439   8.520   2.347  0.00  0.00    +0.007 C 
ATOM     20  C   UNL     1       6.821   9.596   3.936  0.00  0.00    +0.007 C 
ENDBRANCH  10  14
BRANCH  11  17
ATOM     17  C   UNL     1       9.396  10.467   6.394  0.00  0.00    +0.113 C 
BRANCH  17   7
ATOM      7  N   UNL     1      10.127  10.367   7.666  0.00  0.00    -0.189 NA
ATOM     35  H   UNL     1       9.558  10.192   8.504  0.00  0.00    +0.148 HD
BRANCH   7   1
ATOM      1  S   UNL     1      11.593  11.209   7.882  0.00  0.00    +0.058 S 
ATOM      4  O   UNL     1      11.853  11.362   9.300  0.00  0.00    -0.153 OA
ATOM      5  O   UNL     1      11.608  12.367   7.007  0.00  0.00    -0.153 OA
BRANCH   1  27
ATOM      2  F   UNL     1      15.512   7.371   5.717  0.00  0.00    -0.205 F 
ATOM     27  C   UNL     1      12.768  10.059   7.233  0.00  0.00    +0.105 A 
ATOM     29  C   UNL     1      13.983  10.516   6.724  0.00  0.00    +0.031 A 
ATOM     30  C   UNL     1      12.479   8.694   7.229  0.00  0.00    +0.031 A 
ATOM     32  C   UNL     1      14.911   9.608   6.212  0.00  0.00    +0.040 A 
ATOM     33  C   UNL     1      13.406   7.786   6.718  0.00  0.00    +0.040 A 
ATOM     34  C   UNL     1      14.622   8.243   6.209  0.00  0.00    +0.124 A 
ENDBRANCH   1  27
ENDBRANCH   7   1
ENDBRANCH  17   7
ENDBRANCH  11  17
BRANCH  13  18
ATOM     18  C   UNL     1      10.542   5.850   5.531  0.00  0.00    +0.103 C 
BRANCH  18  22
ATOM      3  O   UNL     1      10.043   3.600   4.984  0.00  0.00    -0.276 OA
ATOM      6  O   UNL     1      14.103   6.099  -0.341  0.00  0.00    -0.276 OA
ATOM      8  N   UNL     1      11.114   4.852   3.346  0.00  0.00    -0.298 N 
ATOM      9  N   UNL     1      13.092   4.829   1.320  0.00  0.00    -0.299 N 
ATOM     22  C   UNL     1      10.539   4.663   4.603  0.00  0.00    +0.216 C 
ATOM     23  C   UNL     1      11.154   3.747   2.386  0.00  0.00    +0.126 C 
ATOM     24  C   UNL     1      11.644   6.124   2.836  0.00  0.00    +0.126 C 
ATOM     25  C   UNL     1      12.562   3.558   1.830  0.00  0.00    +0.126 C 
ATOM     26  C   UNL     1      13.052   5.935   2.281  0.00  0.00    +0.126 C 
ATOM     28  C   UNL     1      13.665   5.019   0.063  0.00  0.00    +0.213 C 
ATOM     31  C   UNL     1      13.735   3.812  -0.836  0.00  0.00    +0.109 C 
ENDBRANCH  18  22
ENDBRANCH  13  18
TORSDOF 7
ENDMDL
MODEL 4
REMARK VINA RESULT:      -7.0      2.617      4.052
REMARK  Name = 38026852
REMARK  11 active torsions:
REMARK  status: ('A' for Active; 'I' for Inactive)
REMARK    1  A    between atoms: S_1  and  N_7
REMARK    2  A    between atoms: S_1  and  C_27
REMARK    3  A    between atoms: N_7  and  C_17
REMARK    4  A    between atoms: C_10  and  C_14
REMARK    5  A    between atoms: C_11  and  C_17
REMARK    6  A    between atoms: C_13  and  C_18
REMARK    7  A    between atoms: C_14  and  C_19
REMARK    8  A    between atoms: C_14  and  C_20
REMARK    9  A    between atoms: C_15  and  C_21
REMARK   10  A    between atoms: C_18  and  C_22
REMARK   11  A    between atoms: C_28  and  C_31
REMARK                            x       y       z     vdW  Elec       q    Type
REMARK                         _______ _______ _______ _____ _____    ______ ____
ROOT
ATOM     10  C   UNL     1      14.061  10.989  22.889  0.00  0.00    +0.000 C 
ATOM     11  C   UNL     1      13.028  11.216  21.756  0.00  0.00    +0.030 C 
ATOM     12  C   UNL     1      15.425  11.575  22.494  0.00  0.00    +0.012 C 
ATOM     13  C   UNL     1      15.976  10.948  21.200  0.00  0.00    +0.023 C 
ATOM     15  C   UNL     1      14.924  10.891  20.110  0.00  0.00    -0.073 C 
ATOM     16  C   UNL     1      13.613  11.026  20.377  0.00  0.00    -0.023 C 
ATOM     21  C   UNL     1      15.418  10.719  18.701  0.00  0.00    +0.039 C 
ENDROOT
BRANCH  10  14
ATOM     14  C   UNL     1      13.596  11.603  24.213  0.00  0.00    -0.013 C 
ATOM     19  C   UNL     1      14.678  11.453  25.278  0.00  0.00    +0.007 C 
ATOM     20  C   UNL     1      13.228  13.071  24.019  0.00  0.00    +0.007 C 
ENDBRANCH  10  14
BRANCH  11  17
ATOM     17  C   UNL     1      11.811  10.299  21.926  0.00  0.00    +0.113 C 
BRANCH  17   7
ATOM      7  N   UNL     1      12.276   8.920  22.147  0.00  0.00    -0.189 NA
ATOM     35  H   UNL     1      13.254   8.813  22.443  0.00  0.00    +0.148 HD
BRANCH   7   1
ATOM      1  S   UNL     1      11.578   7.631  21.279  0.00  0.00    +0.058 S 
ATOM      4  O   UNL     1      10.168   7.899  21.074  0.00  0.00    -0.153 OA
ATOM      5  O   UNL     1      12.004   6.375  21.869  0.00  0.00    -0.153 OA
BRANCH   1  27
ATOM      2  F   UNL     1      14.293   8.089  16.064  0.00  0.00    -0.205 F 
ATOM     27  C   UNL     1      12.392   7.768  19.716  0.00  0.00    +0.105 A 
ATOM     29  C   UNL     1      11.763   8.425  18.658  0.00  0.00    +0.031 A 
ATOM     30  C   UNL     1      13.663   7.220  19.540  0.00  0.00    +0.031 A 
ATOM     32  C   UNL     1      12.406   8.533  17.424  0.00  0.00    +0.040 A 
ATOM     33  C   UNL     1      14.305   7.329  18.307  0.00  0.00    +0.040 A 
ATOM     34  C   UNL     1      13.676   7.985  17.249  0.00  0.00    +0.124 A 
ENDBRANCH   1  27
ENDBRANCH   7   1
ENDBRANCH  17   7
ENDBRANCH  11  17
BRANCH  13  18
ATOM     18  C   UNL     1      16.567   9.558  21.467  0.00  0.00    +0.103 C 
BRANCH  18  22
ATOM      3  O   UNL     1      18.595  10.763  21.689  0.00  0.00    -0.276 OA
ATOM      6  O   UNL     1      20.431   3.965  20.464  0.00  0.00    -0.276 OA
ATOM      8  N   UNL     1      18.771   8.450  21.567  0.00  0.00    -0.298 N 
ATOM      9  N   UNL     1      20.260   6.280  20.520  0.00  0.00    -0.299 N 
ATOM     22  C   UNL     1      18.066   9.653  21.585  0.00  0.00    +0.216 C 
ATOM     23  C   UNL     1      20.231   8.455  21.675  0.00  0.00    +0.126 C 
ATOM     24  C   UNL     1      18.167   7.111  21.520  0.00  0.00    +0.126 C 
ATOM     25  C   UNL     1      20.863   7.619  20.566  0.00  0.00    +0.126 C 
ATOM     26  C   UNL     1      18.799   6.275  20.411  0.00  0.00    +0.126 C 
ATOM     28  C   UNL     1      20.964   5.077  20.503  0.00  0.00    +0.213 C 
ATOM     31  C   UNL     1      22.467   5.174  20.541  0.00  0.00    +0.109 C 
ENDBRANCH  18  22
ENDBRANCH  13  18
TORSDOF 7
ENDMDL
MODEL 5
REMARK VINA RESULT:      -6.9      4.657      6.394
REMARK  Name = 38026852
REMARK  11 active torsions:
REMARK  status: ('A' for Active; 'I' for Inactive)
REMARK    1  A    between atoms: S_1  and  N_7
REMARK    2  A    between atoms: S_1  and  C_27
REMARK    3  A    between atoms: N_7  and  C_17
REMARK    4  A    between atoms: C_10  and  C_14
REMARK    5  A    between atoms: C_11  and  C_17
REMARK    6  A    between atoms: C_13  and  C_18
REMARK    7  A    between atoms: C_14  and  C_19
REMARK    8  A    between atoms: C_14  and  C_20
REMARK    9  A    between atoms: C_15  and  C_21
REMARK   10  A    between atoms: C_18  and  C_22
REMARK   11  A    between atoms: C_28  and  C_31
REMARK                            x       y       z     vdW  Elec       q    Type
REMARK                         _______ _______ _______ _____ _____    ______ ____
ROOT
ATOM     10  C   UNL     1      12.016  11.467  23.272  0.00  0.00    +0.000 C 
ATOM     11  C   UNL     1      11.369  10.884  21.991  0.00  0.00    +0.030 C 
ATOM     12  C   UNL     1      13.080  12.514  22.906  0.00  0.00    +0.012 C 
ATOM     13  C   UNL     1      14.195  11.927  22.020  0.00  0.00    +0.023 C 
ATOM     15  C   UNL     1      13.632  11.105  20.877  0.00  0.00    -0.073 C 
ATOM     16  C   UNL     1      12.364  10.660  20.877  0.00  0.00    -0.023 C 
ATOM     21  C   UNL     1      14.549  10.845  19.715  0.00  0.00    +0.039 C 
ENDROOT
BRANCH  10  14
ATOM     14  C   UNL     1      10.972  12.093  24.203  0.00  0.00    -0.013 C 
ATOM     19  C   UNL     1      11.616  12.507  25.523  0.00  0.00    +0.007 C 
ATOM     20  C   UNL     1      10.306  13.288  23.528  0.00  0.00    +0.007 C 
ENDBRANCH  10  14
BRANCH  11  17
ATOM     17  C   UNL     1      10.634   9.573  22.291  0.00  0.00    +0.113 C 
BRANCH  17   7
ATOM      7  N   UNL     1      11.619   8.489  22.425  0.00  0.00    -0.189 NA
ATOM     35  H   UNL     1      12.482   8.721  22.934  0.00  0.00    +0.148 HD
BRANCH   7   1
ATOM      1  S   UNL     1      11.717   7.267  21.242  0.00  0.00    +0.058 S 
ATOM      4  O   UNL     1      10.987   7.686  20.061  0.00  0.00    -0.153 OA
ATOM      5  O   UNL     1      11.434   5.985  21.858  0.00  0.00    -0.153 OA
BRANCH   1  27
ATOM      2  F   UNL     1      17.468   7.315  19.938  0.00  0.00    -0.205 F 
ATOM     27  C   UNL     1      13.441   7.282  20.851  0.00  0.00    +0.105 A 
ATOM     29  C   UNL     1      13.865   6.977  19.558  0.00  0.00    +0.031 A 
ATOM     30  C   UNL     1      14.377   7.598  21.836  0.00  0.00    +0.031 A 
ATOM     32  C   UNL     1      15.226   6.988  19.249  0.00  0.00    +0.040 A 
ATOM     33  C   UNL     1      15.737   7.610  21.528  0.00  0.00    +0.040 A 
ATOM     34  C   UNL     1      16.161   7.305  20.234  0.00  0.00    +0.124 A 
ENDBRANCH   1  27
ENDBRANCH   7   1
ENDBRANCH  17   7
ENDBRANCH  11  17
BRANCH  13  18
ATOM     18  C   UNL     1      15.185  11.103  22.853  0.00  0.00    +0.103 C 
BRANCH  18  22
ATOM      3  O   UNL     1      16.157  12.705  24.302  0.00  0.00    -0.276 OA
ATOM      6  O   UNL     1      20.809  11.765  18.959  0.00  0.00    -0.276 OA
ATOM      8  N   UNL     1      17.502  11.914  22.582  0.00  0.00    -0.298 N 
ATOM      9  N   UNL     1      19.443  12.605  20.639  0.00  0.00    -0.299 N 
ATOM     22  C   UNL     1      16.319  11.981  23.317  0.00  0.00    +0.216 C 
ATOM     23  C   UNL     1      18.650  12.738  22.967  0.00  0.00    +0.126 C 
ATOM     24  C   UNL     1      17.751  11.008  21.452  0.00  0.00    +0.126 C 
ATOM     25  C   UNL     1      19.193  13.510  21.768  0.00  0.00    +0.126 C 
ATOM     26  C   UNL     1      18.294  11.781  20.253  0.00  0.00    +0.126 C 
ATOM     28  C   UNL     1      20.626  12.536  19.904  0.00  0.00    +0.213 C 
ATOM     31  C   UNL     1      21.732  13.472  20.319  0.00  0.00    +0.109 C 
ENDBRANCH  18  22
ENDBRANCH  13  18
TORSDOF 7
ENDMDL
MODEL 6
REMARK VINA RESULT:      -6.8     28.365     31.551
REMARK  Name = 38026852
REMARK  11 active torsions:
REMARK  status: ('A' for Active; 'I' for Inactive)
REMARK    1  A    between atoms: S_1  and  N_7
REMARK    2  A    between atoms: S_1  and  C_27
REMARK    3  A    between atoms: N_7  and  C_17
REMARK    4  A    between atoms: C_10  and  C_14
REMARK    5  A    between atoms: C_11  and  C_17
REMARK    6  A    between atoms: C_13  and  C_18
REMARK    7  A    between atoms: C_14  and  C_19
REMARK    8  A    between atoms: C_14  and  C_20
REMARK    9  A    between atoms: C_15  and  C_21
REMARK   10  A    between atoms: C_18  and  C_22
REMARK   11  A    between atoms: C_28  and  C_31
REMARK                            x       y       z     vdW  Elec       q    Type
REMARK                         _______ _______ _______ _____ _____    ______ ____
ROOT
ATOM     10  C   UNL     1      -3.011 -12.745  12.981  0.00  0.00    +0.000 C 
ATOM     11  C   UNL     1      -2.004 -11.592  13.219  0.00  0.00    +0.030 C 
ATOM     12  C   UNL     1      -3.208 -12.982  11.475  0.00  0.00    +0.012 C 
ATOM     13  C   UNL     1      -3.725 -11.726  10.750  0.00  0.00    +0.023 C 
ATOM     15  C   UNL     1      -2.944 -10.487  11.144  0.00  0.00    -0.073 C 
ATOM     16  C   UNL     1      -2.171 -10.451  12.242  0.00  0.00    -0.023 C 
ATOM     21  C   UNL     1      -3.039  -9.306  10.219  0.00  0.00    +0.039 C 
ENDROOT
BRANCH  10  14
ATOM     14  C   UNL     1      -2.559 -14.043  13.656  0.00  0.00    -0.013 C 
ATOM     19  C   UNL     1      -3.370 -15.226  13.134  0.00  0.00    +0.007 C 
ATOM     20  C   UNL     1      -1.067 -14.270  13.428  0.00  0.00    +0.007 C 
ENDBRANCH  10  14
BRANCH  11  17
ATOM     17  C   UNL     1      -2.105 -11.057  14.652  0.00  0.00    +0.113 C 
BRANCH  17   7
ATOM      7  N   UNL     1      -3.400 -10.380  14.822  0.00  0.00    -0.189 NA
ATOM     35  H   UNL     1      -3.482  -9.446  14.400  0.00  0.00    +0.148 HD
BRANCH   7   1
ATOM      1  S   UNL     1      -4.365 -10.707  16.188  0.00  0.00    +0.058 S 
ATOM      4  O   UNL     1      -5.340  -9.645  16.350  0.00  0.00    -0.153 OA
ATOM      5  O   UNL     1      -3.508 -11.087  17.295  0.00  0.00    -0.153 OA
BRANCH   1  27
ATOM      2  F   UNL     1      -7.239 -15.569  14.489  0.00  0.00    -0.205 F 
ATOM     27  C   UNL     1      -5.227 -12.164  15.678  0.00  0.00    +0.105 A 
ATOM     29  C   UNL     1      -5.040 -13.361  16.370  0.00  0.00    +0.031 A 
ATOM     30  C   UNL     1      -6.092 -12.118  14.585  0.00  0.00    +0.031 A 
ATOM     32  C   UNL     1      -5.720 -14.512  15.968  0.00  0.00    +0.040 A 
ATOM     33  C   UNL     1      -6.772 -13.267  14.184  0.00  0.00    +0.040 A 
ATOM     34  C   UNL     1      -6.586 -14.464  14.876  0.00  0.00    +0.124 A 
ENDBRANCH   1  27
ENDBRANCH   7   1
ENDBRANCH  17   7
ENDBRANCH  11  17
BRANCH  13  18
ATOM     18  C   UNL     1      -5.227 -11.528  10.990  0.00  0.00    +0.103 C 
BRANCH  18  22
ATOM      3  O   UNL     1      -5.894 -12.728   9.059  0.00  0.00    -0.276 OA
ATOM      6  O   UNL     1      -8.260  -6.042   8.175  0.00  0.00    -0.276 OA
ATOM      8  N   UNL     1      -6.731 -10.572   9.281  0.00  0.00    -0.298 N 
ATOM      9  N   UNL     1      -7.371  -8.172   7.921  0.00  0.00    -0.299 N 
ATOM     22  C   UNL     1      -5.977 -11.671   9.691  0.00  0.00    +0.216 C 
ATOM     23  C   UNL     1      -7.487 -10.629   8.028  0.00  0.00    +0.126 C 
ATOM     24  C   UNL     1      -6.910  -9.331  10.046  0.00  0.00    +0.126 C 
ATOM     25  C   UNL     1      -7.192  -9.413   7.156  0.00  0.00    +0.126 C 
ATOM     26  C   UNL     1      -6.614  -8.114   9.174  0.00  0.00    +0.126 C 
ATOM     28  C   UNL     1      -8.126  -7.073   7.513  0.00  0.00    +0.213 C 
ATOM     31  C   UNL     1      -8.811  -7.185   6.175  0.00  0.00    +0.109 C 
ENDBRANCH  18  22
ENDBRANCH  13  18
TORSDOF 7
ENDMDL
MODEL 7
REMARK VINA RESULT:      -6.8     28.808     32.208
REMARK  Name = 38026852
REMARK  11 active torsions:
REMARK  status: ('A' for Active; 'I' for Inactive)
REMARK    1  A    between atoms: S_1  and  N_7
REMARK    2  A    between atoms: S_1  and  C_27
REMARK    3  A    between atoms: N_7  and  C_17
REMARK    4  A    between atoms: C_10  and  C_14
REMARK    5  A    between atoms: C_11  and  C_17
REMARK    6  A    between atoms: C_13  and  C_18
REMARK    7  A    between atoms: C_14  and  C_19
REMARK    8  A    between atoms: C_14  and  C_20
REMARK    9  A    between atoms: C_15  and  C_21
REMARK   10  A    between atoms: C_18  and  C_22
REMARK   11  A    between atoms: C_28  and  C_31
REMARK                            x       y       z     vdW  Elec       q    Type
REMARK                         _______ _______ _______ _____ _____    ______ ____
ROOT
ATOM     10  C   UNL     1      -5.881 -11.302  14.850  0.00  0.00    +0.000 C 
ATOM     11  C   UNL     1      -4.539 -11.710  15.507  0.00  0.00    +0.030 C 
ATOM     12  C   UNL     1      -6.436 -10.030  15.509  0.00  0.00    +0.012 C 
ATOM     13  C   UNL     1      -6.669 -10.211  17.021  0.00  0.00    +0.023 C 
ATOM     15  C   UNL     1      -5.479 -10.862  17.699  0.00  0.00    -0.073 C 
ATOM     16  C   UNL     1      -4.532 -11.515  17.005  0.00  0.00    -0.023 C 
ATOM     21  C   UNL     1      -5.382 -10.705  19.191  0.00  0.00    +0.039 C 
ENDROOT
BRANCH  10  14
ATOM     14  C   UNL     1      -5.732 -11.081  13.341  0.00  0.00    -0.013 C 
ATOM     19  C   UNL     1      -6.683 -11.994  12.572  0.00  0.00    +0.007 C 
ATOM     20  C   UNL     1      -5.985  -9.619  12.990  0.00  0.00    +0.007 C 
ENDBRANCH  10  14
BRANCH  11  17
ATOM     17  C   UNL     1      -4.182 -13.164  15.179  0.00  0.00    +0.113 C 
BRANCH  17   7
ATOM      7  N   UNL     1      -2.736 -13.260  14.930  0.00  0.00    -0.189 NA
ATOM     35  H   UNL     1      -2.146 -12.570  15.413  0.00  0.00    +0.148 HD
BRANCH   7   1
ATOM      1  S   UNL     1      -2.159 -13.880  13.451  0.00  0.00    +0.058 S 
ATOM      4  O   UNL     1      -2.946 -15.040  13.079  0.00  0.00    -0.153 OA
ATOM      5  O   UNL     1      -0.712 -13.966  13.504  0.00  0.00    -0.153 OA
BRANCH   1  27
ATOM      2  F   UNL     1      -3.483  -9.509   9.720  0.00  0.00    -0.205 F 
ATOM     27  C   UNL     1      -2.556 -12.570  12.333  0.00  0.00    +0.105 A 
ATOM     29  C   UNL     1      -2.083 -11.280  12.573  0.00  0.00    +0.031 A 
ATOM     30  C   UNL     1      -3.343 -12.825  11.209  0.00  0.00    +0.031 A 
ATOM     32  C   UNL     1      -2.396 -10.246  11.691  0.00  0.00    +0.040 A 
ATOM     33  C   UNL     1      -3.655 -11.792  10.326  0.00  0.00    +0.040 A 
ATOM     34  C   UNL     1      -3.182 -10.502  10.567  0.00  0.00    +0.124 A 
ENDBRANCH   1  27
ENDBRANCH   7   1
ENDBRANCH  17   7
ENDBRANCH  11  17
BRANCH  13  18
ATOM     18  C   UNL     1      -7.955 -11.001  17.291  0.00  0.00    +0.103 C 
BRANCH  18  22
ATOM      3  O   UNL     1      -8.927  -8.851  17.499  0.00  0.00    -0.276 OA
ATOM      6  O   UNL     1     -13.156 -13.318  21.139  0.00  0.00    -0.276 OA
ATOM      8  N   UNL     1     -10.173 -10.636  18.312  0.00  0.00    -0.298 N 
ATOM      9  N   UNL     1     -11.882 -11.528  20.386  0.00  0.00    -0.299 N 
ATOM     22  C   UNL     1      -9.057 -10.060  17.706  0.00  0.00    +0.216 C 
ATOM     23  C   UNL     1     -11.287  -9.789  18.747  0.00  0.00    +0.126 C 
ATOM     24  C   UNL     1     -10.390 -12.076  18.504  0.00  0.00    +0.126 C 
ATOM     25  C   UNL     1     -11.666 -10.088  20.194  0.00  0.00    +0.126 C 
ATOM     26  C   UNL     1     -10.768 -12.374  19.952  0.00  0.00    +0.126 C 
ATOM     28  C   UNL     1     -12.999 -12.104  20.990  0.00  0.00    +0.213 C 
ATOM     31  C   UNL     1     -14.065 -11.157  21.478  0.00  0.00    +0.109 C 
ENDBRANCH  18  22
ENDBRANCH  13  18
TORSDOF 7
ENDMDL
MODEL 8
REMARK VINA RESULT:      -6.8     32.427     34.689
REMARK  Name = 38026852
REMARK  11 active torsions:
REMARK  status: ('A' for Active; 'I' for Inactive)
REMARK    1  A    between atoms: S_1  and  N_7
REMARK    2  A    between atoms: S_1  and  C_27
REMARK    3  A    between atoms: N_7  and  C_17
REMARK    4  A    between atoms: C_10  and  C_14
REMARK    5  A    between atoms: C_11  and  C_17
REMARK    6  A    between atoms: C_13  and  C_18
REMARK    7  A    between atoms: C_14  and  C_19
REMARK    8  A    between atoms: C_14  and  C_20
REMARK    9  A    between atoms: C_15  and  C_21
REMARK   10  A    between atoms: C_18  and  C_22
REMARK   11  A    between atoms: C_28  and  C_31
REMARK                            x       y       z     vdW  Elec       q    Type
REMARK                         _______ _______ _______ _____ _____    ______ ____
ROOT
ATOM     10  C   UNL     1     -16.192   3.787  30.211  0.00  0.00    +0.000 C 
ATOM     11  C   UNL     1     -15.422   3.341  31.479  0.00  0.00    +0.030 C 
ATOM     12  C   UNL     1     -17.206   2.711  29.793  0.00  0.00    +0.012 C 
ATOM     13  C   UNL     1     -16.533   1.357  29.502  0.00  0.00    +0.023 C 
ATOM     15  C   UNL     1     -15.548   0.974  30.589  0.00  0.00    -0.073 C 
ATOM     16  C   UNL     1     -15.073   1.871  31.470  0.00  0.00    -0.023 C 
ATOM     21  C   UNL     1     -15.155  -0.475  30.666  0.00  0.00    +0.039 C 
ENDROOT
BRANCH  10  14
ATOM     14  C   UNL     1     -16.912   5.123  30.424  0.00  0.00    -0.013 C 
ATOM     19  C   UNL     1     -17.081   5.855  29.096  0.00  0.00    +0.007 C 
ATOM     20  C   UNL     1     -18.264   4.899  31.093  0.00  0.00    +0.007 C 
ENDBRANCH  10  14
BRANCH  11  17
ATOM     17  C   UNL     1     -14.145   4.168  31.670  0.00  0.00    +0.113 C 
BRANCH  17   7
ATOM      7  N   UNL     1     -13.872   4.303  33.109  0.00  0.00    -0.189 NA
ATOM     35  H   UNL     1     -13.649   3.435  33.612  0.00  0.00    +0.148 HD
BRANCH   7   1
ATOM      1  S   UNL     1     -14.594   5.560  34.005  0.00  0.00    +0.058 S 
ATOM      4  O   UNL     1     -13.891   5.716  35.263  0.00  0.00    -0.153 OA
ATOM      5  O   UNL     1     -16.035   5.387  33.989  0.00  0.00    -0.153 OA
BRANCH   1  27
ATOM      2  F   UNL     1     -13.393  10.263  30.654  0.00  0.00    -0.205 F 
ATOM     27  C   UNL     1     -14.234   6.970  33.000  0.00  0.00    +0.105 A 
ATOM     29  C   UNL     1     -12.927   7.450  32.916  0.00  0.00    +0.031 A 
ATOM     30  C   UNL     1     -15.256   7.602  32.292  0.00  0.00    +0.031 A 
ATOM     32  C   UNL     1     -12.643   8.563  32.123  0.00  0.00    +0.040 A 
ATOM     33  C   UNL     1     -14.973   8.713  31.499  0.00  0.00    +0.040 A 
ATOM     34  C   UNL     1     -13.666   9.194  31.415  0.00  0.00    +0.124 A 
ENDBRANCH   1  27
ENDBRANCH   7   1
ENDBRANCH  17   7
ENDBRANCH  11  17
BRANCH  13  18
ATOM     18  C   UNL     1     -15.857   1.361  28.126  0.00  0.00    +0.103 C 
BRANCH  18  22
ATOM      3  O   UNL     1     -17.610   0.190  27.044  0.00  0.00    -0.276 OA
ATOM      6  O   UNL     1     -15.926   5.666  22.769  0.00  0.00    -0.276 OA
ATOM      8  N   UNL     1     -16.977   2.216  26.098  0.00  0.00    -0.298 N 
ATOM      9  N   UNL     1     -16.514   3.610  23.677  0.00  0.00    -0.299 N 
ATOM     22  C   UNL     1     -16.895   1.196  27.045  0.00  0.00    +0.216 C 
ATOM     23  C   UNL     1     -17.958   2.130  25.013  0.00  0.00    +0.126 C 
ATOM     24  C   UNL     1     -16.194   3.458  26.115  0.00  0.00    +0.126 C 
ATOM     25  C   UNL     1     -17.297   2.368  23.659  0.00  0.00    +0.126 C 
ATOM     26  C   UNL     1     -15.532   3.696  24.761  0.00  0.00    +0.126 C 
ATOM     28  C   UNL     1     -16.596   4.631  22.730  0.00  0.00    +0.213 C 
ATOM     31  C   UNL     1     -17.578   4.429  21.605  0.00  0.00    +0.109 C 
ENDBRANCH  18  22
ENDBRANCH  13  18
TORSDOF 7
ENDMDL
MODEL 9
REMARK VINA RESULT:      -6.8     27.683     31.113
REMARK  Name = 38026852
REMARK  11 active torsions:
REMARK  status: ('A' for Active; 'I' for Inactive)
REMARK    1  A    between atoms: S_1  and  N_7
REMARK    2  A    between atoms: S_1  and  C_27
REMARK    3  A    between atoms: N_7  and  C_17
REMARK    4  A    between atoms: C_10  and  C_14
REMARK    5  A    between atoms: C_11  and  C_17
REMARK    6  A    between atoms: C_13  and  C_18
REMARK    7  A    between atoms: C_14  and  C_19
REMARK    8  A    between atoms: C_14  and  C_20
REMARK    9  A    between atoms: C_15  and  C_21
REMARK   10  A    between atoms: C_18  and  C_22
REMARK   11  A    between atoms: C_28  and  C_31
REMARK                            x       y       z     vdW  Elec       q    Type
REMARK                         _______ _______ _______ _____ _____    ______ ____
ROOT
ATOM     10  C   UNL     1      -3.459 -11.365  14.597  0.00  0.00    +0.000 C 
ATOM     11  C   UNL     1      -4.385 -10.677  15.632  0.00  0.00    +0.030 C 
ATOM     12  C   UNL     1      -3.441 -10.569  13.282  0.00  0.00    +0.012 C 
ATOM     13  C   UNL     1      -4.845 -10.434  12.664  0.00  0.00    +0.023 C 
ATOM     15  C   UNL     1      -5.875 -10.015  13.695  0.00  0.00    -0.073 C 
ATOM     16  C   UNL     1      -5.646 -10.119  15.016  0.00  0.00    -0.023 C 
ATOM     21  C   UNL     1      -7.158  -9.432  13.172  0.00  0.00    +0.039 C 
ENDROOT
BRANCH  10  14
ATOM     14  C   UNL     1      -2.030 -11.521  15.128  0.00  0.00    -0.013 C 
ATOM     19  C   UNL     1      -1.214 -12.421  14.205  0.00  0.00    +0.007 C 
ATOM     20  C   UNL     1      -1.366 -10.156  15.277  0.00  0.00    +0.007 C 
ENDBRANCH  10  14
BRANCH  11  17
ATOM     17  C   UNL     1      -4.753 -11.638  16.768  0.00  0.00    +0.113 C 
BRANCH  17   7
ATOM      7  N   UNL     1      -5.021 -10.860  17.987  0.00  0.00    -0.189 NA
ATOM     35  H   UNL     1      -4.197 -10.526  18.502  0.00  0.00    +0.148 HD
BRANCH   7   1
ATOM      1  S   UNL     1      -6.443 -11.136  18.885  0.00  0.00    +0.058 S 
ATOM      4  O   UNL     1      -6.458 -10.259  20.039  0.00  0.00    -0.153 OA
ATOM      5  O   UNL     1      -6.630 -12.565  19.051  0.00  0.00    -0.153 OA
BRANCH   1  27
ATOM      2  F   UNL     1     -10.605  -9.284  15.139  0.00  0.00    -0.205 F 
ATOM     27  C   UNL     1      -7.691 -10.581  17.762  0.00  0.00    +0.105 A 
ATOM     29  C   UNL     1      -8.452 -11.509  17.051  0.00  0.00    +0.031 A 
ATOM     30  C   UNL     1      -7.914  -9.215  17.587  0.00  0.00    +0.031 A 
ATOM     32  C   UNL     1      -9.437 -11.070  16.165  0.00  0.00    +0.040 A 
ATOM     33  C   UNL     1      -8.898  -8.777  16.702  0.00  0.00    +0.040 A 
ATOM     34  C   UNL     1      -9.660  -9.704  15.991  0.00  0.00    +0.124 A 
ENDBRANCH   1  27
ENDBRANCH   7   1
ENDBRANCH  17   7
ENDBRANCH  11  17
BRANCH  13  18
ATOM     18  C   UNL     1      -5.267 -11.729  11.962  0.00  0.00    +0.103 C 
BRANCH  18  22
ATOM      3  O   UNL     1      -3.587 -12.192  10.357  0.00  0.00    -0.276 OA
ATOM      6  O   UNL     1      -8.678  -8.535   6.923  0.00  0.00    -0.276 OA
ATOM      8  N   UNL     1      -5.558 -11.259   9.555  0.00  0.00    -0.298 N 
ATOM      9  N   UNL     1      -6.684  -9.406   7.733  0.00  0.00    -0.299 N 
ATOM     22  C   UNL     1      -4.722 -11.752  10.557  0.00  0.00    +0.216 C 
ATOM     23  C   UNL     1      -5.102 -11.244   8.164  0.00  0.00    +0.126 C 
ATOM     24  C   UNL     1      -6.939 -10.799   9.750  0.00  0.00    +0.126 C 
ATOM     25  C   UNL     1      -5.302  -9.866   7.539  0.00  0.00    +0.126 C 
ATOM     26  C   UNL     1      -7.140  -9.421   9.126  0.00  0.00    +0.126 C 
ATOM     28  C   UNL     1      -7.520  -8.915   6.732  0.00  0.00    +0.213 C 
ATOM     31  C   UNL     1      -6.947  -8.862   5.340  0.00  0.00    +0.109 C 
ENDBRANCH  18  22
ENDBRANCH  13  18
TORSDOF 7
ENDMDL
MODEL 10
REMARK VINA RESULT:      -6.8     15.336     17.694
REMARK  Name = 38026852
REMARK  11 active torsions:
REMARK  status: ('A' for Active; 'I' for Inactive)
REMARK    1  A    between atoms: S_1  and  N_7
REMARK    2  A    between atoms: S_1  and  C_27
REMARK    3  A    between atoms: N_7  and  C_17
REMARK    4  A    between atoms: C_10  and  C_14
REMARK    5  A    between atoms: C_11  and  C_17
REMARK    6  A    between atoms: C_13  and  C_18
REMARK    7  A    between atoms: C_14  and  C_19
REMARK    8  A    between atoms: C_14  and  C_20
REMARK    9  A    between atoms: C_15  and  C_21
REMARK   10  A    between atoms: C_18  and  C_22
REMARK   11  A    between atoms: C_28  and  C_31
REMARK                            x       y       z     vdW  Elec       q    Type
REMARK                         _______ _______ _______ _____ _____    ______ ____
ROOT
ATOM     10  C   UNL     1       8.905   8.567   4.908  0.00  0.00    +0.000 C 
ATOM     11  C   UNL     1       8.559   9.128   6.310  0.00  0.00    +0.030 C 
ATOM     12  C   UNL     1       8.453   7.102   4.792  0.00  0.00    +0.012 C 
ATOM     13  C   UNL     1       9.114   6.203   5.853  0.00  0.00    +0.023 C 
ATOM     15  C   UNL     1       9.049   6.823   7.235  0.00  0.00    -0.073 C 
ATOM     16  C   UNL     1       8.787   8.128   7.419  0.00  0.00    -0.023 C 
ATOM     21  C   UNL     1       9.249   5.897   8.402  0.00  0.00    +0.039 C 
ENDROOT
BRANCH  10  14
ATOM     14  C   UNL     1       8.266   9.397   3.790  0.00  0.00    -0.013 C 
ATOM     19  C   UNL     1       8.438   8.698   2.444  0.00  0.00    +0.007 C 
ATOM     20  C   UNL     1       6.790   9.643   4.086  0.00  0.00    +0.007 C 
ENDBRANCH  10  14
BRANCH  11  17
ATOM     17  C   UNL     1       9.351  10.407   6.604  0.00  0.00    +0.113 C 
BRANCH  17   7
ATOM      7  N   UNL     1       9.603  10.494   8.051  0.00  0.00    -0.189 NA
ATOM     35  H   UNL     1       8.816  10.249   8.664  0.00  0.00    +0.148 HD
BRANCH   7   1
ATOM      1  S   UNL     1      10.748  11.602   8.656  0.00  0.00    +0.058 S 
ATOM      4  O   UNL     1      10.670  12.834   7.895  0.00  0.00    -0.153 OA
ATOM      5  O   UNL     1      12.021  10.927   8.825  0.00  0.00    -0.153 OA
BRANCH   1  27
ATOM      2  F   UNL     1       8.642  12.669  14.061  0.00  0.00    -0.205 F 
ATOM     27  C   UNL     1      10.116  11.922  10.276  0.00  0.00    +0.105 A 
ATOM     29  C   UNL     1      10.985  11.968  11.367  0.00  0.00    +0.031 A 
ATOM     30  C   UNL     1       8.750  12.129  10.465  0.00  0.00    +0.031 A 
ATOM     32  C   UNL     1      10.487  12.220  12.645  0.00  0.00    +0.040 A 
ATOM     33  C   UNL     1       8.252  12.382  11.742  0.00  0.00    +0.040 A 
ATOM     34  C   UNL     1       9.121  12.427  12.833  0.00  0.00    +0.124 A 
ENDBRANCH   1  27
ENDBRANCH   7   1
ENDBRANCH  17   7
ENDBRANCH  11  17
BRANCH  13  18
ATOM     18  C   UNL     1      10.560   5.866   5.470  0.00  0.00    +0.103 C 
BRANCH  18  22
ATOM      3  O   UNL     1      10.102   3.600   4.951  0.00  0.00    -0.276 OA
ATOM      6  O   UNL     1      14.139   6.098  -0.392  0.00  0.00    -0.276 OA
ATOM      8  N   UNL     1      11.157   4.849   3.301  0.00  0.00    -0.298 N 
ATOM      9  N   UNL     1      13.144   4.833   1.282  0.00  0.00    -0.299 N 
ATOM     22  C   UNL     1      10.582   4.666   4.557  0.00  0.00    +0.216 C 
ATOM     23  C   UNL     1      11.220   3.732   2.355  0.00  0.00    +0.126 C 
ATOM     24  C   UNL     1      11.668   6.122   2.775  0.00  0.00    +0.126 C 
ATOM     25  C   UNL     1      12.634   3.559   1.807  0.00  0.00    +0.126 C 
ATOM     26  C   UNL     1      13.082   5.950   2.228  0.00  0.00    +0.126 C 
ATOM     28  C   UNL     1      13.718   5.016   0.025  0.00  0.00    +0.213 C 
ATOM     31  C   UNL     1      13.813   3.798  -0.857  0.00  0.00    +0.109 C 
ENDBRANCH  18  22
ENDBRANCH  13  18
TORSDOF 7
ENDMDL
