MODEL 1
REMARK VINA RESULT:      -6.9      0.000      0.000
REMARK  Name = 45783549
REMARK  12 active torsions:
REMARK  status: ('A' for Active; 'I' for Inactive)
REMARK    1  A    between atoms: O_2  and  C_28
REMARK    2  A    between atoms: O_2  and  C_29
REMARK    3  A    between atoms: O_3  and  C_30
REMARK    4  A    between atoms: O_3  and  C_31
REMARK    5  A    between atoms: N_4  and  C_13
REMARK    6  A    between atoms: N_7  and  C_21
REMARK    7  A    between atoms: N_7  and  C_25
REMARK    8  A    between atoms: N_7  and  C_26
REMARK    9  A    between atoms: C_9  and  C_14
REMARK   10  A    between atoms: C_13  and  C_15
REMARK   11  A    between atoms: C_18  and  C_22
REMARK   12  A    between atoms: C_29  and  C_30
REMARK                            x       y       z     vdW  Elec       q    Type
REMARK                         _______ _______ _______ _____ _____    ______ ____
ROOT
ATOM      1  O   UNL     1      14.929   8.779  19.899  0.00  0.00    -0.336 OA
ATOM      5  N   UNL     1      15.853   6.896  19.115  0.00  0.00    -0.190 NA
ATOM      6  N   UNL     1      16.122   8.606  20.611  0.00  0.00    -0.056 NA
ATOM     14  C   UNL     1      14.846   7.730  19.040  0.00  0.00    +0.245 A 
ATOM     18  C   UNL     1      16.609   7.475  20.092  0.00  0.00    +0.204 A 
ENDROOT
BRANCH  18  22
ATOM      8  N   UNL     1      19.694   6.900  22.088  0.00  0.00    -0.221 NA
ATOM     22  C   UNL     1      17.847   6.896  20.528  0.00  0.00    +0.041 A 
ATOM     23  C   UNL     1      18.407   5.813  19.857  0.00  0.00    +0.018 A 
ATOM     24  C   UNL     1      18.524   7.398  21.627  0.00  0.00    +0.126 A 
ATOM     27  C   UNL     1      19.608   5.273  20.301  0.00  0.00    +0.068 A 
ATOM     28  C   UNL     1      20.206   5.847  21.411  0.00  0.00    +0.215 A 
BRANCH  28   2
ATOM      2  O   UNL     1      21.390   5.333  21.869  0.00  0.00    -0.474 OA
BRANCH   2  29
ATOM     29  C   UNL     1      22.140   4.541  20.954  0.00  0.00    +0.258 C 
BRANCH  29  30
ATOM     30  C   UNL     1      22.783   3.392  21.707  0.00  0.00    +0.200 C 
BRANCH  30   3
ATOM      3  O   UNL     1      24.046   3.102  21.121  0.00  0.00    -0.380 OA
ATOM     31  C   UNL     1      24.241   1.702  20.968  0.00  0.00    +0.194 C 
ENDBRANCH  30   3
ENDBRANCH  29  30
ENDBRANCH   2  29
ENDBRANCH  28   2
ENDBRANCH  18  22
BRANCH  14   9
ATOM      4  N   UNL     1      12.595   8.666  18.540  0.00  0.00    -0.287 NA
ATOM      9  C   UNL     1      13.627   7.687  18.143  0.00  0.00    +0.146 C 
ATOM     10  C   UNL     1      13.953   8.034  16.679  0.00  0.00    +0.030 C 
ATOM     11  C   UNL     1      13.015   9.178  16.322  0.00  0.00    +0.017 C 
ATOM     12  C   UNL     1      11.881   9.032  17.316  0.00  0.00    +0.085 C 
BRANCH   4  13
ATOM     13  C   UNL     1      11.696   8.168  19.572  0.00  0.00    +0.120 C 
BRANCH  13  15
ATOM     15  C   UNL     1      11.503   9.169  20.680  0.00  0.00    -0.033 A 
ATOM     16  C   UNL     1      10.742   8.832  21.800  0.00  0.00    +0.007 A 
ATOM     17  C   UNL     1      12.087  10.431  20.588  0.00  0.00    +0.007 A 
ATOM     19  C   UNL     1      10.564   9.759  22.826  0.00  0.00    +0.023 A 
ATOM     20  C   UNL     1      11.910  11.359  21.615  0.00  0.00    +0.023 A 
ATOM     21  C   UNL     1      11.148  11.023  22.733  0.00  0.00    +0.029 A 
BRANCH  21   7
ATOM      7  N   UNL     1      10.969  11.960  23.772  0.00  0.00    -0.336 N 
ATOM     25  C   UNL     1      11.263  11.601  25.145  0.00  0.00    +0.129 C 
ATOM     26  C   UNL     1      10.495  13.298  23.479  0.00  0.00    +0.129 C 
ENDBRANCH  21   7
ENDBRANCH  13  15
ENDBRANCH   4  13
ENDBRANCH  14   9
TORSDOF 9
ENDMDL
MODEL 2
REMARK VINA RESULT:      -6.7      1.832      2.440
REMARK  Name = 45783549
REMARK  12 active torsions:
REMARK  status: ('A' for Active; 'I' for Inactive)
REMARK    1  A    between atoms: O_2  and  C_28
REMARK    2  A    between atoms: O_2  and  C_29
REMARK    3  A    between atoms: O_3  and  C_30
REMARK    4  A    between atoms: O_3  and  C_31
REMARK    5  A    between atoms: N_4  and  C_13
REMARK    6  A    between atoms: N_7  and  C_21
REMARK    7  A    between atoms: N_7  and  C_25
REMARK    8  A    between atoms: N_7  and  C_26
REMARK    9  A    between atoms: C_9  and  C_14
REMARK   10  A    between atoms: C_13  and  C_15
REMARK   11  A    between atoms: C_18  and  C_22
REMARK   12  A    between atoms: C_29  and  C_30
REMARK                            x       y       z     vdW  Elec       q    Type
REMARK                         _______ _______ _______ _____ _____    ______ ____
ROOT
ATOM      1  O   UNL     1      14.078   6.665  20.339  0.00  0.00    -0.336 OA
ATOM      5  N   UNL     1      15.752   7.507  19.112  0.00  0.00    -0.190 NA
ATOM      6  N   UNL     1      15.240   6.505  21.104  0.00  0.00    -0.056 NA
ATOM     14  C   UNL     1      14.467   7.261  19.183  0.00  0.00    +0.245 A 
ATOM     18  C   UNL     1      16.184   7.026  20.314  0.00  0.00    +0.204 A 
ENDROOT
BRANCH  18  22
ATOM      8  N   UNL     1      19.328   8.178  21.930  0.00  0.00    -0.221 NA
ATOM     22  C   UNL     1      17.565   7.078  20.693  0.00  0.00    +0.041 A 
ATOM     23  C   UNL     1      18.474   6.135  20.224  0.00  0.00    +0.018 A 
ATOM     24  C   UNL     1      18.039   8.071  21.535  0.00  0.00    +0.126 A 
ATOM     27  C   UNL     1      19.808   6.211  20.608  0.00  0.00    +0.068 A 
ATOM     28  C   UNL     1      20.181   7.242  21.454  0.00  0.00    +0.215 A 
BRANCH  28   2
ATOM      2  O   UNL     1      21.490   7.339  21.847  0.00  0.00    -0.474 OA
BRANCH   2  29
ATOM     29  C   UNL     1      21.731   7.461  23.244  0.00  0.00    +0.258 C 
BRANCH  29  30
ATOM     30  C   UNL     1      21.729   6.078  23.868  0.00  0.00    +0.200 C 
BRANCH  30   3
ATOM      3  O   UNL     1      21.333   6.184  25.230  0.00  0.00    -0.380 OA
ATOM     31  C   UNL     1      20.438   7.270  25.431  0.00  0.00    +0.194 C 
ENDBRANCH  30   3
ENDBRANCH  29  30
ENDBRANCH   2  29
ENDBRANCH  28   2
ENDBRANCH  18  22
BRANCH  14   9
ATOM      4  N   UNL     1      12.582   8.743  18.516  0.00  0.00    -0.287 NA
ATOM      9  C   UNL     1      13.378   7.547  18.171  0.00  0.00    +0.146 C 
ATOM     10  C   UNL     1      13.934   7.841  16.765  0.00  0.00    +0.030 C 
ATOM     11  C   UNL     1      13.349   9.192  16.379  0.00  0.00    +0.017 C 
ATOM     12  C   UNL     1      12.114   9.307  17.250  0.00  0.00    +0.085 C 
BRANCH   4  13
ATOM     13  C   UNL     1      11.483   8.457  19.429  0.00  0.00    +0.120 C 
BRANCH  13  15
ATOM     15  C   UNL     1      11.512   9.352  20.640  0.00  0.00    -0.033 A 
ATOM     16  C   UNL     1      12.221  10.553  20.602  0.00  0.00    +0.007 A 
ATOM     17  C   UNL     1      10.829   8.982  21.797  0.00  0.00    +0.007 A 
ATOM     19  C   UNL     1      12.248  11.382  21.722  0.00  0.00    +0.023 A 
ATOM     20  C   UNL     1      10.855   9.812  22.918  0.00  0.00    +0.023 A 
ATOM     21  C   UNL     1      11.564  11.011  22.881  0.00  0.00    +0.029 A 
BRANCH  21   7
ATOM      7  N   UNL     1      11.590  11.851  24.014  0.00  0.00    -0.336 N 
ATOM     25  C   UNL     1      10.473  12.727  24.305  0.00  0.00    +0.129 C 
ATOM     26  C   UNL     1      12.732  11.843  24.906  0.00  0.00    +0.129 C 
ENDBRANCH  21   7
ENDBRANCH  13  15
ENDBRANCH   4  13
ENDBRANCH  14   9
TORSDOF 9
ENDMDL
MODEL 3
REMARK VINA RESULT:      -6.4     27.930     29.804
REMARK  Name = 45783549
REMARK  12 active torsions:
REMARK  status: ('A' for Active; 'I' for Inactive)
REMARK    1  A    between atoms: O_2  and  C_28
REMARK    2  A    between atoms: O_2  and  C_29
REMARK    3  A    between atoms: O_3  and  C_30
REMARK    4  A    between atoms: O_3  and  C_31
REMARK    5  A    between atoms: N_4  and  C_13
REMARK    6  A    between atoms: N_7  and  C_21
REMARK    7  A    between atoms: N_7  and  C_25
REMARK    8  A    between atoms: N_7  and  C_26
REMARK    9  A    between atoms: C_9  and  C_14
REMARK   10  A    between atoms: C_13  and  C_15
REMARK   11  A    between atoms: C_18  and  C_22
REMARK   12  A    between atoms: C_29  and  C_30
REMARK                            x       y       z     vdW  Elec       q    Type
REMARK                         _______ _______ _______ _____ _____    ______ ____
ROOT
ATOM      1  O   UNL     1      -7.971  -9.812  11.371  0.00  0.00    -0.336 OA
ATOM      5  N   UNL     1      -5.982  -9.124  12.136  0.00  0.00    -0.190 NA
ATOM      6  N   UNL     1      -7.895 -10.245  12.700  0.00  0.00    -0.056 NA
ATOM     14  C   UNL     1      -6.805  -9.162  11.118  0.00  0.00    +0.245 A 
ATOM     18  C   UNL     1      -6.693  -9.801  13.083  0.00  0.00    +0.204 A 
ENDROOT
BRANCH  18  22
ATOM      8  N   UNL     1      -6.549 -10.051  16.791  0.00  0.00    -0.221 NA
ATOM     22  C   UNL     1      -6.175 -10.018  14.402  0.00  0.00    +0.041 A 
ATOM     23  C   UNL     1      -4.848 -10.389  14.598  0.00  0.00    +0.018 A 
ATOM     24  C   UNL     1      -6.976  -9.863  15.521  0.00  0.00    +0.126 A 
ATOM     27  C   UNL     1      -4.372 -10.592  15.888  0.00  0.00    +0.068 A 
ATOM     28  C   UNL     1      -5.255 -10.411  16.941  0.00  0.00    +0.215 A 
BRANCH  28   2
ATOM      2  O   UNL     1      -4.810 -10.605  18.222  0.00  0.00    -0.474 OA
BRANCH   2  29
ATOM     29  C   UNL     1      -5.332 -11.732  18.917  0.00  0.00    +0.258 C 
BRANCH  29  30
ATOM     30  C   UNL     1      -6.023 -11.257  20.181  0.00  0.00    +0.200 C 
BRANCH  30   3
ATOM      3  O   UNL     1      -7.431 -11.335  19.998  0.00  0.00    -0.380 OA
ATOM     31  C   UNL     1      -7.808 -12.547  19.358  0.00  0.00    +0.194 C 
ENDBRANCH  30   3
ENDBRANCH  29  30
ENDBRANCH   2  29
ENDBRANCH  28   2
ENDBRANCH  18  22
BRANCH  14   9
ATOM      4  N   UNL     1      -5.903  -9.498   8.823  0.00  0.00    -0.287 NA
ATOM      9  C   UNL     1      -6.639  -8.590   9.726  0.00  0.00    +0.146 C 
ATOM     10  C   UNL     1      -7.986  -8.344   9.020  0.00  0.00    +0.030 C 
ATOM     11  C   UNL     1      -7.890  -9.102   7.704  0.00  0.00    +0.017 C 
ATOM     12  C   UNL     1      -6.397  -9.227   7.473  0.00  0.00    +0.085 C 
BRANCH   4  13
ATOM     13  C   UNL     1      -4.456  -9.352   8.918  0.00  0.00    +0.120 C 
BRANCH  13  15
ATOM     15  C   UNL     1      -3.863 -10.291   9.935  0.00  0.00    -0.033 A 
ATOM     16  C   UNL     1      -4.283 -11.620   9.985  0.00  0.00    +0.007 A 
ATOM     17  C   UNL     1      -2.895  -9.831  10.826  0.00  0.00    +0.007 A 
ATOM     19  C   UNL     1      -3.734 -12.489  10.927  0.00  0.00    +0.023 A 
ATOM     20  C   UNL     1      -2.345 -10.700  11.769  0.00  0.00    +0.023 A 
ATOM     21  C   UNL     1      -2.764 -12.029  11.819  0.00  0.00    +0.029 A 
BRANCH  21   7
ATOM      7  N   UNL     1      -2.208 -12.908  12.771  0.00  0.00    -0.336 N 
ATOM     25  C   UNL     1      -2.252 -14.342  12.561  0.00  0.00    +0.129 C 
ATOM     26  C   UNL     1      -1.579 -12.389  13.969  0.00  0.00    +0.129 C 
ENDBRANCH  21   7
ENDBRANCH  13  15
ENDBRANCH   4  13
ENDBRANCH  14   9
TORSDOF 9
ENDMDL
MODEL 4
REMARK VINA RESULT:      -6.4      2.166      4.684
REMARK  Name = 45783549
REMARK  12 active torsions:
REMARK  status: ('A' for Active; 'I' for Inactive)
REMARK    1  A    between atoms: O_2  and  C_28
REMARK    2  A    between atoms: O_2  and  C_29
REMARK    3  A    between atoms: O_3  and  C_30
REMARK    4  A    between atoms: O_3  and  C_31
REMARK    5  A    between atoms: N_4  and  C_13
REMARK    6  A    between atoms: N_7  and  C_21
REMARK    7  A    between atoms: N_7  and  C_25
REMARK    8  A    between atoms: N_7  and  C_26
REMARK    9  A    between atoms: C_9  and  C_14
REMARK   10  A    between atoms: C_13  and  C_15
REMARK   11  A    between atoms: C_18  and  C_22
REMARK   12  A    between atoms: C_29  and  C_30
REMARK                            x       y       z     vdW  Elec       q    Type
REMARK                         _______ _______ _______ _____ _____    ______ ____
ROOT
ATOM      1  O   UNL     1      14.415   6.867  19.585  0.00  0.00    -0.336 OA
ATOM      5  N   UNL     1      15.703   7.490  21.308  0.00  0.00    -0.190 NA
ATOM      6  N   UNL     1      15.685   6.332  19.335  0.00  0.00    -0.056 NA
ATOM     14  C   UNL     1      14.512   7.533  20.764  0.00  0.00    +0.245 A 
ATOM     18  C   UNL     1      16.388   6.742  20.395  0.00  0.00    +0.204 A 
ENDROOT
BRANCH  18  22
ATOM      8  N   UNL     1      19.676   5.060  19.962  0.00  0.00    -0.221 NA
ATOM     22  C   UNL     1      17.775   6.425  20.571  0.00  0.00    +0.041 A 
ATOM     23  C   UNL     1      18.560   7.125  21.481  0.00  0.00    +0.018 A 
ATOM     24  C   UNL     1      18.375   5.410  19.843  0.00  0.00    +0.126 A 
ATOM     27  C   UNL     1      19.903   6.794  21.631  0.00  0.00    +0.068 A 
ATOM     28  C   UNL     1      20.407   5.764  20.856  0.00  0.00    +0.215 A 
BRANCH  28   2
ATOM      2  O   UNL     1      21.727   5.419  20.985  0.00  0.00    -0.474 OA
BRANCH   2  29
ATOM     29  C   UNL     1      22.038   4.435  21.965  0.00  0.00    +0.258 C 
BRANCH  29  30
ATOM     30  C   UNL     1      22.504   3.172  21.265  0.00  0.00    +0.200 C 
BRANCH  30   3
ATOM      3  O   UNL     1      23.918   3.069  21.387  0.00  0.00    -0.380 OA
ATOM     31  C   UNL     1      24.568   3.317  20.147  0.00  0.00    +0.194 C 
ENDBRANCH  30   3
ENDBRANCH  29  30
ENDBRANCH   2  29
ENDBRANCH  28   2
ENDBRANCH  18  22
BRANCH  14   9
ATOM      4  N   UNL     1      12.573   8.992  20.209  0.00  0.00    -0.287 NA
ATOM      9  C   UNL     1      13.253   8.211  21.262  0.00  0.00    +0.146 C 
ATOM     10  C   UNL     1      12.192   7.207  21.751  0.00  0.00    +0.030 C 
ATOM     11  C   UNL     1      10.935   7.540  20.960  0.00  0.00    +0.017 C 
ATOM     12  C   UNL     1      11.148   8.981  20.541  0.00  0.00    +0.085 C 
BRANCH   4  13
ATOM     13  C   UNL     1      13.094  10.345  20.071  0.00  0.00    +0.120 C 
BRANCH  13  15
ATOM     15  C   UNL     1      13.441  10.670  18.643  0.00  0.00    -0.033 A 
ATOM     16  C   UNL     1      14.027  11.897  18.329  0.00  0.00    +0.007 A 
ATOM     17  C   UNL     1      13.178   9.745  17.634  0.00  0.00    +0.007 A 
ATOM     19  C   UNL     1      14.349  12.198  17.006  0.00  0.00    +0.023 A 
ATOM     20  C   UNL     1      13.500  10.046  16.310  0.00  0.00    +0.023 A 
ATOM     21  C   UNL     1      14.085  11.272  15.996  0.00  0.00    +0.029 A 
BRANCH  21   7
ATOM      7  N   UNL     1      14.412  11.576  14.658  0.00  0.00    -0.336 N 
ATOM     25  C   UNL     1      13.454  12.249  13.804  0.00  0.00    +0.129 C 
ATOM     26  C   UNL     1      15.712  11.225  14.123  0.00  0.00    +0.129 C 
ENDBRANCH  21   7
ENDBRANCH  13  15
ENDBRANCH   4  13
ENDBRANCH  14   9
TORSDOF 9
ENDMDL
MODEL 5
REMARK VINA RESULT:      -6.3     32.066     33.731
REMARK  Name = 45783549
REMARK  12 active torsions:
REMARK  status: ('A' for Active; 'I' for Inactive)
REMARK    1  A    between atoms: O_2  and  C_28
REMARK    2  A    between atoms: O_2  and  C_29
REMARK    3  A    between atoms: O_3  and  C_30
REMARK    4  A    between atoms: O_3  and  C_31
REMARK    5  A    between atoms: N_4  and  C_13
REMARK    6  A    between atoms: N_7  and  C_21
REMARK    7  A    between atoms: N_7  and  C_25
REMARK    8  A    between atoms: N_7  and  C_26
REMARK    9  A    between atoms: C_9  and  C_14
REMARK   10  A    between atoms: C_13  and  C_15
REMARK   11  A    between atoms: C_18  and  C_22
REMARK   12  A    between atoms: C_29  and  C_30
REMARK                            x       y       z     vdW  Elec       q    Type
REMARK                         _______ _______ _______ _____ _____    ______ ____
ROOT
ATOM      1  O   UNL     1     -17.527   6.106  32.217  0.00  0.00    -0.336 OA
ATOM      5  N   UNL     1     -15.614   5.789  31.097  0.00  0.00    -0.190 NA
ATOM      6  N   UNL     1     -17.879   5.481  31.015  0.00  0.00    -0.056 NA
ATOM     14  C   UNL     1     -16.176   6.251  32.186  0.00  0.00    +0.245 A 
ATOM     18  C   UNL     1     -16.697   5.327  30.409  0.00  0.00    +0.204 A 
ENDROOT
BRANCH  18  22
ATOM      8  N   UNL     1     -17.044   4.774  26.748  0.00  0.00    -0.221 NA
ATOM     22  C   UNL     1     -16.566   4.718  29.117  0.00  0.00    +0.041 A 
ATOM     23  C   UNL     1     -15.867   3.526  28.956  0.00  0.00    +0.018 A 
ATOM     24  C   UNL     1     -17.131   5.296  27.993  0.00  0.00    +0.126 A 
ATOM     27  C   UNL     1     -15.756   2.958  27.691  0.00  0.00    +0.068 A 
ATOM     28  C   UNL     1     -16.357   3.615  26.631  0.00  0.00    +0.215 A 
BRANCH  28   2
ATOM      2  O   UNL     1     -16.262   3.075  25.375  0.00  0.00    -0.474 OA
BRANCH   2  29
ATOM     29  C   UNL     1     -15.835   3.947  24.334  0.00  0.00    +0.258 C 
BRANCH  29  30
ATOM     30  C   UNL     1     -16.621   3.635  23.075  0.00  0.00    +0.200 C 
BRANCH  30   3
ATOM      3  O   UNL     1     -16.703   2.224  22.916  0.00  0.00    -0.380 OA
ATOM     31  C   UNL     1     -17.979   1.827  22.431  0.00  0.00    +0.194 C 
ENDBRANCH  30   3
ENDBRANCH  29  30
ENDBRANCH   2  29
ENDBRANCH  28   2
ENDBRANCH  18  22
BRANCH  14   9
ATOM      4  N   UNL     1     -14.150   6.462  33.614  0.00  0.00    -0.287 NA
ATOM      9  C   UNL     1     -15.540   6.909  33.391  0.00  0.00    +0.146 C 
ATOM     10  C   UNL     1     -15.440   8.439  33.249  0.00  0.00    +0.030 C 
ATOM     11  C   UNL     1     -13.969   8.765  33.467  0.00  0.00    +0.017 C 
ATOM     12  C   UNL     1     -13.455   7.578  34.257  0.00  0.00    +0.085 C 
BRANCH   4  13
ATOM     13  C   UNL     1     -14.059   5.236  34.396  0.00  0.00    +0.120 C 
BRANCH  13  15
ATOM     15  C   UNL     1     -14.128   4.009  33.525  0.00  0.00    -0.033 A 
ATOM     16  C   UNL     1     -13.349   3.930  32.370  0.00  0.00    +0.007 A 
ATOM     17  C   UNL     1     -14.968   2.952  33.874  0.00  0.00    +0.007 A 
ATOM     19  C   UNL     1     -13.412   2.794  31.563  0.00  0.00    +0.023 A 
ATOM     20  C   UNL     1     -15.030   1.816  33.067  0.00  0.00    +0.023 A 
ATOM     21  C   UNL     1     -14.253   1.736  31.913  0.00  0.00    +0.029 A 
BRANCH  21   7
ATOM      7  N   UNL     1     -14.315   0.587  31.098  0.00  0.00    -0.336 N 
ATOM     25  C   UNL     1     -13.521   0.500  29.889  0.00  0.00    +0.129 C 
ATOM     26  C   UNL     1     -15.170  -0.524  31.462  0.00  0.00    +0.129 C 
ENDBRANCH  21   7
ENDBRANCH  13  15
ENDBRANCH   4  13
ENDBRANCH  14   9
TORSDOF 9
ENDMDL
MODEL 6
REMARK VINA RESULT:      -6.3      4.043      7.868
REMARK  Name = 45783549
REMARK  12 active torsions:
REMARK  status: ('A' for Active; 'I' for Inactive)
REMARK    1  A    between atoms: O_2  and  C_28
REMARK    2  A    between atoms: O_2  and  C_29
REMARK    3  A    between atoms: O_3  and  C_30
REMARK    4  A    between atoms: O_3  and  C_31
REMARK    5  A    between atoms: N_4  and  C_13
REMARK    6  A    between atoms: N_7  and  C_21
REMARK    7  A    between atoms: N_7  and  C_25
REMARK    8  A    between atoms: N_7  and  C_26
REMARK    9  A    between atoms: C_9  and  C_14
REMARK   10  A    between atoms: C_13  and  C_15
REMARK   11  A    between atoms: C_18  and  C_22
REMARK   12  A    between atoms: C_29  and  C_30
REMARK                            x       y       z     vdW  Elec       q    Type
REMARK                         _______ _______ _______ _____ _____    ______ ____
ROOT
ATOM      1  O   UNL     1      12.800  10.544  19.214  0.00  0.00    -0.336 OA
ATOM      5  N   UNL     1      13.682   9.259  17.607  0.00  0.00    -0.190 NA
ATOM      6  N   UNL     1      13.531  11.404  18.385  0.00  0.00    -0.056 NA
ATOM     14  C   UNL     1      12.941   9.301  18.686  0.00  0.00    +0.245 A 
ATOM     18  C   UNL     1      14.021  10.572  17.461  0.00  0.00    +0.204 A 
ENDROOT
BRANCH  18  22
ATOM      8  N   UNL     1      15.514  10.826  14.065  0.00  0.00    -0.221 NA
ATOM     22  C   UNL     1      14.852  11.020  16.382  0.00  0.00    +0.041 A 
ATOM     23  C   UNL     1      15.779  12.041  16.569  0.00  0.00    +0.018 A 
ATOM     24  C   UNL     1      14.760  10.451  15.123  0.00  0.00    +0.126 A 
ATOM     27  C   UNL     1      16.573  12.455  15.504  0.00  0.00    +0.068 A 
ATOM     28  C   UNL     1      16.403  11.821  14.285  0.00  0.00    +0.215 A 
BRANCH  28   2
ATOM      2  O   UNL     1      17.173  12.210  13.221  0.00  0.00    -0.474 OA
BRANCH   2  29
ATOM     29  C   UNL     1      18.526  12.552  13.500  0.00  0.00    +0.258 C 
BRANCH  29  30
ATOM     30  C   UNL     1      19.401  12.083  12.354  0.00  0.00    +0.200 C 
BRANCH  30   3
ATOM      3  O   UNL     1      20.326  11.117  12.840  0.00  0.00    -0.380 OA
ATOM     31  C   UNL     1      20.343  11.080  14.260  0.00  0.00    +0.194 C 
ENDBRANCH  30   3
ENDBRANCH  29  30
ENDBRANCH   2  29
ENDBRANCH  28   2
ENDBRANCH  18  22
BRANCH  14   9
ATOM      4  N   UNL     1      13.039   7.615  20.514  0.00  0.00    -0.287 NA
ATOM      9  C   UNL     1      12.234   8.175  19.410  0.00  0.00    +0.146 C 
ATOM     10  C   UNL     1      10.921   8.629  20.075  0.00  0.00    +0.030 C 
ATOM     11  C   UNL     1      11.056   8.229  21.537  0.00  0.00    +0.017 C 
ATOM     12  C   UNL     1      12.088   7.119  21.509  0.00  0.00    +0.085 C 
BRANCH   4  13
ATOM     13  C   UNL     1      13.969   6.581  20.079  0.00  0.00    +0.120 C 
BRANCH  13  15
ATOM     15  C   UNL     1      15.398   6.949  20.378  0.00  0.00    -0.033 A 
ATOM     16  C   UNL     1      16.440   6.203  19.827  0.00  0.00    +0.007 A 
ATOM     17  C   UNL     1      15.679   8.036  21.205  0.00  0.00    +0.007 A 
ATOM     19  C   UNL     1      17.764   6.544  20.103  0.00  0.00    +0.023 A 
ATOM     20  C   UNL     1      17.004   8.378  21.481  0.00  0.00    +0.023 A 
ATOM     21  C   UNL     1      18.045   7.633  20.931  0.00  0.00    +0.029 A 
BRANCH  21   7
ATOM      7  N   UNL     1      19.384   7.978  21.209  0.00  0.00    -0.336 N 
ATOM     25  C   UNL     1      20.441   6.997  21.064  0.00  0.00    +0.129 C 
ATOM     26  C   UNL     1      19.720   9.321  21.638  0.00  0.00    +0.129 C 
ENDBRANCH  21   7
ENDBRANCH  13  15
ENDBRANCH   4  13
ENDBRANCH  14   9
TORSDOF 9
ENDMDL
MODEL 7
REMARK VINA RESULT:      -6.2      3.605      9.645
REMARK  Name = 45783549
REMARK  12 active torsions:
REMARK  status: ('A' for Active; 'I' for Inactive)
REMARK    1  A    between atoms: O_2  and  C_28
REMARK    2  A    between atoms: O_2  and  C_29
REMARK    3  A    between atoms: O_3  and  C_30
REMARK    4  A    between atoms: O_3  and  C_31
REMARK    5  A    between atoms: N_4  and  C_13
REMARK    6  A    between atoms: N_7  and  C_21
REMARK    7  A    between atoms: N_7  and  C_25
REMARK    8  A    between atoms: N_7  and  C_26
REMARK    9  A    between atoms: C_9  and  C_14
REMARK   10  A    between atoms: C_13  and  C_15
REMARK   11  A    between atoms: C_18  and  C_22
REMARK   12  A    between atoms: C_29  and  C_30
REMARK                            x       y       z     vdW  Elec       q    Type
REMARK                         _______ _______ _______ _____ _____    ______ ____
ROOT
ATOM      1  O   UNL     1      11.803   8.805  20.243  0.00  0.00    -0.336 OA
ATOM      5  N   UNL     1      12.930  10.655  20.815  0.00  0.00    -0.190 NA
ATOM      6  N   UNL     1      10.989   9.492  21.152  0.00  0.00    -0.056 NA
ATOM     14  C   UNL     1      12.926   9.557  20.101  0.00  0.00    +0.245 A 
ATOM     18  C   UNL     1      11.721  10.571  21.443  0.00  0.00    +0.204 A 
ENDROOT
BRANCH  18  22
ATOM      8  N   UNL     1      10.488  12.171  24.565  0.00  0.00    -0.221 NA
ATOM     22  C   UNL     1      11.276  11.583  22.356  0.00  0.00    +0.041 A 
ATOM     23  C   UNL     1      11.191  12.915  21.964  0.00  0.00    +0.018 A 
ATOM     24  C   UNL     1      10.916  11.266  23.656  0.00  0.00    +0.126 A 
ATOM     27  C   UNL     1      10.756  13.875  22.871  0.00  0.00    +0.068 A 
ATOM     28  C   UNL     1      10.419  13.455  24.147  0.00  0.00    +0.215 A 
BRANCH  28   2
ATOM      2  O   UNL     1       9.987  14.381  25.059  0.00  0.00    -0.474 OA
BRANCH   2  29
ATOM     29  C   UNL     1      10.517  14.279  26.376  0.00  0.00    +0.258 C 
BRANCH  29  30
ATOM     30  C   UNL     1      11.337  15.519  26.677  0.00  0.00    +0.200 C 
BRANCH  30   3
ATOM      3  O   UNL     1      12.589  15.126  27.226  0.00  0.00    -0.380 OA
ATOM     31  C   UNL     1      13.348  14.360  26.300  0.00  0.00    +0.194 C 
ENDBRANCH  30   3
ENDBRANCH  29  30
ENDBRANCH   2  29
ENDBRANCH  28   2
ENDBRANCH  18  22
BRANCH  14   9
ATOM      4  N   UNL     1      13.633   7.695  18.609  0.00  0.00    -0.287 NA
ATOM      9  C   UNL     1      13.981   9.022  19.155  0.00  0.00    +0.146 C 
ATOM     10  C   UNL     1      14.176   9.915  17.917  0.00  0.00    +0.030 C 
ATOM     11  C   UNL     1      13.978   8.992  16.723  0.00  0.00    +0.017 C 
ATOM     12  C   UNL     1      14.260   7.614  17.290  0.00  0.00    +0.085 C 
BRANCH   4  13
ATOM     13  C   UNL     1      14.034   6.594  19.476  0.00  0.00    +0.120 C 
BRANCH  13  15
ATOM     15  C   UNL     1      15.488   6.682  19.858  0.00  0.00    -0.033 A 
ATOM     16  C   UNL     1      15.868   7.394  20.996  0.00  0.00    +0.007 A 
ATOM     17  C   UNL     1      16.453   6.051  19.075  0.00  0.00    +0.007 A 
ATOM     19  C   UNL     1      17.214   7.475  21.350  0.00  0.00    +0.023 A 
ATOM     20  C   UNL     1      17.801   6.131  19.429  0.00  0.00    +0.023 A 
ATOM     21  C   UNL     1      18.181   6.843  20.566  0.00  0.00    +0.029 A 
BRANCH  21   7
ATOM      7  N   UNL     1      19.542   6.924  20.924  0.00  0.00    -0.336 N 
ATOM     25  C   UNL     1      20.070   8.126  21.539  0.00  0.00    +0.129 C 
ATOM     26  C   UNL     1      20.431   5.804  20.689  0.00  0.00    +0.129 C 
ENDBRANCH  21   7
ENDBRANCH  13  15
ENDBRANCH   4  13
ENDBRANCH  14   9
TORSDOF 9
ENDMDL
MODEL 8
REMARK VINA RESULT:      -6.1      3.384     11.237
REMARK  Name = 45783549
REMARK  12 active torsions:
REMARK  status: ('A' for Active; 'I' for Inactive)
REMARK    1  A    between atoms: O_2  and  C_28
REMARK    2  A    between atoms: O_2  and  C_29
REMARK    3  A    between atoms: O_3  and  C_30
REMARK    4  A    between atoms: O_3  and  C_31
REMARK    5  A    between atoms: N_4  and  C_13
REMARK    6  A    between atoms: N_7  and  C_21
REMARK    7  A    between atoms: N_7  and  C_25
REMARK    8  A    between atoms: N_7  and  C_26
REMARK    9  A    between atoms: C_9  and  C_14
REMARK   10  A    between atoms: C_13  and  C_15
REMARK   11  A    between atoms: C_18  and  C_22
REMARK   12  A    between atoms: C_29  and  C_30
REMARK                            x       y       z     vdW  Elec       q    Type
REMARK                         _______ _______ _______ _____ _____    ______ ____
ROOT
ATOM      1  O   UNL     1      21.734   4.861  20.647  0.00  0.00    -0.336 OA
ATOM      5  N   UNL     1      20.652   6.763  21.124  0.00  0.00    -0.190 NA
ATOM      6  N   UNL     1      20.407   4.665  20.247  0.00  0.00    -0.056 NA
ATOM     14  C   UNL     1      21.793   6.121  21.152  0.00  0.00    +0.245 A 
ATOM     18  C   UNL     1      19.832   5.829  20.560  0.00  0.00    +0.204 A 
ENDROOT
BRANCH  18  22
ATOM      8  N   UNL     1      16.514   5.881  18.882  0.00  0.00    -0.221 NA
ATOM     22  C   UNL     1      18.442   6.092  20.326  0.00  0.00    +0.041 A 
ATOM     23  C   UNL     1      17.676   6.786  21.258  0.00  0.00    +0.018 A 
ATOM     24  C   UNL     1      17.819   5.665  19.164  0.00  0.00    +0.126 A 
ATOM     27  C   UNL     1      16.331   7.027  21.003  0.00  0.00    +0.068 A 
ATOM     28  C   UNL     1      15.803   6.558  19.811  0.00  0.00    +0.215 A 
BRANCH  28   2
ATOM      2  O   UNL     1      14.479   6.782  19.537  0.00  0.00    -0.474 OA
BRANCH   2  29
ATOM     29  C   UNL     1      13.599   6.859  20.653  0.00  0.00    +0.258 C 
BRANCH  29  30
ATOM     30  C   UNL     1      12.213   7.234  20.164  0.00  0.00    +0.200 C 
BRANCH  30   3
ATOM      3  O   UNL     1      11.249   6.442  20.847  0.00  0.00    -0.380 OA
ATOM     31  C   UNL     1      10.567   7.193  21.842  0.00  0.00    +0.194 C 
ENDBRANCH  30   3
ENDBRANCH  29  30
ENDBRANCH   2  29
ENDBRANCH  28   2
ENDBRANCH  18  22
BRANCH  14   9
ATOM      4  N   UNL     1      23.792   5.585  22.534  0.00  0.00    -0.287 NA
ATOM      9  C   UNL     1      23.143   6.583  21.659  0.00  0.00    +0.146 C 
ATOM     10  C   UNL     1      24.154   6.824  20.524  0.00  0.00    +0.030 C 
ATOM     11  C   UNL     1      25.362   5.967  20.877  0.00  0.00    +0.017 C 
ATOM     12  C   UNL     1      25.234   5.772  22.375  0.00  0.00    +0.085 C 
BRANCH   4  13
ATOM     13  C   UNL     1      23.376   5.685  23.927  0.00  0.00    +0.120 C 
BRANCH  13  15
ATOM     15  C   UNL     1      23.138   4.330  24.540  0.00  0.00    -0.033 A 
ATOM     16  C   UNL     1      22.742   3.261  23.736  0.00  0.00    +0.007 A 
ATOM     17  C   UNL     1      23.314   4.145  25.910  0.00  0.00    +0.007 A 
ATOM     19  C   UNL     1      22.521   2.007  24.303  0.00  0.00    +0.023 A 
ATOM     20  C   UNL     1      23.094   2.890  26.478  0.00  0.00    +0.023 A 
ATOM     21  C   UNL     1      22.698   1.821  25.675  0.00  0.00    +0.029 A 
BRANCH  21   7
ATOM      7  N   UNL     1      22.476   0.552  26.249  0.00  0.00    -0.336 N 
ATOM     25  C   UNL     1      22.622   0.355  27.677  0.00  0.00    +0.129 C 
ATOM     26  C   UNL     1      22.091  -0.571  25.417  0.00  0.00    +0.129 C 
ENDBRANCH  21   7
ENDBRANCH  13  15
ENDBRANCH   4  13
ENDBRANCH  14   9
TORSDOF 9
ENDMDL
MODEL 9
REMARK VINA RESULT:      -6.1     26.721     30.202
REMARK  Name = 45783549
REMARK  12 active torsions:
REMARK  status: ('A' for Active; 'I' for Inactive)
REMARK    1  A    between atoms: O_2  and  C_28
REMARK    2  A    between atoms: O_2  and  C_29
REMARK    3  A    between atoms: O_3  and  C_30
REMARK    4  A    between atoms: O_3  and  C_31
REMARK    5  A    between atoms: N_4  and  C_13
REMARK    6  A    between atoms: N_7  and  C_21
REMARK    7  A    between atoms: N_7  and  C_25
REMARK    8  A    between atoms: N_7  and  C_26
REMARK    9  A    between atoms: C_9  and  C_14
REMARK   10  A    between atoms: C_13  and  C_15
REMARK   11  A    between atoms: C_18  and  C_22
REMARK   12  A    between atoms: C_29  and  C_30
REMARK                            x       y       z     vdW  Elec       q    Type
REMARK                         _______ _______ _______ _____ _____    ______ ____
ROOT
ATOM      1  O   UNL     1      -3.991 -11.634  17.815  0.00  0.00    -0.336 OA
ATOM      5  N   UNL     1      -5.155 -10.520  16.259  0.00  0.00    -0.190 NA
ATOM      6  N   UNL     1      -5.242 -11.365  18.383  0.00  0.00    -0.056 NA
ATOM     14  C   UNL     1      -4.023 -11.103  16.565  0.00  0.00    +0.245 A 
ATOM     18  C   UNL     1      -5.872 -10.706  17.405  0.00  0.00    +0.204 A 
ENDROOT
BRANCH  18  22
ATOM      8  N   UNL     1      -8.930  -8.666  16.843  0.00  0.00    -0.221 NA
ATOM     22  C   UNL     1      -7.214 -10.220  17.541  0.00  0.00    +0.041 A 
ATOM     23  C   UNL     1      -8.091 -10.787  18.460  0.00  0.00    +0.018 A 
ATOM     24  C   UNL     1      -7.678  -9.172  16.764  0.00  0.00    +0.126 A 
ATOM     27  C   UNL     1      -9.387 -10.295  18.571  0.00  0.00    +0.068 A 
ATOM     28  C   UNL     1      -9.753  -9.243  17.748  0.00  0.00    +0.215 A 
BRANCH  28   2
ATOM      2  O   UNL     1     -11.024  -8.740  17.838  0.00  0.00    -0.474 OA
BRANCH   2  29
ATOM     29  C   UNL     1     -11.929  -9.097  16.798  0.00  0.00    +0.258 C 
BRANCH  29  30
ATOM     30  C   UNL     1     -12.444  -7.833  16.136  0.00  0.00    +0.200 C 
BRANCH  30   3
ATOM      3  O   UNL     1     -11.721  -6.717  16.640  0.00  0.00    -0.380 OA
ATOM     31  C   UNL     1     -11.185  -5.924  15.590  0.00  0.00    +0.194 C 
ENDBRANCH  30   3
ENDBRANCH  29  30
ENDBRANCH   2  29
ENDBRANCH  28   2
ENDBRANCH  18  22
BRANCH  14   9
ATOM      4  N   UNL     1      -2.928 -10.739  14.360  0.00  0.00    -0.287 NA
ATOM      9  C   UNL     1      -2.769 -11.263  15.731  0.00  0.00    +0.146 C 
ATOM     10  C   UNL     1      -1.569 -10.491  16.308  0.00  0.00    +0.030 C 
ATOM     11  C   UNL     1      -1.082  -9.603  15.172  0.00  0.00    +0.017 C 
ATOM     12  C   UNL     1      -1.601 -10.299  13.929  0.00  0.00    +0.085 C 
BRANCH   4  13
ATOM     13  C   UNL     1      -3.511 -11.706  13.439  0.00  0.00    +0.120 C 
BRANCH  13  15
ATOM     15  C   UNL     1      -4.130 -11.037  12.240  0.00  0.00    -0.033 A 
ATOM     16  C   UNL     1      -5.168 -10.121  12.412  0.00  0.00    +0.007 A 
ATOM     17  C   UNL     1      -3.664 -11.332  10.960  0.00  0.00    +0.007 A 
ATOM     19  C   UNL     1      -5.741  -9.501  11.302  0.00  0.00    +0.023 A 
ATOM     20  C   UNL     1      -4.237 -10.712   9.849  0.00  0.00    +0.023 A 
ATOM     21  C   UNL     1      -5.275  -9.796  10.020  0.00  0.00    +0.029 A 
BRANCH  21   7
ATOM      7  N   UNL     1      -5.854  -9.169   8.898  0.00  0.00    -0.336 N 
ATOM     25  C   UNL     1      -6.755  -8.047   9.067  0.00  0.00    +0.129 C 
ATOM     26  C   UNL     1      -5.549  -9.633   7.559  0.00  0.00    +0.129 C 
ENDBRANCH  21   7
ENDBRANCH  13  15
ENDBRANCH   4  13
ENDBRANCH  14   9
TORSDOF 9
ENDMDL
MODEL 10
REMARK VINA RESULT:      -6.1      3.167     12.141
REMARK  Name = 45783549
REMARK  12 active torsions:
REMARK  status: ('A' for Active; 'I' for Inactive)
REMARK    1  A    between atoms: O_2  and  C_28
REMARK    2  A    between atoms: O_2  and  C_29
REMARK    3  A    between atoms: O_3  and  C_30
REMARK    4  A    between atoms: O_3  and  C_31
REMARK    5  A    between atoms: N_4  and  C_13
REMARK    6  A    between atoms: N_7  and  C_21
REMARK    7  A    between atoms: N_7  and  C_25
REMARK    8  A    between atoms: N_7  and  C_26
REMARK    9  A    between atoms: C_9  and  C_14
REMARK   10  A    between atoms: C_13  and  C_15
REMARK   11  A    between atoms: C_18  and  C_22
REMARK   12  A    between atoms: C_29  and  C_30
REMARK                            x       y       z     vdW  Elec       q    Type
REMARK                         _______ _______ _______ _____ _____    ______ ____
ROOT
ATOM      1  O   UNL     1      20.893   5.938  23.071  0.00  0.00    -0.336 OA
ATOM      5  N   UNL     1      20.587   5.582  20.881  0.00  0.00    -0.190 NA
ATOM      6  N   UNL     1      19.596   6.379  22.782  0.00  0.00    -0.056 NA
ATOM     14  C   UNL     1      21.406   5.484  21.898  0.00  0.00    +0.245 A 
ATOM     18  C   UNL     1      19.489   6.136  21.472  0.00  0.00    +0.204 A 
ENDROOT
BRANCH  18  22
ATOM      8  N   UNL     1      16.797   5.867  18.922  0.00  0.00    -0.221 NA
ATOM     22  C   UNL     1      18.303   6.437  20.726  0.00  0.00    +0.041 A 
ATOM     23  C   UNL     1      17.517   7.541  21.042  0.00  0.00    +0.018 A 
ATOM     24  C   UNL     1      17.903   5.640  19.666  0.00  0.00    +0.126 A 
ATOM     27  C   UNL     1      16.372   7.808  20.300  0.00  0.00    +0.068 A 
ATOM     28  C   UNL     1      16.059   6.949  19.260  0.00  0.00    +0.215 A 
BRANCH  28   2
ATOM      2  O   UNL     1      14.936   7.191  18.514  0.00  0.00    -0.474 OA
BRANCH   2  29
ATOM     29  C   UNL     1      13.847   7.820  19.182  0.00  0.00    +0.258 C 
BRANCH  29  30
ATOM     30  C   UNL     1      12.553   7.160  18.746  0.00  0.00    +0.200 C 
BRANCH  30   3
ATOM      3  O   UNL     1      11.615   7.228  19.813  0.00  0.00    -0.380 OA
ATOM     31  C   UNL     1      11.118   8.548  19.988  0.00  0.00    +0.194 C 
ENDBRANCH  30   3
ENDBRANCH  29  30
ENDBRANCH   2  29
ENDBRANCH  28   2
ENDBRANCH  18  22
BRANCH  14   9
ATOM      4  N   UNL     1      23.151   4.119  20.764  0.00  0.00    -0.287 NA
ATOM      9  C   UNL     1      22.820   4.944  21.944  0.00  0.00    +0.146 C 
ATOM     10  C   UNL     1      23.882   6.059  21.951  0.00  0.00    +0.030 C 
ATOM     11  C   UNL     1      24.800   5.743  20.779  0.00  0.00    +0.017 C 
ATOM     12  C   UNL     1      24.592   4.258  20.554  0.00  0.00    +0.085 C 
BRANCH   4  13
ATOM     13  C   UNL     1      22.750   2.726  20.907  0.00  0.00    +0.120 C 
BRANCH  13  15
ATOM     15  C   UNL     1      23.677   1.965  21.817  0.00  0.00    -0.033 A 
ATOM     16  C   UNL     1      24.676   1.155  21.275  0.00  0.00    +0.007 A 
ATOM     17  C   UNL     1      23.539   2.071  23.200  0.00  0.00    +0.007 A 
ATOM     19  C   UNL     1      25.535   0.451  22.118  0.00  0.00    +0.023 A 
ATOM     20  C   UNL     1      24.399   1.367  24.043  0.00  0.00    +0.023 A 
ATOM     21  C   UNL     1      25.397   0.557  23.502  0.00  0.00    +0.029 A 
BRANCH  21   7
ATOM      7  N   UNL     1      26.267  -0.154  24.354  0.00  0.00    -0.336 N 
ATOM     25  C   UNL     1      25.853  -1.412  24.943  0.00  0.00    +0.129 C 
ATOM     26  C   UNL     1      27.590   0.360  24.647  0.00  0.00    +0.129 C 
ENDBRANCH  21   7
ENDBRANCH  13  15
ENDBRANCH   4  13
ENDBRANCH  14   9
TORSDOF 9
ENDMDL
