REMARK  Name = 7673876
REMARK  5 active torsions:
REMARK  status: ('A' for Active; 'I' for Inactive)
REMARK    1  A    between atoms: S_1  and  N_6
REMARK    2  A    between atoms: S_1  and  C_21
REMARK    3  A    between atoms: N_8  and  C_19
REMARK    4  A    between atoms: C_26  and  C_28
REMARK    5  A    between atoms: C_33  and  C_34
REMARK                            x       y       z     vdW  Elec       q    Type
REMARK                         _______ _______ _______ _____ _____    ______ ____
ROOT
ATOM      4  O   UNL     1      -1.315  -1.767   1.566  0.00  0.00    -0.266 OA
ATOM      6  N   UNL     1       3.218  -0.051   0.413  0.00  0.00    -0.176 NA
ATOM      7  N   UNL     1       0.521  -1.674   0.124  0.00  0.00    -0.310 N 
ATOM     10  C   UNL     1       2.853  -2.491   0.793  0.00  0.00    +0.025 C 
ATOM     11  C   UNL     1       2.490  -1.539  -1.442  0.00  0.00    +0.052 C 
ATOM     12  C   UNL     1       3.033  -2.755  -0.696  0.00  0.00    +0.017 C 
ATOM     13  C   UNL     1       3.632  -1.236   1.218  0.00  0.00    +0.114 C 
ATOM     14  C   UNL     1       3.308  -0.292  -1.058  0.00  0.00    +0.119 C 
ATOM     15  C   UNL     1       1.355  -2.384   1.102  0.00  0.00    +0.130 C 
ATOM     16  C   UNL     1       1.020  -1.322  -1.134  0.00  0.00    +0.026 A 
ATOM     17  C   UNL     1       0.208  -0.776  -2.055  0.00  0.00    +0.024 A 
ATOM     18  C   UNL     1      -0.827  -1.459   0.478  0.00  0.00    +0.273 A 
ATOM     19  C   UNL     1      -1.693  -0.828  -0.568  0.00  0.00    +0.099 A 
ATOM     20  C   UNL     1      -1.175  -0.524  -1.763  0.00  0.00    +0.030 A 
ENDROOT
BRANCH  19   8
ATOM      5  O   UNL     1      -3.336   1.234  -1.661  0.00  0.00    -0.270 OA
ATOM      8  N   UNL     1      -3.000  -0.592  -0.260  0.00  0.00    -0.277 N 
ATOM     26  C   UNL     1      -3.748   0.431  -0.828  0.00  0.00    +0.248 C 
ATOM     35  H   UNL     1      -3.359  -1.121   0.527  0.00  0.00    +0.155 HD
BRANCH  26  28
ATOM     28  C   UNL     1      -5.163   0.517  -0.384  0.00  0.00    +0.037 A 
ATOM     29  C   UNL     1      -6.096   1.071  -1.236  0.00  0.00    +0.014 A 
ATOM     30  C   UNL     1      -5.499   0.041   0.866  0.00  0.00    +0.014 A 
ATOM     31  C   UNL     1      -7.424   1.153  -0.820  0.00  0.00    +0.019 A 
ATOM     32  C   UNL     1      -6.828   0.123   1.283  0.00  0.00    +0.019 A 
ATOM     33  C   UNL     1      -7.790   0.679   0.440  0.00  0.00    +0.052 A 
BRANCH  33  34
ATOM      9  N   UNL     1     -10.258   0.832   1.215  0.00  0.00    -0.191 NA
ATOM     34  C   UNL     1      -9.152   0.763   0.868  0.00  0.00    +0.099 C 
ENDBRANCH  33  34
ENDBRANCH  26  28
ENDBRANCH  19   8
BRANCH   6   1
ATOM      1  S   UNL     1       3.820   1.457   0.954  0.00  0.00    +0.061 S 
ATOM      2  O   UNL     1       3.819   1.476   2.401  0.00  0.00    -0.153 OA
ATOM      3  O   UNL     1       3.188   2.516   0.195  0.00  0.00    -0.153 OA
BRANCH   1  21
ATOM     21  C   UNL     1       5.497   1.331   0.417  0.00  0.00    +0.105 A 
ATOM     22  C   UNL     1       5.840   1.782  -0.847  0.00  0.00    +0.028 A 
ATOM     23  C   UNL     1       6.442   0.783   1.269  0.00  0.00    +0.028 A 
ATOM     24  C   UNL     1       7.165   1.682  -1.271  0.00  0.00    +0.002 A 
ATOM     25  C   UNL     1       7.767   0.683   0.845  0.00  0.00    +0.002 A 
ATOM     27  C   UNL     1       8.129   1.133  -0.425  0.00  0.00    +0.000 A 
ENDBRANCH   1  21
ENDBRANCH   6   1
TORSDOF 5
