REMARK  Name = 40586261
REMARK  4 active torsions:
REMARK  status: ('A' for Active; 'I' for Inactive)
REMARK    1  A    between atoms: O_3  and  C_29
REMARK    2  A    between atoms: O_3  and  C_30
REMARK    3  A    between atoms: C_13  and  C_14
REMARK    4  A    between atoms: C_22  and  C_24
REMARK                            x       y       z     vdW  Elec       q    Type
REMARK                         _______ _______ _______ _____ _____    ______ ____
ROOT
ATOM      1  O   UNL     1      -3.255  -0.949   2.181  0.00  0.00    -0.275 OA
ATOM      2  O   UNL     1       1.319   1.764   1.600  0.00  0.00    -0.267 OA
ATOM      4  N   UNL     1      -3.415   0.567   0.427  0.00  0.00    -0.300 N 
ATOM      5  N   UNL     1      -0.532   1.920   0.189  0.00  0.00    -0.311 N 
ATOM      6  C   UNL     1      -2.763   2.921   0.949  0.00  0.00    +0.027 C 
ATOM      7  C   UNL     1      -2.524   2.069  -1.345  0.00  0.00    +0.054 C 
ATOM      8  C   UNL     1      -2.941   3.284  -0.520  0.00  0.00    +0.018 C 
ATOM      9  C   UNL     1      -3.638   1.710   1.315  0.00  0.00    +0.113 C 
ATOM     10  C   UNL     1      -3.442   0.877  -1.010  0.00  0.00    +0.117 C 
ATOM     11  C   UNL     1      -1.276   2.659   1.218  0.00  0.00    +0.130 C 
ATOM     12  C   UNL     1      -1.079   1.695  -1.077  0.00  0.00    +0.027 A 
ATOM     14  C   UNL     1      -3.276  -0.710   0.971  0.00  0.00    +0.219 C 
ATOM     17  C   UNL     1      -0.336   1.125  -2.039  0.00  0.00    +0.022 A 
ATOM     20  C   UNL     1       0.790   1.552   0.507  0.00  0.00    +0.259 A 
ATOM     22  C   UNL     1       1.585   0.882  -0.581  0.00  0.00    +0.047 A 
ATOM     23  C   UNL     1       1.013   0.709  -1.782  0.00  0.00    +0.015 A 
ENDROOT
BRANCH  14  13
ATOM     13  C   UNL     1      -3.139  -1.841  -0.001  0.00  0.00    +0.075 C 
ATOM     15  C   UNL     1      -1.664  -2.053  -0.348  0.00  0.00    +0.013 C 
ATOM     16  C   UNL     1      -3.759  -3.103   0.602  0.00  0.00    +0.013 C 
ATOM     18  C   UNL     1      -1.471  -3.264  -1.257  0.00  0.00    +0.001 C 
ATOM     19  C   UNL     1      -3.561  -4.314  -0.305  0.00  0.00    +0.001 C 
ATOM     21  C   UNL     1      -2.090  -4.522  -0.654  0.00  0.00    +0.000 C 
ENDBRANCH  14  13
BRANCH  22  24
ATOM     24  C   UNL     1       2.962   0.413  -0.343  0.00  0.00    -0.012 A 
ATOM     25  C   UNL     1       4.013   0.919  -1.109  0.00  0.00    +0.012 A 
ATOM     26  C   UNL     1       3.214  -0.536   0.647  0.00  0.00    +0.012 A 
ATOM     27  C   UNL     1       5.316   0.474  -0.884  0.00  0.00    +0.046 A 
ATOM     28  C   UNL     1       4.517  -0.981   0.871  0.00  0.00    +0.046 A 
ATOM     29  C   UNL     1       5.568  -0.475   0.105  0.00  0.00    +0.120 A 
BRANCH  29   3
ATOM      3  O   UNL     1       6.839  -0.910   0.324  0.00  0.00    -0.495 OA
ATOM     30  C   UNL     1       7.026  -1.882   1.351  0.00  0.00    +0.277 C 
ENDBRANCH  29   3
ENDBRANCH  22  24
TORSDOF 3
