MODEL 1
REMARK VINA RESULT:      -6.4      0.000      0.000
REMARK  Name = 45361015
REMARK  8 active torsions:
REMARK  status: ('A' for Active; 'I' for Inactive)
REMARK    1  A    between atoms: N_5  and  C_18
REMARK    2  A    between atoms: N_6  and  C_16
REMARK    3  A    between atoms: N_8  and  C_25
REMARK    4  A    between atoms: C_13  and  C_17
REMARK    5  A    between atoms: C_16  and  C_20
REMARK    6  A    between atoms: C_17  and  C_19
REMARK    7  A    between atoms: C_19  and  C_21
REMARK    8  A    between atoms: C_25  and  C_26
REMARK                            x       y       z     vdW  Elec       q    Type
REMARK                         _______ _______ _______ _____ _____    ______ ____
ROOT
ATOM      3  O   UNL     1     -13.082   4.934  22.753  0.00  0.00    -0.274 OA
ATOM      5  N   UNL     1     -16.852   4.351  22.087  0.00  0.00    -0.296 NA
ATOM      6  N   UNL     1     -14.309   6.871  21.325  0.00  0.00    -0.285 NA
ATOM      7  N   UNL     1     -14.852   4.565  24.155  0.00  0.00    -0.312 N 
ATOM      9  C   UNL     1     -16.404   5.721  21.752  0.00  0.00    +0.084 C 
ATOM     10  C   UNL     1     -15.097   6.255  22.410  0.00  0.00    +0.161 C 
ATOM     11  C   UNL     1     -16.121   5.938  20.255  0.00  0.00    +0.036 C 
ATOM     12  C   UNL     1     -15.235   7.165  20.237  0.00  0.00    +0.087 C 
ATOM     13  C   UNL     1     -17.210   4.152  23.519  0.00  0.00    +0.074 C 
ATOM     14  C   UNL     1     -14.236   5.194  23.089  0.00  0.00    +0.232 C 
ATOM     15  C   UNL     1     -16.235   4.792  24.527  0.00  0.00    +0.123 C 
ATOM     18  C   UNL     1     -17.968   3.938  21.220  0.00  0.00    +0.105 C 
ATOM     30  H   UNL     1     -14.324   3.865  24.667  0.00  0.00    +0.149 HD
ENDROOT
BRANCH   6  16
ATOM     16  C   UNL     1     -13.567   8.051  21.748  0.00  0.00    +0.127 C 
BRANCH  16  20
ATOM      1  S   UNL     1     -12.636  10.074  20.083  0.00  0.00    -0.100 S 
ATOM     20  C   UNL     1     -12.563   8.483  20.712  0.00  0.00    +0.004 A 
ATOM     22  C   UNL     1     -11.534   7.754  20.158  0.00  0.00    +0.012 A 
ATOM     23  C   UNL     1     -10.796   8.512  19.203  0.00  0.00    +0.008 A 
ATOM     24  C   UNL     1     -11.288   9.791  19.066  0.00  0.00    +0.045 A 
ENDBRANCH  16  20
ENDBRANCH   6  16
BRANCH  13  17
ATOM     17  C   UNL     1     -17.297   2.646  23.849  0.00  0.00    +0.029 C 
BRANCH  17  19
ATOM     19  C   UNL     1     -17.781   2.436  25.272  0.00  0.00    +0.097 C 
BRANCH  19  21
ATOM      4  O   UNL     1     -16.316   0.521  25.483  0.00  0.00    -0.276 OA
ATOM      8  N   UNL     1     -16.847   1.751  27.379  0.00  0.00    -0.311 N 
ATOM     21  C   UNL     1     -16.900   1.456  26.024  0.00  0.00    +0.213 C 
ATOM     31  H   UNL     1     -17.365   2.552  27.729  0.00  0.00    +0.149 HD
BRANCH   8  25
ATOM     25  C   UNL     1     -16.076   0.963  28.310  0.00  0.00    +0.146 C 
BRANCH  25  26
ATOM      2  S   UNL     1     -13.991   1.141  30.141  0.00  0.00    -0.100 S 
ATOM     26  C   UNL     1     -15.286   1.827  29.258  0.00  0.00    +0.007 A 
ATOM     27  C   UNL     1     -15.456   3.164  29.542  0.00  0.00    +0.013 A 
ATOM     28  C   UNL     1     -14.508   3.631  30.498  0.00  0.00    +0.008 A 
ATOM     29  C   UNL     1     -13.652   2.634  30.908  0.00  0.00    +0.045 A 
ENDBRANCH  25  26
ENDBRANCH   8  25
ENDBRANCH  19  21
ENDBRANCH  17  19
ENDBRANCH  13  17
TORSDOF 7
ENDMDL
MODEL 2
REMARK VINA RESULT:      -6.4     19.779     20.619
REMARK  Name = 45361015
REMARK  8 active torsions:
REMARK  status: ('A' for Active; 'I' for Inactive)
REMARK    1  A    between atoms: N_5  and  C_18
REMARK    2  A    between atoms: N_6  and  C_16
REMARK    3  A    between atoms: N_8  and  C_25
REMARK    4  A    between atoms: C_13  and  C_17
REMARK    5  A    between atoms: C_16  and  C_20
REMARK    6  A    between atoms: C_17  and  C_19
REMARK    7  A    between atoms: C_19  and  C_21
REMARK    8  A    between atoms: C_25  and  C_26
REMARK                            x       y       z     vdW  Elec       q    Type
REMARK                         _______ _______ _______ _____ _____    ______ ____
ROOT
ATOM      3  O   UNL     1      -5.906  -9.554  13.357  0.00  0.00    -0.274 OA
ATOM      5  N   UNL     1      -3.045 -10.852  15.620  0.00  0.00    -0.296 NA
ATOM      6  N   UNL     1      -3.772 -10.564  12.045  0.00  0.00    -0.285 NA
ATOM      7  N   UNL     1      -5.860 -11.104  15.040  0.00  0.00    -0.312 N 
ATOM      9  C   UNL     1      -2.894 -11.248  14.203  0.00  0.00    +0.084 C 
ATOM     10  C   UNL     1      -4.159 -11.248  13.294  0.00  0.00    +0.161 C 
ATOM     11  C   UNL     1      -1.926 -10.356  13.404  0.00  0.00    +0.036 C 
ATOM     12  C   UNL     1      -2.317 -10.611  11.964  0.00  0.00    +0.087 C 
ATOM     13  C   UNL     1      -3.913 -11.759  16.424  0.00  0.00    +0.074 C 
ATOM     14  C   UNL     1      -5.374 -10.532  13.879  0.00  0.00    +0.232 C 
ATOM     15  C   UNL     1      -5.210 -12.206  15.722  0.00  0.00    +0.123 C 
ATOM     18  C   UNL     1      -1.730 -10.702  16.265  0.00  0.00    +0.105 C 
ATOM     30  H   UNL     1      -6.683 -10.691  15.468  0.00  0.00    +0.149 HD
ENDROOT
BRANCH   6  16
ATOM     16  C   UNL     1      -4.407 -11.126  10.859  0.00  0.00    +0.127 C 
BRANCH  16  20
ATOM      1  S   UNL     1      -6.410 -10.594   9.006  0.00  0.00    -0.100 S 
ATOM     20  C   UNL     1      -5.197 -10.090  10.103  0.00  0.00    +0.004 A 
ATOM     22  C   UNL     1      -5.088  -8.718  10.161  0.00  0.00    +0.012 A 
ATOM     23  C   UNL     1      -6.014  -8.072   9.292  0.00  0.00    +0.008 A 
ATOM     24  C   UNL     1      -6.795  -8.974   8.604  0.00  0.00    +0.045 A 
ENDBRANCH  16  20
ENDBRANCH   6  16
BRANCH  13  17
ATOM     17  C   UNL     1      -4.313 -11.084  17.753  0.00  0.00    +0.029 C 
BRANCH  17  19
ATOM     19  C   UNL     1      -4.814 -12.114  18.748  0.00  0.00    +0.097 C 
BRANCH  19  21
ATOM      4  O   UNL     1      -6.107 -11.123  20.539  0.00  0.00    -0.276 OA
ATOM      8  N   UNL     1      -7.209 -11.920  18.658  0.00  0.00    -0.311 N 
ATOM     21  C   UNL     1      -6.089 -11.657  19.433  0.00  0.00    +0.213 C 
ATOM     31  H   UNL     1      -7.087 -12.364  17.751  0.00  0.00    +0.149 HD
BRANCH   8  25
ATOM     25  C   UNL     1      -8.544 -11.582  19.091  0.00  0.00    +0.146 C 
BRANCH  25  26
ATOM      2  S   UNL     1     -10.694  -9.880  18.633  0.00  0.00    -0.100 S 
ATOM     26  C   UNL     1      -9.070 -10.361  18.383  0.00  0.00    +0.007 A 
ATOM     27  C   UNL     1      -8.409  -9.522  17.514  0.00  0.00    +0.013 A 
ATOM     28  C   UNL     1      -9.248  -8.469  17.047  0.00  0.00    +0.008 A 
ATOM     29  C   UNL     1     -10.517  -8.544  17.576  0.00  0.00    +0.045 A 
ENDBRANCH  25  26
ENDBRANCH   8  25
ENDBRANCH  19  21
ENDBRANCH  17  19
ENDBRANCH  13  17
TORSDOF 7
ENDMDL
MODEL 3
REMARK VINA RESULT:      -6.2     29.142     33.003
REMARK  Name = 45361015
REMARK  8 active torsions:
REMARK  status: ('A' for Active; 'I' for Inactive)
REMARK    1  A    between atoms: N_5  and  C_18
REMARK    2  A    between atoms: N_6  and  C_16
REMARK    3  A    between atoms: N_8  and  C_25
REMARK    4  A    between atoms: C_13  and  C_17
REMARK    5  A    between atoms: C_16  and  C_20
REMARK    6  A    between atoms: C_17  and  C_19
REMARK    7  A    between atoms: C_19  and  C_21
REMARK    8  A    between atoms: C_25  and  C_26
REMARK                            x       y       z     vdW  Elec       q    Type
REMARK                         _______ _______ _______ _____ _____    ______ ____
ROOT
ATOM      3  O   UNL     1      15.230  10.824  19.263  0.00  0.00    -0.274 OA
ATOM      5  N   UNL     1      16.448   7.157  19.519  0.00  0.00    -0.296 NA
ATOM      6  N   UNL     1      13.415   8.957  18.542  0.00  0.00    -0.285 NA
ATOM      7  N   UNL     1      16.091   9.608  20.999  0.00  0.00    -0.312 N 
ATOM      9  C   UNL     1      14.988   7.274  19.309  0.00  0.00    +0.084 C 
ATOM     10  C   UNL     1      14.291   8.617  19.680  0.00  0.00    +0.161 C 
ATOM     11  C   UNL     1      14.550   7.080  17.846  0.00  0.00    +0.036 C 
ATOM     12  C   UNL     1      13.181   7.725  17.798  0.00  0.00    +0.087 C 
ATOM     13  C   UNL     1      16.875   7.259  20.943  0.00  0.00    +0.074 C 
ATOM     14  C   UNL     1      15.237   9.789  19.927  0.00  0.00    +0.232 C 
ATOM     15  C   UNL     1      16.179   8.371  21.751  0.00  0.00    +0.123 C 
ATOM     18  C   UNL     1      16.965   5.916  18.919  0.00  0.00    +0.105 C 
ATOM     30  H   UNL     1      16.731  10.360  21.234  0.00  0.00    +0.149 HD
ENDROOT
BRANCH   6  16
ATOM     16  C   UNL     1      12.170   9.600  18.945  0.00  0.00    +0.127 C 
BRANCH  16  20
ATOM      1  S   UNL     1      11.654  10.033  21.643  0.00  0.00    -0.100 S 
ATOM     20  C   UNL     1      11.648   9.046  20.244  0.00  0.00    +0.004 A 
ATOM     22  C   UNL     1      11.135   7.792  20.497  0.00  0.00    +0.012 A 
ATOM     23  C   UNL     1      10.743   7.641  21.859  0.00  0.00    +0.008 A 
ATOM     24  C   UNL     1      10.970   8.784  22.593  0.00  0.00    +0.045 A 
ENDBRANCH  16  20
ENDBRANCH   6  16
BRANCH  13  17
ATOM     17  C   UNL     1      18.397   7.501  21.033  0.00  0.00    +0.029 C 
BRANCH  17  19
ATOM     19  C   UNL     1      19.067   6.409  21.846  0.00  0.00    +0.097 C 
BRANCH  19  21
ATOM      4  O   UNL     1      21.183   7.208  22.707  0.00  0.00    -0.276 OA
ATOM      8  N   UNL     1      21.167   5.898  20.791  0.00  0.00    -0.311 N 
ATOM     21  C   UNL     1      20.577   6.565  21.855  0.00  0.00    +0.213 C 
ATOM     31  H   UNL     1      20.575   5.389  20.140  0.00  0.00    +0.149 HD
BRANCH   8  25
ATOM     25  C   UNL     1      22.594   5.896  20.578  0.00  0.00    +0.146 C 
BRANCH  25  26
ATOM      2  S   UNL     1      24.663   4.191  19.839  0.00  0.00    -0.100 S 
ATOM     26  C   UNL     1      23.165   4.503  20.607  0.00  0.00    +0.007 A 
ATOM     27  C   UNL     1      22.636   3.372  21.188  0.00  0.00    +0.013 A 
ATOM     28  C   UNL     1      23.473   2.234  21.002  0.00  0.00    +0.008 A 
ATOM     29  C   UNL     1      24.608   2.539  20.284  0.00  0.00    +0.045 A 
ENDBRANCH  25  26
ENDBRANCH   8  25
ENDBRANCH  19  21
ENDBRANCH  17  19
ENDBRANCH  13  17
TORSDOF 7
ENDMDL
MODEL 4
REMARK VINA RESULT:      -6.1     18.975     20.719
REMARK  Name = 45361015
REMARK  8 active torsions:
REMARK  status: ('A' for Active; 'I' for Inactive)
REMARK    1  A    between atoms: N_5  and  C_18
REMARK    2  A    between atoms: N_6  and  C_16
REMARK    3  A    between atoms: N_8  and  C_25
REMARK    4  A    between atoms: C_13  and  C_17
REMARK    5  A    between atoms: C_16  and  C_20
REMARK    6  A    between atoms: C_17  and  C_19
REMARK    7  A    between atoms: C_19  and  C_21
REMARK    8  A    between atoms: C_25  and  C_26
REMARK                            x       y       z     vdW  Elec       q    Type
REMARK                         _______ _______ _______ _____ _____    ______ ____
ROOT
ATOM      3  O   UNL     1      -8.619  -9.574  14.912  0.00  0.00    -0.274 OA
ATOM      5  N   UNL     1      -6.624 -11.585  17.552  0.00  0.00    -0.296 NA
ATOM      6  N   UNL     1      -9.542  -9.379  17.444  0.00  0.00    -0.285 NA
ATOM      7  N   UNL     1      -6.408  -9.566  15.502  0.00  0.00    -0.312 N 
ATOM      9  C   UNL     1      -7.585 -10.632  18.148  0.00  0.00    +0.084 C 
ATOM     10  C   UNL     1      -8.076  -9.434  17.281  0.00  0.00    +0.161 C 
ATOM     11  C   UNL     1      -8.912 -11.275  18.588  0.00  0.00    +0.036 C 
ATOM     12  C   UNL     1      -9.865 -10.100  18.670  0.00  0.00    +0.087 C 
ATOM     13  C   UNL     1      -5.303 -10.991  17.201  0.00  0.00    +0.074 C 
ATOM     14  C   UNL     1      -7.760  -9.543  15.792  0.00  0.00    +0.232 C 
ATOM     15  C   UNL     1      -5.374  -9.611  16.517  0.00  0.00    +0.123 C 
ATOM     18  C   UNL     1      -6.439 -12.757  18.424  0.00  0.00    +0.105 C 
ATOM     30  H   UNL     1      -6.129  -9.613  14.528  0.00  0.00    +0.149 HD
ENDROOT
BRANCH   6  16
ATOM     16  C   UNL     1     -10.071  -8.021  17.450  0.00  0.00    +0.127 C 
BRANCH  16  20
ATOM      1  S   UNL     1     -11.308  -6.274  15.676  0.00  0.00    -0.100 S 
ATOM     20  C   UNL     1     -11.114  -7.822  16.382  0.00  0.00    +0.004 A 
ATOM     22  C   UNL     1     -11.988  -8.746  15.853  0.00  0.00    +0.012 A 
ATOM     23  C   UNL     1     -12.829  -8.175  14.855  0.00  0.00    +0.008 A 
ATOM     24  C   UNL     1     -12.565  -6.838  14.658  0.00  0.00    +0.045 A 
ENDBRANCH  16  20
ENDBRANCH   6  16
BRANCH  13  17
ATOM     17  C   UNL     1      -4.519 -11.934  16.263  0.00  0.00    +0.029 C 
BRANCH  17  19
ATOM     19  C   UNL     1      -3.219 -11.290  15.820  0.00  0.00    +0.097 C 
BRANCH  19  21
ATOM      4  O   UNL     1      -2.650 -13.081  14.294  0.00  0.00    -0.276 OA
ATOM      8  N   UNL     1      -2.368 -10.882  13.607  0.00  0.00    -0.311 N 
ATOM     21  C   UNL     1      -2.723 -11.875  14.510  0.00  0.00    +0.213 C 
ATOM     31  H   UNL     1      -2.469  -9.908  13.882  0.00  0.00    +0.149 HD
BRANCH   8  25
ATOM     25  C   UNL     1      -1.863 -11.182  12.289  0.00  0.00    +0.146 C 
BRANCH  25  26
ATOM      2  S   UNL     1      -4.016 -11.540  10.566  0.00  0.00    -0.100 S 
ATOM     26  C   UNL     1      -2.736 -10.602  11.209  0.00  0.00    +0.007 A 
ATOM     27  C   UNL     1      -2.659  -9.359  10.620  0.00  0.00    +0.013 A 
ATOM     28  C   UNL     1      -3.666  -9.174   9.629  0.00  0.00    +0.008 A 
ATOM     29  C   UNL     1      -4.473 -10.283   9.497  0.00  0.00    +0.045 A 
ENDBRANCH  25  26
ENDBRANCH   8  25
ENDBRANCH  19  21
ENDBRANCH  17  19
ENDBRANCH  13  17
TORSDOF 7
ENDMDL
MODEL 5
REMARK VINA RESULT:      -6.0     29.413     33.186
REMARK  Name = 45361015
REMARK  8 active torsions:
REMARK  status: ('A' for Active; 'I' for Inactive)
REMARK    1  A    between atoms: N_5  and  C_18
REMARK    2  A    between atoms: N_6  and  C_16
REMARK    3  A    between atoms: N_8  and  C_25
REMARK    4  A    between atoms: C_13  and  C_17
REMARK    5  A    between atoms: C_16  and  C_20
REMARK    6  A    between atoms: C_17  and  C_19
REMARK    7  A    between atoms: C_19  and  C_21
REMARK    8  A    between atoms: C_25  and  C_26
REMARK                            x       y       z     vdW  Elec       q    Type
REMARK                         _______ _______ _______ _____ _____    ______ ____
ROOT
ATOM      3  O   UNL     1      13.314   7.239  21.804  0.00  0.00    -0.274 OA
ATOM      5  N   UNL     1      16.966   8.409  21.267  0.00  0.00    -0.296 NA
ATOM      6  N   UNL     1      13.592   9.799  20.989  0.00  0.00    -0.285 NA
ATOM      7  N   UNL     1      15.013   6.428  20.504  0.00  0.00    -0.312 N 
ATOM      9  C   UNL     1      15.964   9.354  20.727  0.00  0.00    +0.084 C 
ATOM     10  C   UNL     1      14.535   8.821  20.414  0.00  0.00    +0.161 C 
ATOM     11  C   UNL     1      15.665  10.546  21.654  0.00  0.00    +0.036 C 
ATOM     12  C   UNL     1      14.324  11.049  21.162  0.00  0.00    +0.087 C 
ATOM     13  C   UNL     1      17.327   7.298  20.343  0.00  0.00    +0.074 C 
ATOM     14  C   UNL     1      14.217   7.446  20.995  0.00  0.00    +0.232 C 
ATOM     15  C   UNL     1      16.135   6.649  19.612  0.00  0.00    +0.123 C 
ATOM     18  C   UNL     1      18.178   9.123  21.703  0.00  0.00    +0.105 C 
ATOM     30  H   UNL     1      14.838   5.483  20.832  0.00  0.00    +0.149 HD
ENDROOT
BRANCH   6  16
ATOM     16  C   UNL     1      12.385   9.976  20.190  0.00  0.00    +0.127 C 
BRANCH  16  20
ATOM      1  S   UNL     1      12.077   8.489  17.861  0.00  0.00    -0.100 S 
ATOM     20  C   UNL     1      12.666   9.850  18.716  0.00  0.00    +0.004 A 
ATOM     22  C   UNL     1      13.365  10.712  17.899  0.00  0.00    +0.012 A 
ATOM     23  C   UNL     1      13.418  10.247  16.553  0.00  0.00    +0.008 A 
ATOM     24  C   UNL     1      12.757   9.049  16.393  0.00  0.00    +0.045 A 
ENDBRANCH  16  20
ENDBRANCH   6  16
BRANCH  13  17
ATOM     17  C   UNL     1      18.067   6.180  21.107  0.00  0.00    +0.029 C 
BRANCH  17  19
ATOM     19  C   UNL     1      19.110   5.524  20.220  0.00  0.00    +0.097 C 
BRANCH  19  21
ATOM      4  O   UNL     1      20.771   6.533  21.663  0.00  0.00    -0.276 OA
ATOM      8  N   UNL     1      21.460   5.060  20.007  0.00  0.00    -0.311 N 
ATOM     21  C   UNL     1      20.517   5.779  20.728  0.00  0.00    +0.213 C 
ATOM     31  H   UNL     1      21.146   4.458  19.250  0.00  0.00    +0.149 HD
BRANCH   8  25
ATOM     25  C   UNL     1      22.872   5.134  20.295  0.00  0.00    +0.146 C 
BRANCH  25  26
ATOM      2  S   UNL     1      24.161   4.671  22.715  0.00  0.00    -0.100 S 
ATOM     26  C   UNL     1      23.283   4.137  21.346  0.00  0.00    +0.007 A 
ATOM     27  C   UNL     1      23.048   2.780  21.379  0.00  0.00    +0.013 A 
ATOM     28  C   UNL     1      23.596   2.171  22.545  0.00  0.00    +0.008 A 
ATOM     29  C   UNL     1      24.229   3.085  23.357  0.00  0.00    +0.045 A 
ENDBRANCH  25  26
ENDBRANCH   8  25
ENDBRANCH  19  21
ENDBRANCH  17  19
ENDBRANCH  13  17
TORSDOF 7
ENDMDL
MODEL 6
REMARK VINA RESULT:      -6.0     18.974     19.928
REMARK  Name = 45361015
REMARK  8 active torsions:
REMARK  status: ('A' for Active; 'I' for Inactive)
REMARK    1  A    between atoms: N_5  and  C_18
REMARK    2  A    between atoms: N_6  and  C_16
REMARK    3  A    between atoms: N_8  and  C_25
REMARK    4  A    between atoms: C_13  and  C_17
REMARK    5  A    between atoms: C_16  and  C_20
REMARK    6  A    between atoms: C_17  and  C_19
REMARK    7  A    between atoms: C_19  and  C_21
REMARK    8  A    between atoms: C_25  and  C_26
REMARK                            x       y       z     vdW  Elec       q    Type
REMARK                         _______ _______ _______ _____ _____    ______ ____
ROOT
ATOM      3  O   UNL     1      -6.622  -9.941  14.523  0.00  0.00    -0.274 OA
ATOM      5  N   UNL     1      -5.020 -11.614  17.626  0.00  0.00    -0.296 NA
ATOM      6  N   UNL     1      -4.268 -11.186  14.070  0.00  0.00    -0.285 NA
ATOM      7  N   UNL     1      -7.399 -11.509  15.997  0.00  0.00    -0.312 N 
ATOM      9  C   UNL     1      -4.375 -12.004  16.353  0.00  0.00    +0.084 C 
ATOM     10  C   UNL     1      -5.180 -11.835  15.031  0.00  0.00    +0.161 C 
ATOM     11  C   UNL     1      -3.083 -11.226  16.043  0.00  0.00    +0.036 C 
ATOM     12  C   UNL     1      -2.909 -11.410  14.550  0.00  0.00    +0.087 C 
ATOM     13  C   UNL     1      -6.223 -12.419  17.979  0.00  0.00    +0.074 C 
ATOM     14  C   UNL     1      -6.443 -10.985  15.148  0.00  0.00    +0.232 C 
ATOM     15  C   UNL     1      -7.187 -12.693  16.807  0.00  0.00    +0.123 C 
ATOM     18  C   UNL     1      -4.050 -11.636  18.733  0.00  0.00    +0.105 C 
ATOM     30  H   UNL     1      -8.274 -11.004  16.102  0.00  0.00    +0.149 HD
ENDROOT
BRANCH   6  16
ATOM     16  C   UNL     1      -4.450 -11.647  12.699  0.00  0.00    +0.127 C 
BRANCH  16  20
ATOM      1  S   UNL     1      -5.413  -9.483  11.244  0.00  0.00    -0.100 S 
ATOM     20  C   UNL     1      -4.161 -10.559  11.699  0.00  0.00    +0.004 A 
ATOM     22  C   UNL     1      -2.977 -10.278  11.055  0.00  0.00    +0.012 A 
ATOM     23  C   UNL     1      -3.098  -9.164  10.175  0.00  0.00    +0.008 A 
ATOM     24  C   UNL     1      -4.371  -8.636  10.182  0.00  0.00    +0.045 A 
ENDBRANCH  16  20
ENDBRANCH   6  16
BRANCH  13  17
ATOM     17  C   UNL     1      -7.033 -11.719  19.092  0.00  0.00    +0.029 C 
BRANCH  17  19
ATOM     19  C   UNL     1      -8.029 -12.679  19.715  0.00  0.00    +0.097 C 
BRANCH  19  21
ATOM      4  O   UNL     1     -10.291 -12.504  20.558  0.00  0.00    -0.276 OA
ATOM      8  N   UNL     1      -9.537 -10.941  19.015  0.00  0.00    -0.311 N 
ATOM     21  C   UNL     1      -9.409 -12.058  19.830  0.00  0.00    +0.213 C 
ATOM     31  H   UNL     1      -8.743 -10.650  18.451  0.00  0.00    +0.149 HD
BRANCH   8  25
ATOM     25  C   UNL     1     -10.757 -10.175  18.945  0.00  0.00    +0.146 C 
BRANCH  25  26
ATOM      2  S   UNL     1      -9.182  -8.634  17.248  0.00  0.00    -0.100 S 
ATOM     26  C   UNL     1     -10.702  -9.130  17.862  0.00  0.00    +0.007 A 
ATOM     27  C   UNL     1     -11.746  -8.471  17.251  0.00  0.00    +0.013 A 
ATOM     28  C   UNL     1     -11.293  -7.547  16.266  0.00  0.00    +0.008 A 
ATOM     29  C   UNL     1      -9.920  -7.534  16.162  0.00  0.00    +0.045 A 
ENDBRANCH  25  26
ENDBRANCH   8  25
ENDBRANCH  19  21
ENDBRANCH  17  19
ENDBRANCH  13  17
TORSDOF 7
ENDMDL
MODEL 7
REMARK VINA RESULT:      -5.9     18.698     21.020
REMARK  Name = 45361015
REMARK  8 active torsions:
REMARK  status: ('A' for Active; 'I' for Inactive)
REMARK    1  A    between atoms: N_5  and  C_18
REMARK    2  A    between atoms: N_6  and  C_16
REMARK    3  A    between atoms: N_8  and  C_25
REMARK    4  A    between atoms: C_13  and  C_17
REMARK    5  A    between atoms: C_16  and  C_20
REMARK    6  A    between atoms: C_17  and  C_19
REMARK    7  A    between atoms: C_19  and  C_21
REMARK    8  A    between atoms: C_25  and  C_26
REMARK                            x       y       z     vdW  Elec       q    Type
REMARK                         _______ _______ _______ _____ _____    ______ ____
ROOT
ATOM      3  O   UNL     1      -9.562 -11.203  15.874  0.00  0.00    -0.274 OA
ATOM      5  N   UNL     1      -6.365 -11.605  18.021  0.00  0.00    -0.296 NA
ATOM      6  N   UNL     1      -9.880 -10.710  18.511  0.00  0.00    -0.285 NA
ATOM      7  N   UNL     1      -7.488 -10.244  15.738  0.00  0.00    -0.312 N 
ATOM      9  C   UNL     1      -7.474 -10.944  18.743  0.00  0.00    +0.084 C 
ATOM     10  C   UNL     1      -8.605 -10.272  17.910  0.00  0.00    +0.161 C 
ATOM     11  C   UNL     1      -8.271 -11.888  19.662  0.00  0.00    +0.036 C 
ATOM     12  C   UNL     1      -9.582 -11.158  19.867  0.00  0.00    +0.087 C 
ATOM     13  C   UNL     1      -5.533 -10.685  17.195  0.00  0.00    +0.074 C 
ATOM     14  C   UNL     1      -8.620 -10.638  16.428  0.00  0.00    +0.232 C 
ATOM     15  C   UNL     1      -6.330  -9.650  16.376  0.00  0.00    +0.123 C 
ATOM     18  C   UNL     1      -5.513 -12.364  18.952  0.00  0.00    +0.105 C 
ATOM     30  H   UNL     1      -7.444 -10.436  14.742  0.00  0.00    +0.149 HD
ENDROOT
BRANCH   6  16
ATOM     16  C   UNL     1     -10.913  -9.683  18.486  0.00  0.00    +0.127 C 
BRANCH  16  20
ATOM      1  S   UNL     1     -13.086 -11.410  18.326  0.00  0.00    -0.100 S 
ATOM     20  C   UNL     1     -12.199 -10.168  19.101  0.00  0.00    +0.004 A 
ATOM     22  C   UNL     1     -12.810  -9.742  20.260  0.00  0.00    +0.012 A 
ATOM     23  C   UNL     1     -14.024 -10.445  20.514  0.00  0.00    +0.008 A 
ATOM     24  C   UNL     1     -14.292 -11.382  19.540  0.00  0.00    +0.045 A 
ENDBRANCH  16  20
ENDBRANCH   6  16
BRANCH  13  17
ATOM     17  C   UNL     1      -4.662 -11.488  16.206  0.00  0.00    +0.029 C 
BRANCH  17  19
ATOM     19  C   UNL     1      -3.241 -10.956  16.188  0.00  0.00    +0.097 C 
BRANCH  19  21
ATOM      4  O   UNL     1      -1.932 -12.363  14.716  0.00  0.00    -0.276 OA
ATOM      8  N   UNL     1      -2.637 -10.284  13.959  0.00  0.00    -0.311 N 
ATOM     21  C   UNL     1      -2.528 -11.304  14.894  0.00  0.00    +0.213 C 
ATOM     31  H   UNL     1      -3.157  -9.446  14.204  0.00  0.00    +0.149 HD
BRANCH   8  25
ATOM     25  C   UNL     1      -2.041 -10.373  12.648  0.00  0.00    +0.146 C 
BRANCH  25  26
ATOM      2  S   UNL     1      -4.674 -10.266  11.760  0.00  0.00    -0.100 S 
ATOM     26  C   UNL     1      -3.002  -9.957  11.566  0.00  0.00    +0.007 A 
ATOM     27  C   UNL     1      -2.727  -9.328  10.371  0.00  0.00    +0.013 A 
ATOM     28  C   UNL     1      -3.906  -9.097   9.606  0.00  0.00    +0.008 A 
ATOM     29  C   UNL     1      -5.036  -9.558  10.243  0.00  0.00    +0.045 A 
ENDBRANCH  25  26
ENDBRANCH   8  25
ENDBRANCH  19  21
ENDBRANCH  17  19
ENDBRANCH  13  17
TORSDOF 7
ENDMDL
MODEL 8
REMARK VINA RESULT:      -5.7     32.142     35.918
REMARK  Name = 45361015
REMARK  8 active torsions:
REMARK  status: ('A' for Active; 'I' for Inactive)
REMARK    1  A    between atoms: N_5  and  C_18
REMARK    2  A    between atoms: N_6  and  C_16
REMARK    3  A    between atoms: N_8  and  C_25
REMARK    4  A    between atoms: C_13  and  C_17
REMARK    5  A    between atoms: C_16  and  C_20
REMARK    6  A    between atoms: C_17  and  C_19
REMARK    7  A    between atoms: C_19  and  C_21
REMARK    8  A    between atoms: C_25  and  C_26
REMARK                            x       y       z     vdW  Elec       q    Type
REMARK                         _______ _______ _______ _____ _____    ______ ____
ROOT
ATOM      3  O   UNL     1      16.067   7.489   4.071  0.00  0.00    -0.274 OA
ATOM      5  N   UNL     1      13.481   9.504   6.131  0.00  0.00    -0.296 NA
ATOM      6  N   UNL     1      17.113   9.372   5.701  0.00  0.00    -0.285 NA
ATOM      7  N   UNL     1      14.428   6.845   5.532  0.00  0.00    -0.312 N 
ATOM      9  C   UNL     1      14.876   9.713   6.579  0.00  0.00    +0.084 C 
ATOM     10  C   UNL     1      15.941   8.637   6.214  0.00  0.00    +0.161 C 
ATOM     11  C   UNL     1      15.521  11.000   6.035  0.00  0.00    +0.036 C 
ATOM     12  C   UNL     1      17.005  10.743   6.186  0.00  0.00    +0.087 C 
ATOM     13  C   UNL     1      12.818   8.306   6.720  0.00  0.00    +0.074 C 
ATOM     14  C   UNL     1      15.503   7.628   5.155  0.00  0.00    +0.232 C 
ATOM     15  C   UNL     1      13.693   7.038   6.767  0.00  0.00    +0.123 C 
ATOM     18  C   UNL     1      12.668  10.707   6.374  0.00  0.00    +0.105 C 
ATOM     30  H   UNL     1      14.101   6.137   4.883  0.00  0.00    +0.149 HD
ENDROOT
BRANCH   6  16
ATOM     16  C   UNL     1      18.384   8.759   6.066  0.00  0.00    +0.127 C 
BRANCH  16  20
ATOM      1  S   UNL     1      19.044   9.319   3.423  0.00  0.00    -0.100 S 
ATOM     20  C   UNL     1      19.196   8.389   4.853  0.00  0.00    +0.004 A 
ATOM     22  C   UNL     1      20.096   7.357   4.705  0.00  0.00    +0.012 A 
ATOM     23  C   UNL     1      20.668   7.329   3.400  0.00  0.00    +0.008 A 
ATOM     24  C   UNL     1      20.184   8.341   2.601  0.00  0.00    +0.045 A 
ENDBRANCH  16  20
ENDBRANCH   6  16
BRANCH  13  17
ATOM     17  C   UNL     1      11.537   7.958   5.932  0.00  0.00    +0.029 C 
BRANCH  17  19
ATOM     19  C   UNL     1      10.937   6.657   6.432  0.00  0.00    +0.097 C 
BRANCH  19  21
ATOM      4  O   UNL     1       9.097   5.819   5.101  0.00  0.00    -0.276 OA
ATOM      8  N   UNL     1      11.264   5.197   4.549  0.00  0.00    -0.311 N 
ATOM     21  C   UNL     1      10.307   5.860   5.304  0.00  0.00    +0.213 C 
ATOM     31  H   UNL     1      12.245   5.300   4.797  0.00  0.00    +0.149 HD
BRANCH   8  25
ATOM     25  C   UNL     1      10.918   4.369   3.419  0.00  0.00    +0.146 C 
BRANCH  25  26
ATOM      2  S   UNL     1      12.846   5.760   1.976  0.00  0.00    -0.100 S 
ATOM     26  C   UNL     1      12.025   4.318   2.400  0.00  0.00    +0.007 A 
ATOM     27  C   UNL     1      12.509   3.226   1.714  0.00  0.00    +0.013 A 
ATOM     28  C   UNL     1      13.569   3.578   0.829  0.00  0.00    +0.008 A 
ATOM     29  C   UNL     1      13.853   4.925   0.871  0.00  0.00    +0.045 A 
ENDBRANCH  25  26
ENDBRANCH   8  25
ENDBRANCH  19  21
ENDBRANCH  17  19
ENDBRANCH  13  17
TORSDOF 7
ENDMDL
MODEL 9
REMARK VINA RESULT:      -5.7     30.644     34.344
REMARK  Name = 45361015
REMARK  8 active torsions:
REMARK  status: ('A' for Active; 'I' for Inactive)
REMARK    1  A    between atoms: N_5  and  C_18
REMARK    2  A    between atoms: N_6  and  C_16
REMARK    3  A    between atoms: N_8  and  C_25
REMARK    4  A    between atoms: C_13  and  C_17
REMARK    5  A    between atoms: C_16  and  C_20
REMARK    6  A    between atoms: C_17  and  C_19
REMARK    7  A    between atoms: C_19  and  C_21
REMARK    8  A    between atoms: C_25  and  C_26
REMARK                            x       y       z     vdW  Elec       q    Type
REMARK                         _______ _______ _______ _____ _____    ______ ____
ROOT
ATOM      3  O   UNL     1      20.401   6.248  24.215  0.00  0.00    -0.274 OA
ATOM      5  N   UNL     1      18.680   6.564  20.760  0.00  0.00    -0.296 NA
ATOM      6  N   UNL     1      21.837   5.314  22.126  0.00  0.00    -0.285 NA
ATOM      7  N   UNL     1      19.543   8.042  23.083  0.00  0.00    -0.312 N 
ATOM      9  C   UNL     1      20.113   6.208  20.668  0.00  0.00    +0.084 C 
ATOM     10  C   UNL     1      21.036   6.529  21.882  0.00  0.00    +0.161 C 
ATOM     11  C   UNL     1      20.371   4.705  20.459  0.00  0.00    +0.036 C 
ATOM     12  C   UNL     1      21.810   4.529  20.898  0.00  0.00    +0.087 C 
ATOM     13  C   UNL     1      18.415   8.026  20.877  0.00  0.00    +0.074 C 
ATOM     14  C   UNL     1      20.304   6.892  23.171  0.00  0.00    +0.232 C 
ATOM     15  C   UNL     1      19.345   8.778  21.849  0.00  0.00    +0.123 C 
ATOM     18  C   UNL     1      17.927   5.999  19.628  0.00  0.00    +0.105 C 
ATOM     30  H   UNL     1      19.049   8.354  23.914  0.00  0.00    +0.149 HD
ENDROOT
BRANCH   6  16
ATOM     16  C   UNL     1      23.197   5.598  22.566  0.00  0.00    +0.127 C 
BRANCH  16  20
ATOM      1  S   UNL     1      24.879   6.229  20.443  0.00  0.00    -0.100 S 
ATOM     20  C   UNL     1      24.220   5.120  21.569  0.00  0.00    +0.004 A 
ATOM     22  C   UNL     1      24.738   3.854  21.413  0.00  0.00    +0.012 A 
ATOM     23  C   UNL     1      25.689   3.792  20.354  0.00  0.00    +0.008 A 
ATOM     24  C   UNL     1      25.862   5.015  19.742  0.00  0.00    +0.045 A 
ENDBRANCH  16  20
ENDBRANCH   6  16
BRANCH  13  17
ATOM     17  C   UNL     1      16.963   8.275  21.338  0.00  0.00    +0.029 C 
BRANCH  17  19
ATOM     19  C   UNL     1      16.696   9.761  21.490  0.00  0.00    +0.097 C 
BRANCH  19  21
ATOM      4  O   UNL     1      14.844  10.593  20.172  0.00  0.00    -0.276 OA
ATOM      8  N   UNL     1      14.435   9.781  22.308  0.00  0.00    -0.311 N 
ATOM     21  C   UNL     1      15.240  10.099  21.224  0.00  0.00    +0.213 C 
ATOM     31  H   UNL     1      14.861   9.370  23.134  0.00  0.00    +0.149 HD
BRANCH   8  25
ATOM     25  C   UNL     1      13.010  10.010  22.303  0.00  0.00    +0.146 C 
BRANCH  25  26
ATOM      2  S   UNL     1      10.554   8.706  22.345  0.00  0.00    -0.100 S 
ATOM     26  C   UNL     1      12.239   8.742  22.045  0.00  0.00    +0.007 A 
ATOM     27  C   UNL     1      12.708   7.534  21.577  0.00  0.00    +0.013 A 
ATOM     28  C   UNL     1      11.668   6.566  21.462  0.00  0.00    +0.008 A 
ATOM     29  C   UNL     1      10.447   7.071  21.848  0.00  0.00    +0.045 A 
ENDBRANCH  25  26
ENDBRANCH   8  25
ENDBRANCH  19  21
ENDBRANCH  17  19
ENDBRANCH  13  17
TORSDOF 7
ENDMDL
MODEL 10
REMARK VINA RESULT:      -5.7     20.359     22.592
REMARK  Name = 45361015
REMARK  8 active torsions:
REMARK  status: ('A' for Active; 'I' for Inactive)
REMARK    1  A    between atoms: N_5  and  C_18
REMARK    2  A    between atoms: N_6  and  C_16
REMARK    3  A    between atoms: N_8  and  C_25
REMARK    4  A    between atoms: C_13  and  C_17
REMARK    5  A    between atoms: C_16  and  C_20
REMARK    6  A    between atoms: C_17  and  C_19
REMARK    7  A    between atoms: C_19  and  C_21
REMARK    8  A    between atoms: C_25  and  C_26
REMARK                            x       y       z     vdW  Elec       q    Type
REMARK                         _______ _______ _______ _____ _____    ______ ____
ROOT
ATOM      3  O   UNL     1      -7.507 -10.953  14.025  0.00  0.00    -0.274 OA
ATOM      5  N   UNL     1      -4.286 -11.020  11.876  0.00  0.00    -0.296 NA
ATOM      6  N   UNL     1      -5.204 -10.621  15.397  0.00  0.00    -0.285 NA
ATOM      7  N   UNL     1      -6.841  -9.723  12.213  0.00  0.00    -0.312 N 
ATOM      9  C   UNL     1      -4.057 -10.544  13.258  0.00  0.00    +0.084 C 
ATOM     10  C   UNL     1      -5.271  -9.992  14.064  0.00  0.00    +0.161 C 
ATOM     11  C   UNL     1      -3.507 -11.624  14.208  0.00  0.00    +0.036 C 
ATOM     12  C   UNL     1      -3.834 -11.084  15.584  0.00  0.00    +0.087 C 
ATOM     13  C   UNL     1      -4.738  -9.963  10.928  0.00  0.00    +0.074 C 
ATOM     14  C   UNL     1      -6.639 -10.293  13.457  0.00  0.00    +0.232 C 
ATOM     15  C   UNL     1      -5.812  -9.008  11.484  0.00  0.00    +0.123 C 
ATOM     18  C   UNL     1      -3.090 -11.699  11.351  0.00  0.00    +0.105 C 
ATOM     30  H   UNL     1      -7.741  -9.864  11.764  0.00  0.00    +0.149 HD
ENDROOT
BRANCH   6  16
ATOM     16  C   UNL     1      -5.638  -9.740  16.473  0.00  0.00    +0.127 C 
BRANCH  16  20
ATOM      1  S   UNL     1      -7.529 -11.384  17.678  0.00  0.00    -0.100 S 
ATOM     20  C   UNL     1      -6.055 -10.513  17.696  0.00  0.00    +0.004 A 
ATOM     22  C   UNL     1      -5.396 -10.637  18.900  0.00  0.00    +0.012 A 
ATOM     23  C   UNL     1      -6.111 -11.457  19.819  0.00  0.00    +0.008 A 
ATOM     24  C   UNL     1      -7.289 -11.930  19.283  0.00  0.00    +0.045 A 
ENDBRANCH  16  20
ENDBRANCH   6  16
BRANCH  13  17
ATOM     17  C   UNL     1      -5.303 -10.600   9.640  0.00  0.00    +0.029 C 
BRANCH  17  19
ATOM     19  C   UNL     1      -4.682  -9.966   8.410  0.00  0.00    +0.097 C 
BRANCH  19  21
ATOM      4  O   UNL     1      -5.716 -10.560   6.304  0.00  0.00    -0.276 OA
ATOM      8  N   UNL     1      -6.558  -8.762   7.507  0.00  0.00    -0.311 N 
ATOM     21  C   UNL     1      -5.689  -9.821   7.285  0.00  0.00    +0.213 C 
ATOM     31  H   UNL     1      -6.455  -8.211   8.356  0.00  0.00    +0.149 HD
BRANCH   8  25
ATOM     25  C   UNL     1      -7.607  -8.417   6.579  0.00  0.00    +0.146 C 
BRANCH  25  26
ATOM      2  S   UNL     1      -9.981  -7.000   6.279  0.00  0.00    -0.100 S 
ATOM     26  C   UNL     1      -8.636  -7.513   7.205  0.00  0.00    +0.007 A 
ATOM     27  C   UNL     1      -8.664  -7.003   8.485  0.00  0.00    +0.013 A 
ATOM     28  C   UNL     1      -9.806  -6.181   8.707  0.00  0.00    +0.008 A 
ATOM     29  C   UNL     1     -10.606  -6.093   7.590  0.00  0.00    +0.045 A 
ENDBRANCH  25  26
ENDBRANCH   8  25
ENDBRANCH  19  21
ENDBRANCH  17  19
ENDBRANCH  13  17
TORSDOF 7
ENDMDL
