REMARK  Name = 11884337
REMARK  5 active torsions:
REMARK  status: ('A' for Active; 'I' for Inactive)
REMARK    1  A    between atoms: O_3  and  C_10
REMARK    2  A    between atoms: O_5  and  C_19
REMARK    3  A    between atoms: O_5  and  C_20
REMARK    4  A    between atoms: N_6  and  C_9
REMARK    5  A    between atoms: C_13  and  C_14
REMARK                            x       y       z     vdW  Elec       q    Type
REMARK                         _______ _______ _______ _____ _____    ______ ____
ROOT
ATOM      4  O   UNL     1       0.542   2.584   0.153  0.00  0.00    -0.270 OA
ATOM      6  N   UNL     1      -0.430   0.479   0.220  0.00  0.00    -0.304 N 
ATOM     13  C   UNL     1       0.641   1.360   0.155  0.00  0.00    +0.244 C 
ATOM     21  H   UNL     1      -0.281  -0.518   0.105  0.00  0.00    +0.149 HD
ENDROOT
BRANCH   6   9
ATOM      1  O   UNL     1      -2.978  -0.236  -1.430  0.00  0.00    -0.369 OA
ATOM      2  O   UNL     1      -3.940   0.494   1.377  0.00  0.00    -0.369 OA
ATOM      7  C   UNL     1      -2.712  -0.115   0.921  0.00  0.00    +0.172 C 
ATOM      8  C   UNL     1      -3.079  -1.027  -0.232  0.00  0.00    +0.179 C 
ATOM      9  C   UNL     1      -1.818   0.933   0.293  0.00  0.00    +0.130 C 
ATOM     10  C   UNL     1      -4.512  -1.386   0.079  0.00  0.00    +0.171 C 
ATOM     11  C   UNL     1      -2.402   1.039  -1.108  0.00  0.00    +0.185 C 
ATOM     12  C   UNL     1      -5.041  -0.099   0.673  0.00  0.00    +0.194 C 
BRANCH  10   3
ATOM      3  O   UNL     1      -5.249  -1.790  -1.052  0.00  0.00    -0.387 OA
ATOM     22  H   UNL     1      -5.164  -1.098  -1.730  0.00  0.00    +0.210 HD
ENDBRANCH  10   3
ENDBRANCH   6   9
BRANCH  13  14
ATOM     14  C   UNL     1       1.988   0.741   0.059  0.00  0.00    +0.037 A 
ATOM     15  C   UNL     1       3.003   1.447  -0.553  0.00  0.00    +0.016 A 
ATOM     16  C   UNL     1       2.181  -0.520   0.584  0.00  0.00    +0.016 A 
ATOM     17  C   UNL     1       4.268   0.865  -0.644  0.00  0.00    +0.046 A 
ATOM     18  C   UNL     1       3.446  -1.102   0.493  0.00  0.00    +0.046 A 
ATOM     19  C   UNL     1       4.489  -0.409  -0.121  0.00  0.00    +0.120 A 
BRANCH  19   5
ATOM      5  O   UNL     1       5.723  -0.977  -0.211  0.00  0.00    -0.495 OA
ATOM     20  C   UNL     1       5.879  -2.281   0.345  0.00  0.00    +0.277 C 
ENDBRANCH  19   5
ENDBRANCH  13  14
TORSDOF 4
