MODEL 1
REMARK VINA RESULT:      -8.1      0.000      0.000
REMARK  Name = 56774590
REMARK  7 active torsions:
REMARK  status: ('A' for Active; 'I' for Inactive)
REMARK    1  A    between atoms: O_2  and  C_8
REMARK    2  A    between atoms: N_5  and  C_10
REMARK    3  A    between atoms: N_6  and  C_21
REMARK    4  A    between atoms: C_7  and  C_8
REMARK    5  A    between atoms: C_8  and  C_12
REMARK    6  A    between atoms: C_10  and  C_14
REMARK    7  A    between atoms: C_25  and  C_26
REMARK                            x       y       z     vdW  Elec       q    Type
REMARK                         _______ _______ _______ _____ _____    ______ ____
ROOT
ATOM      1  O   UNL     1      14.193   8.403  17.439  0.00  0.00    -0.369 OA
ATOM      3  O   UNL     1      10.662   8.351  18.197  0.00  0.00    -0.273 OA
ATOM      5  N   UNL     1      12.475   8.388  19.655  0.00  0.00    -0.287 N 
ATOM      7  C   UNL     1      13.930   8.271  19.811  0.00  0.00    +0.135 C 
ATOM      9  C   UNL     1      14.636   8.979  18.661  0.00  0.00    +0.185 C 
ATOM     11  C   UNL     1      11.876   8.426  18.398  0.00  0.00    +0.242 C 
ATOM     13  C   UNL     1      12.823   8.661  17.226  0.00  0.00    +0.255 C 
ENDROOT
BRANCH   7   8
ATOM      8  C   UNL     1      14.347   6.799  19.891  0.00  0.00    +0.167 C 
BRANCH   8  12
ATOM     12  C   UNL     1      15.842   6.645  20.003  0.00  0.00    -0.017 A 
ATOM     15  C   UNL     1      16.549   5.962  19.013  0.00  0.00    +0.008 A 
ATOM     16  C   UNL     1      16.519   7.187  21.095  0.00  0.00    +0.008 A 
ATOM     17  C   UNL     1      17.933   5.821  19.116  0.00  0.00    +0.023 A 
ATOM     18  C   UNL     1      17.903   7.046  21.199  0.00  0.00    +0.023 A 
ATOM     21  C   UNL     1      18.610   6.363  20.209  0.00  0.00    +0.033 A 
BRANCH  21   6
ATOM      4  O   UNL     1      20.304   3.894  20.530  0.00  0.00    -0.276 OA
ATOM      6  N   UNL     1      19.995   6.221  20.313  0.00  0.00    -0.286 N 
ATOM     25  C   UNL     1      20.734   5.041  20.464  0.00  0.00    +0.214 C 
ATOM     26  C   UNL     1      22.216   5.315  20.538  0.00  0.00    +0.109 C 
ATOM     28  H   UNL     1      20.524   7.089  20.274  0.00  0.00    +0.155 HD
ENDBRANCH  21   6
ENDBRANCH   8  12
BRANCH   8   2
ATOM      2  O   UNL     1      13.722   6.193  21.018  0.00  0.00    -0.385 OA
ATOM     27  H   UNL     1      13.233   5.405  20.727  0.00  0.00    +0.210 HD
ENDBRANCH   8   2
ENDBRANCH   7   8
BRANCH   5  10
ATOM     10  C   UNL     1      11.659   8.278  20.856  0.00  0.00    +0.143 C 
BRANCH  10  14
ATOM     14  C   UNL     1      11.511   9.597  21.558  0.00  0.00    -0.030 A 
ATOM     19  C   UNL     1      11.000   9.646  22.854  0.00  0.00    +0.005 A 
ATOM     20  C   UNL     1      11.887  10.776  20.912  0.00  0.00    +0.005 A 
ATOM     22  C   UNL     1      10.864  10.872  23.506  0.00  0.00    +0.000 A 
ATOM     23  C   UNL     1      11.751  12.002  21.563  0.00  0.00    +0.000 A 
ATOM     24  C   UNL     1      11.239  12.049  22.861  0.00  0.00    +0.000 A 
ENDBRANCH  10  14
ENDBRANCH   5  10
TORSDOF 6
ENDMDL
MODEL 2
REMARK VINA RESULT:      -8.0      0.783      1.597
REMARK  Name = 56774590
REMARK  7 active torsions:
REMARK  status: ('A' for Active; 'I' for Inactive)
REMARK    1  A    between atoms: O_2  and  C_8
REMARK    2  A    between atoms: N_5  and  C_10
REMARK    3  A    between atoms: N_6  and  C_21
REMARK    4  A    between atoms: C_7  and  C_8
REMARK    5  A    between atoms: C_8  and  C_12
REMARK    6  A    between atoms: C_10  and  C_14
REMARK    7  A    between atoms: C_25  and  C_26
REMARK                            x       y       z     vdW  Elec       q    Type
REMARK                         _______ _______ _______ _____ _____    ______ ____
ROOT
ATOM      1  O   UNL     1      13.305   7.582  17.205  0.00  0.00    -0.369 OA
ATOM      3  O   UNL     1      10.539   8.431  19.367  0.00  0.00    -0.273 OA
ATOM      5  N   UNL     1      12.824   8.551  19.791  0.00  0.00    -0.287 N 
ATOM      7  C   UNL     1      14.178   8.211  19.339  0.00  0.00    +0.135 C 
ATOM      9  C   UNL     1      14.287   8.399  17.830  0.00  0.00    +0.185 C 
ATOM     11  C   UNL     1      11.708   8.329  18.988  0.00  0.00    +0.242 C 
ATOM     13  C   UNL     1      12.004   8.022  17.524  0.00  0.00    +0.255 C 
ENDROOT
BRANCH   7   8
ATOM      8  C   UNL     1      14.537   6.777  19.743  0.00  0.00    +0.167 C 
BRANCH   8  12
ATOM     12  C   UNL     1      16.025   6.593  19.895  0.00  0.00    -0.017 A 
ATOM     15  C   UNL     1      16.692   7.168  20.976  0.00  0.00    +0.008 A 
ATOM     16  C   UNL     1      16.735   5.847  18.954  0.00  0.00    +0.008 A 
ATOM     17  C   UNL     1      18.069   6.998  21.118  0.00  0.00    +0.023 A 
ATOM     18  C   UNL     1      18.113   5.676  19.095  0.00  0.00    +0.023 A 
ATOM     21  C   UNL     1      18.779   6.252  20.178  0.00  0.00    +0.033 A 
BRANCH  21   6
ATOM      4  O   UNL     1      20.408   3.751  20.580  0.00  0.00    -0.276 OA
ATOM      6  N   UNL     1      20.157   6.081  20.319  0.00  0.00    -0.286 N 
ATOM     25  C   UNL     1      20.865   4.886  20.507  0.00  0.00    +0.214 C 
ATOM     26  C   UNL     1      22.351   5.129  20.614  0.00  0.00    +0.109 C 
ATOM     28  H   UNL     1      20.707   6.936  20.280  0.00  0.00    +0.155 HD
ENDBRANCH  21   6
ENDBRANCH   8  12
BRANCH   8   2
ATOM      2  O   UNL     1      13.891   6.459  20.971  0.00  0.00    -0.385 OA
ATOM     27  H   UNL     1      12.982   6.165  20.789  0.00  0.00    +0.210 HD
ENDBRANCH   8   2
ENDBRANCH   7   8
BRANCH   5  10
ATOM     10  C   UNL     1      12.661   8.960  21.180  0.00  0.00    +0.143 C 
BRANCH  10  14
ATOM     14  C   UNL     1      12.314  10.415  21.301  0.00  0.00    -0.030 A 
ATOM     19  C   UNL     1      12.986  11.360  20.526  0.00  0.00    +0.005 A 
ATOM     20  C   UNL     1      11.319  10.823  22.189  0.00  0.00    +0.005 A 
ATOM     22  C   UNL     1      12.662  12.713  20.637  0.00  0.00    +0.000 A 
ATOM     23  C   UNL     1      10.995  12.175  22.302  0.00  0.00    +0.000 A 
ATOM     24  C   UNL     1      11.668  13.120  21.526  0.00  0.00    +0.000 A 
ENDBRANCH  10  14
ENDBRANCH   5  10
TORSDOF 6
ENDMDL
MODEL 3
REMARK VINA RESULT:      -7.4      3.098      6.656
REMARK  Name = 56774590
REMARK  7 active torsions:
REMARK  status: ('A' for Active; 'I' for Inactive)
REMARK    1  A    between atoms: O_2  and  C_8
REMARK    2  A    between atoms: N_5  and  C_10
REMARK    3  A    between atoms: N_6  and  C_21
REMARK    4  A    between atoms: C_7  and  C_8
REMARK    5  A    between atoms: C_8  and  C_12
REMARK    6  A    between atoms: C_10  and  C_14
REMARK    7  A    between atoms: C_25  and  C_26
REMARK                            x       y       z     vdW  Elec       q    Type
REMARK                         _______ _______ _______ _____ _____    ______ ____
ROOT
ATOM      1  O   UNL     1      10.889   9.162  22.038  0.00  0.00    -0.369 OA
ATOM      3  O   UNL     1      11.141   5.659  21.194  0.00  0.00    -0.273 OA
ATOM      5  N   UNL     1      12.485   7.433  20.514  0.00  0.00    -0.287 N 
ATOM      7  C   UNL     1      12.671   8.888  20.468  0.00  0.00    +0.135 C 
ATOM      9  C   UNL     1      12.246   9.509  21.794  0.00  0.00    +0.185 C 
ATOM     11  C   UNL     1      11.455   6.849  21.249  0.00  0.00    +0.242 C 
ATOM     13  C   UNL     1      10.751   7.772  22.237  0.00  0.00    +0.255 C 
ENDROOT
BRANCH   7   8
ATOM      8  C   UNL     1      11.888   9.494  19.300  0.00  0.00    +0.167 C 
BRANCH   8  12
ATOM     12  C   UNL     1      12.798   9.918  18.176  0.00  0.00    -0.017 A 
ATOM     15  C   UNL     1      12.914   9.126  17.034  0.00  0.00    +0.008 A 
ATOM     16  C   UNL     1      13.525  11.105  18.277  0.00  0.00    +0.008 A 
ATOM     17  C   UNL     1      13.755   9.518  15.993  0.00  0.00    +0.023 A 
ATOM     18  C   UNL     1      14.367  11.498  17.237  0.00  0.00    +0.023 A 
ATOM     21  C   UNL     1      14.482  10.705  16.095  0.00  0.00    +0.033 A 
BRANCH  21   6
ATOM      4  O   UNL     1      13.839  11.862  13.390  0.00  0.00    -0.276 OA
ATOM      6  N   UNL     1      15.325  11.098  15.054  0.00  0.00    -0.286 N 
ATOM     25  C   UNL     1      14.969  11.631  13.808  0.00  0.00    +0.214 C 
ATOM     26  C   UNL     1      16.181  11.928  12.960  0.00  0.00    +0.109 C 
ATOM     28  H   UNL     1      16.319  10.977  15.231  0.00  0.00    +0.155 HD
ENDBRANCH  21   6
ENDBRANCH   8  12
BRANCH   8   2
ATOM      2  O   UNL     1      10.949   8.539  18.815  0.00  0.00    -0.385 OA
ATOM     27  H   UNL     1      11.299   8.129  18.006  0.00  0.00    +0.210 HD
ENDBRANCH   8   2
ENDBRANCH   7   8
BRANCH   5  10
ATOM     10  C   UNL     1      13.300   6.622  19.619  0.00  0.00    +0.143 C 
BRANCH  10  14
ATOM     14  C   UNL     1      14.749   6.635  20.012  0.00  0.00    -0.030 A 
ATOM     19  C   UNL     1      15.738   6.510  19.037  0.00  0.00    +0.005 A 
ATOM     20  C   UNL     1      15.106   6.772  21.354  0.00  0.00    +0.005 A 
ATOM     22  C   UNL     1      17.085   6.522  19.403  0.00  0.00    +0.000 A 
ATOM     23  C   UNL     1      16.452   6.784  21.720  0.00  0.00    +0.000 A 
ATOM     24  C   UNL     1      17.441   6.659  20.744  0.00  0.00    +0.000 A 
ENDBRANCH  10  14
ENDBRANCH   5  10
TORSDOF 6
ENDMDL
MODEL 4
REMARK VINA RESULT:      -6.8      3.329      7.014
REMARK  Name = 56774590
REMARK  7 active torsions:
REMARK  status: ('A' for Active; 'I' for Inactive)
REMARK    1  A    between atoms: O_2  and  C_8
REMARK    2  A    between atoms: N_5  and  C_10
REMARK    3  A    between atoms: N_6  and  C_21
REMARK    4  A    between atoms: C_7  and  C_8
REMARK    5  A    between atoms: C_8  and  C_12
REMARK    6  A    between atoms: C_10  and  C_14
REMARK    7  A    between atoms: C_25  and  C_26
REMARK                            x       y       z     vdW  Elec       q    Type
REMARK                         _______ _______ _______ _____ _____    ______ ____
ROOT
ATOM      1  O   UNL     1      12.728  10.170  21.567  0.00  0.00    -0.369 OA
ATOM      3  O   UNL     1      12.728   6.592  21.075  0.00  0.00    -0.273 OA
ATOM      5  N   UNL     1      14.011   8.219  20.015  0.00  0.00    -0.287 N 
ATOM      7  C   UNL     1      14.236   9.651  19.787  0.00  0.00    +0.135 C 
ATOM      9  C   UNL     1      14.042  10.423  21.087  0.00  0.00    +0.185 C 
ATOM     11  C   UNL     1      13.087   7.765  20.954  0.00  0.00    +0.242 C 
ATOM     13  C   UNL     1      12.576   8.816  21.933  0.00  0.00    +0.255 C 
ENDROOT
BRANCH   7   8
ATOM      8  C   UNL     1      13.303  10.175  18.690  0.00  0.00    +0.167 C 
BRANCH   8  12
ATOM     12  C   UNL     1      14.052  10.494  17.422  0.00  0.00    -0.017 A 
ATOM     15  C   UNL     1      13.986   9.622  16.335  0.00  0.00    +0.008 A 
ATOM     16  C   UNL     1      14.812  11.661  17.335  0.00  0.00    +0.008 A 
ATOM     17  C   UNL     1      14.679   9.917  15.161  0.00  0.00    +0.023 A 
ATOM     18  C   UNL     1      15.505  11.956  16.161  0.00  0.00    +0.023 A 
ATOM     21  C   UNL     1      15.438  11.084  15.074  0.00  0.00    +0.033 A 
BRANCH  21   6
ATOM      4  O   UNL     1      14.428  11.942  12.370  0.00  0.00    -0.276 OA
ATOM      6  N   UNL     1      16.132  11.380  13.899  0.00  0.00    -0.286 N 
ATOM     25  C   UNL     1      15.607  11.774  12.662  0.00  0.00    +0.214 C 
ATOM     26  C   UNL     1      16.694  11.999  11.640  0.00  0.00    +0.109 C 
ATOM     28  H   UNL     1      17.144  11.294  13.960  0.00  0.00    +0.155 HD
ENDBRANCH  21   6
ENDBRANCH   8  12
BRANCH   8   2
ATOM      2  O   UNL     1      12.302   9.199  18.418  0.00  0.00    -0.385 OA
ATOM     27  H   UNL     1      12.549   8.701  17.621  0.00  0.00    +0.210 HD
ENDBRANCH   8   2
ENDBRANCH   7   8
BRANCH   5  10
ATOM     10  C   UNL     1      14.650   7.283  19.100  0.00  0.00    +0.143 C 
BRANCH  10  14
ATOM     14  C   UNL     1      16.024   6.895  19.563  0.00  0.00    -0.030 A 
ATOM     19  C   UNL     1      16.561   7.467  20.715  0.00  0.00    +0.005 A 
ATOM     20  C   UNL     1      16.765   5.960  18.839  0.00  0.00    +0.005 A 
ATOM     22  C   UNL     1      17.839   7.106  21.146  0.00  0.00    +0.000 A 
ATOM     23  C   UNL     1      18.042   5.599  19.268  0.00  0.00    +0.000 A 
ATOM     24  C   UNL     1      18.579   6.172  20.422  0.00  0.00    +0.000 A 
ENDBRANCH  10  14
ENDBRANCH   5  10
TORSDOF 6
ENDMDL
MODEL 5
REMARK VINA RESULT:      -6.7     13.556     16.369
REMARK  Name = 56774590
REMARK  7 active torsions:
REMARK  status: ('A' for Active; 'I' for Inactive)
REMARK    1  A    between atoms: O_2  and  C_8
REMARK    2  A    between atoms: N_5  and  C_10
REMARK    3  A    between atoms: N_6  and  C_21
REMARK    4  A    between atoms: C_7  and  C_8
REMARK    5  A    between atoms: C_8  and  C_12
REMARK    6  A    between atoms: C_10  and  C_14
REMARK    7  A    between atoms: C_25  and  C_26
REMARK                            x       y       z     vdW  Elec       q    Type
REMARK                         _______ _______ _______ _____ _____    ______ ____
ROOT
ATOM      1  O   UNL     1       8.276   7.005   6.706  0.00  0.00    -0.369 OA
ATOM      3  O   UNL     1      10.600   5.834   9.211  0.00  0.00    -0.273 OA
ATOM      5  N   UNL     1      11.022   6.546   7.036  0.00  0.00    -0.287 N 
ATOM      7  C   UNL     1      10.459   6.923   5.734  0.00  0.00    +0.135 C 
ATOM      9  C   UNL     1       9.201   7.761   5.934  0.00  0.00    +0.185 C 
ATOM     11  C   UNL     1      10.211   6.316   8.145  0.00  0.00    +0.242 C 
ATOM     13  C   UNL     1       8.767   6.786   8.010  0.00  0.00    +0.255 C 
ENDROOT
BRANCH   7   8
ATOM      8  C   UNL     1      10.163   5.678   4.893  0.00  0.00    +0.167 C 
BRANCH   8  12
ATOM     12  C   UNL     1      11.182   5.484   3.800  0.00  0.00    -0.017 A 
ATOM     15  C   UNL     1      12.126   6.478   3.543  0.00  0.00    +0.008 A 
ATOM     16  C   UNL     1      11.182   4.311   3.046  0.00  0.00    +0.008 A 
ATOM     17  C   UNL     1      13.070   6.299   2.532  0.00  0.00    +0.023 A 
ATOM     18  C   UNL     1      12.126   4.131   2.034  0.00  0.00    +0.023 A 
ATOM     21  C   UNL     1      13.070   5.126   1.778  0.00  0.00    +0.033 A 
BRANCH  21   6
ATOM      4  O   UNL     1      15.379   3.204   1.577  0.00  0.00    -0.276 OA
ATOM      6  N   UNL     1      14.014   4.946   0.765  0.00  0.00    -0.286 N 
ATOM     25  C   UNL     1      15.075   4.033   0.726  0.00  0.00    +0.214 C 
ATOM     26  C   UNL     1      15.871   4.156  -0.550  0.00  0.00    +0.109 C 
ATOM     28  H   UNL     1      13.911   5.562  -0.038  0.00  0.00    +0.155 HD
ENDBRANCH  21   6
ENDBRANCH   8  12
BRANCH   8   2
ATOM      2  O   UNL     1      10.150   4.531   5.739  0.00  0.00    -0.385 OA
ATOM     27  H   UNL     1       9.389   4.586   6.341  0.00  0.00    +0.210 HD
ENDBRANCH   8   2
ENDBRANCH   7   8
BRANCH   5  10
ATOM     10  C   UNL     1      12.445   6.239   7.089  0.00  0.00    +0.143 C 
BRANCH  10  14
ATOM     14  C   UNL     1      13.292   7.450   6.826  0.00  0.00    -0.030 A 
ATOM     19  C   UNL     1      12.784   8.725   7.073  0.00  0.00    +0.005 A 
ATOM     20  C   UNL     1      14.589   7.300   6.333  0.00  0.00    +0.005 A 
ATOM     22  C   UNL     1      13.572   9.851   6.829  0.00  0.00    +0.000 A 
ATOM     23  C   UNL     1      15.376   8.425   6.089  0.00  0.00    +0.000 A 
ATOM     24  C   UNL     1      14.867   9.700   6.336  0.00  0.00    +0.000 A 
ENDBRANCH  10  14
ENDBRANCH   5  10
TORSDOF 6
ENDMDL
MODEL 6
REMARK VINA RESULT:      -6.5      3.245     10.054
REMARK  Name = 56774590
REMARK  7 active torsions:
REMARK  status: ('A' for Active; 'I' for Inactive)
REMARK    1  A    between atoms: O_2  and  C_8
REMARK    2  A    between atoms: N_5  and  C_10
REMARK    3  A    between atoms: N_6  and  C_21
REMARK    4  A    between atoms: C_7  and  C_8
REMARK    5  A    between atoms: C_8  and  C_12
REMARK    6  A    between atoms: C_10  and  C_14
REMARK    7  A    between atoms: C_25  and  C_26
REMARK                            x       y       z     vdW  Elec       q    Type
REMARK                         _______ _______ _______ _____ _____    ______ ____
ROOT
ATOM      1  O   UNL     1      22.596   8.234  21.141  0.00  0.00    -0.369 OA
ATOM      3  O   UNL     1      24.084   6.043  23.597  0.00  0.00    -0.273 OA
ATOM      5  N   UNL     1      22.195   5.704  22.281  0.00  0.00    -0.287 N 
ATOM      7  C   UNL     1      21.218   6.292  21.357  0.00  0.00    +0.135 C 
ATOM      9  C   UNL     1      21.921   7.235  20.387  0.00  0.00    +0.185 C 
ATOM     11  C   UNL     1      23.322   6.408  22.700  0.00  0.00    +0.242 C 
ATOM     13  C   UNL     1      23.639   7.670  21.906  0.00  0.00    +0.255 C 
ENDROOT
BRANCH   7   8
ATOM      8  C   UNL     1      20.115   7.020  22.131  0.00  0.00    +0.167 C 
BRANCH   8  12
ATOM     12  C   UNL     1      18.844   7.127  21.328  0.00  0.00    -0.017 A 
ATOM     15  C   UNL     1      18.521   6.138  20.398  0.00  0.00    +0.008 A 
ATOM     16  C   UNL     1      17.990   8.214  21.515  0.00  0.00    +0.008 A 
ATOM     17  C   UNL     1      17.344   6.236  19.656  0.00  0.00    +0.023 A 
ATOM     18  C   UNL     1      16.813   8.312  20.773  0.00  0.00    +0.023 A 
ATOM     21  C   UNL     1      16.490   7.323  19.844  0.00  0.00    +0.033 A 
BRANCH  21   6
ATOM      4  O   UNL     1      13.645   6.688  20.597  0.00  0.00    -0.276 OA
ATOM      6  N   UNL     1      15.312   7.421  19.101  0.00  0.00    -0.286 N 
ATOM     25  C   UNL     1      14.008   7.108  19.504  0.00  0.00    +0.214 C 
ATOM     26  C   UNL     1      13.008   7.354  18.401  0.00  0.00    +0.109 C 
ATOM     28  H   UNL     1      15.427   7.763  18.149  0.00  0.00    +0.155 HD
ENDBRANCH  21   6
ENDBRANCH   8  12
BRANCH   8   2
ATOM      2  O   UNL     1      19.853   6.323  23.345  0.00  0.00    -0.385 OA
ATOM     27  H   UNL     1      19.198   5.625  23.178  0.00  0.00    +0.210 HD
ENDBRANCH   8   2
ENDBRANCH   7   8
BRANCH   5  10
ATOM     10  C   UNL     1      21.857   4.426  22.893  0.00  0.00    +0.143 C 
BRANCH  10  14
ATOM     14  C   UNL     1      22.750   3.319  22.413  0.00  0.00    -0.030 A 
ATOM     19  C   UNL     1      23.251   2.383  23.317  0.00  0.00    +0.005 A 
ATOM     20  C   UNL     1      23.079   3.226  21.060  0.00  0.00    +0.005 A 
ATOM     22  C   UNL     1      24.081   1.353  22.870  0.00  0.00    +0.000 A 
ATOM     23  C   UNL     1      23.908   2.197  20.613  0.00  0.00    +0.000 A 
ATOM     24  C   UNL     1      24.409   1.262  21.518  0.00  0.00    +0.000 A 
ENDBRANCH  10  14
ENDBRANCH   5  10
TORSDOF 6
ENDMDL
MODEL 7
REMARK VINA RESULT:      -6.5     27.607     29.680
REMARK  Name = 56774590
REMARK  7 active torsions:
REMARK  status: ('A' for Active; 'I' for Inactive)
REMARK    1  A    between atoms: O_2  and  C_8
REMARK    2  A    between atoms: N_5  and  C_10
REMARK    3  A    between atoms: N_6  and  C_21
REMARK    4  A    between atoms: C_7  and  C_8
REMARK    5  A    between atoms: C_8  and  C_12
REMARK    6  A    between atoms: C_10  and  C_14
REMARK    7  A    between atoms: C_25  and  C_26
REMARK                            x       y       z     vdW  Elec       q    Type
REMARK                         _______ _______ _______ _____ _____    ______ ____
ROOT
ATOM      1  O   UNL     1      -9.024 -13.972  19.035  0.00  0.00    -0.369 OA
ATOM      3  O   UNL     1     -11.598 -12.132  20.776  0.00  0.00    -0.273 OA
ATOM      5  N   UNL     1     -10.081 -11.379  19.180  0.00  0.00    -0.287 N 
ATOM      7  C   UNL     1      -8.881 -11.675  18.388  0.00  0.00    +0.135 C 
ATOM      9  C   UNL     1      -8.921 -13.119  17.901  0.00  0.00    +0.185 C 
ATOM     11  C   UNL     1     -10.699 -12.352  19.962  0.00  0.00    +0.242 C 
ATOM     13  C   UNL     1     -10.256 -13.787  19.696  0.00  0.00    +0.255 C 
ENDROOT
BRANCH   7   8
ATOM      8  C   UNL     1      -7.615 -11.405  19.207  0.00  0.00    +0.167 C 
BRANCH   8  12
ATOM     12  C   UNL     1      -6.435 -11.084  18.325  0.00  0.00    -0.017 A 
ATOM     15  C   UNL     1      -6.580 -10.191  17.264  0.00  0.00    +0.008 A 
ATOM     16  C   UNL     1      -5.199 -11.681  18.570  0.00  0.00    +0.008 A 
ATOM     17  C   UNL     1      -5.488  -9.893  16.448  0.00  0.00    +0.023 A 
ATOM     18  C   UNL     1      -4.106 -11.384  17.755  0.00  0.00    +0.023 A 
ATOM     21  C   UNL     1      -4.251 -10.490  16.694  0.00  0.00    +0.033 A 
BRANCH  21   6
ATOM      4  O   UNL     1      -3.505 -11.533  13.969  0.00  0.00    -0.276 OA
ATOM      6  N   UNL     1      -3.158 -10.193  15.878  0.00  0.00    -0.286 N 
ATOM     25  C   UNL     1      -2.859 -10.713  14.612  0.00  0.00    +0.214 C 
ATOM     26  C   UNL     1      -1.580 -10.134  14.059  0.00  0.00    +0.109 C 
ATOM     28  H   UNL     1      -2.504  -9.514  16.259  0.00  0.00    +0.155 HD
ENDBRANCH  21   6
ENDBRANCH   8  12
BRANCH   8   2
ATOM      2  O   UNL     1      -7.852 -10.317  20.095  0.00  0.00    -0.385 OA
ATOM     27  H   UNL     1      -7.055  -9.764  20.144  0.00  0.00    +0.210 HD
ENDBRANCH   8   2
ENDBRANCH   7   8
BRANCH   5  10
ATOM     10  C   UNL     1     -10.502  -9.988  19.269  0.00  0.00    +0.143 C 
BRANCH  10  14
ATOM     14  C   UNL     1     -10.636  -9.353  17.915  0.00  0.00    -0.030 A 
ATOM     19  C   UNL     1     -11.655  -9.758  17.052  0.00  0.00    +0.005 A 
ATOM     20  C   UNL     1      -9.742  -8.359  17.519  0.00  0.00    +0.005 A 
ATOM     22  C   UNL     1     -11.780  -9.168  15.794  0.00  0.00    +0.000 A 
ATOM     23  C   UNL     1      -9.866  -7.769  16.262  0.00  0.00    +0.000 A 
ATOM     24  C   UNL     1     -10.885  -8.174  15.399  0.00  0.00    +0.000 A 
ENDBRANCH  10  14
ENDBRANCH   5  10
TORSDOF 6
ENDMDL
MODEL 8
REMARK VINA RESULT:      -6.4     13.908     17.269
REMARK  Name = 56774590
REMARK  7 active torsions:
REMARK  status: ('A' for Active; 'I' for Inactive)
REMARK    1  A    between atoms: O_2  and  C_8
REMARK    2  A    between atoms: N_5  and  C_10
REMARK    3  A    between atoms: N_6  and  C_21
REMARK    4  A    between atoms: C_7  and  C_8
REMARK    5  A    between atoms: C_8  and  C_12
REMARK    6  A    between atoms: C_10  and  C_14
REMARK    7  A    between atoms: C_25  and  C_26
REMARK                            x       y       z     vdW  Elec       q    Type
REMARK                         _______ _______ _______ _____ _____    ______ ____
ROOT
ATOM      1  O   UNL     1       8.081   7.713   7.339  0.00  0.00    -0.369 OA
ATOM      3  O   UNL     1      10.806   5.780   8.712  0.00  0.00    -0.273 OA
ATOM      5  N   UNL     1      10.660   6.854   6.652  0.00  0.00    -0.287 N 
ATOM      7  C   UNL     1       9.802   7.552   5.688  0.00  0.00    +0.135 C 
ATOM      9  C   UNL     1       8.846   8.485   6.422  0.00  0.00    +0.185 C 
ATOM     11  C   UNL     1      10.203   6.510   7.923  0.00  0.00    +0.242 C 
ATOM     13  C   UNL     1       8.901   7.176   8.353  0.00  0.00    +0.255 C 
ENDROOT
BRANCH   7   8
ATOM      8  C   UNL     1       9.037   6.548   4.821  0.00  0.00    +0.167 C 
BRANCH   8  12
ATOM     12  C   UNL     1       9.887   6.016   3.696  0.00  0.00    -0.017 A 
ATOM     15  C   UNL     1      10.398   4.720   3.760  0.00  0.00    +0.008 A 
ATOM     16  C   UNL     1      10.162   6.820   2.590  0.00  0.00    +0.008 A 
ATOM     17  C   UNL     1      11.184   4.227   2.719  0.00  0.00    +0.023 A 
ATOM     18  C   UNL     1      10.948   6.328   1.548  0.00  0.00    +0.023 A 
ATOM     21  C   UNL     1      11.459   5.032   1.613  0.00  0.00    +0.033 A 
BRANCH  21   6
ATOM      4  O   UNL     1      10.669   3.763  -1.002  0.00  0.00    -0.276 OA
ATOM      6  N   UNL     1      12.246   4.539   0.570  0.00  0.00    -0.286 N 
ATOM     25  C   UNL     1      11.822   3.953  -0.630  0.00  0.00    +0.214 C 
ATOM     26  C   UNL     1      12.989   3.551  -1.497  0.00  0.00    +0.109 C 
ATOM     28  H   UNL     1      13.251   4.619   0.710  0.00  0.00    +0.155 HD
ENDBRANCH  21   6
ENDBRANCH   8  12
BRANCH   8   2
ATOM      2  O   UNL     1       8.594   5.466   5.635  0.00  0.00    -0.385 OA
ATOM     27  H   UNL     1       9.365   4.955   5.934  0.00  0.00    +0.210 HD
ENDBRANCH   8   2
ENDBRANCH   7   8
BRANCH   5  10
ATOM     10  C   UNL     1      11.948   6.365   6.177  0.00  0.00    +0.143 C 
BRANCH  10  14
ATOM     14  C   UNL     1      12.869   7.488   5.797  0.00  0.00    -0.030 A 
ATOM     19  C   UNL     1      13.275   7.641   4.472  0.00  0.00    +0.005 A 
ATOM     20  C   UNL     1      13.321   8.379   6.771  0.00  0.00    +0.005 A 
ATOM     22  C   UNL     1      14.131   8.685   4.119  0.00  0.00    +0.000 A 
ATOM     23  C   UNL     1      14.177   9.422   6.420  0.00  0.00    +0.000 A 
ATOM     24  C   UNL     1      14.582   9.575   5.093  0.00  0.00    +0.000 A 
ENDBRANCH  10  14
ENDBRANCH   5  10
TORSDOF 6
ENDMDL
MODEL 9
REMARK VINA RESULT:      -6.1     20.341     21.916
REMARK  Name = 56774590
REMARK  7 active torsions:
REMARK  status: ('A' for Active; 'I' for Inactive)
REMARK    1  A    between atoms: O_2  and  C_8
REMARK    2  A    between atoms: N_5  and  C_10
REMARK    3  A    between atoms: N_6  and  C_21
REMARK    4  A    between atoms: C_7  and  C_8
REMARK    5  A    between atoms: C_8  and  C_12
REMARK    6  A    between atoms: C_10  and  C_14
REMARK    7  A    between atoms: C_25  and  C_26
REMARK                            x       y       z     vdW  Elec       q    Type
REMARK                         _______ _______ _______ _____ _____    ______ ____
ROOT
ATOM      1  O   UNL     1       7.101  -4.683  35.346  0.00  0.00    -0.369 OA
ATOM      3  O   UNL     1      10.004  -6.478  36.527  0.00  0.00    -0.273 OA
ATOM      5  N   UNL     1       8.990  -6.543  34.433  0.00  0.00    -0.287 N 
ATOM      7  C   UNL     1       7.833  -6.159  33.615  0.00  0.00    +0.135 C 
ATOM      9  C   UNL     1       7.401  -4.738  33.957  0.00  0.00    +0.185 C 
ATOM     11  C   UNL     1       9.157  -6.066  35.732  0.00  0.00    +0.242 C 
ATOM     13  C   UNL     1       8.259  -4.898  36.122  0.00  0.00    +0.255 C 
ENDROOT
BRANCH   7   8
ATOM      8  C   UNL     1       6.681  -7.149  33.813  0.00  0.00    +0.167 C 
BRANCH   8  12
ATOM     12  C   UNL     1       6.742  -8.286  32.825  0.00  0.00    -0.017 A 
ATOM     15  C   UNL     1       6.745  -9.605  33.279  0.00  0.00    +0.008 A 
ATOM     16  C   UNL     1       6.796  -8.019  31.457  0.00  0.00    +0.008 A 
ATOM     17  C   UNL     1       6.801 -10.657  32.365  0.00  0.00    +0.023 A 
ATOM     18  C   UNL     1       6.851  -9.070  30.542  0.00  0.00    +0.023 A 
ATOM     21  C   UNL     1       6.854 -10.390  30.997  0.00  0.00    +0.033 A 
BRANCH  21   6
ATOM      4  O   UNL     1       9.198 -12.006  30.018  0.00  0.00    -0.276 OA
ATOM      6  N   UNL     1       6.910 -11.442  30.082  0.00  0.00    -0.286 N 
ATOM     25  C   UNL     1       8.036 -12.161  29.659  0.00  0.00    +0.214 C 
ATOM     26  C   UNL     1       7.673 -13.227  28.655  0.00  0.00    +0.109 C 
ATOM     28  H   UNL     1       6.017 -11.713  29.676  0.00  0.00    +0.155 HD
ENDBRANCH  21   6
ENDBRANCH   8  12
BRANCH   8   2
ATOM      2  O   UNL     1       6.729  -7.668  35.138  0.00  0.00    -0.385 OA
ATOM     27  H   UNL     1       6.044  -7.237  35.676  0.00  0.00    +0.210 HD
ENDBRANCH   8   2
ENDBRANCH   7   8
BRANCH   5  10
ATOM     10  C   UNL     1       9.867  -7.584  33.914  0.00  0.00    +0.143 C 
BRANCH  10  14
ATOM     14  C   UNL     1      10.822  -7.052  32.884  0.00  0.00    -0.030 A 
ATOM     19  C   UNL     1      11.445  -5.820  33.080  0.00  0.00    +0.005 A 
ATOM     20  C   UNL     1      11.086  -7.792  31.731  0.00  0.00    +0.005 A 
ATOM     22  C   UNL     1      12.333  -5.327  32.123  0.00  0.00    +0.000 A 
ATOM     23  C   UNL     1      11.973  -7.299  30.775  0.00  0.00    +0.000 A 
ATOM     24  C   UNL     1      12.596  -6.066  30.971  0.00  0.00    +0.000 A 
ENDBRANCH  10  14
ENDBRANCH   5  10
TORSDOF 6
ENDMDL
MODEL 10
REMARK VINA RESULT:      -6.1     26.708     28.815
REMARK  Name = 56774590
REMARK  7 active torsions:
REMARK  status: ('A' for Active; 'I' for Inactive)
REMARK    1  A    between atoms: O_2  and  C_8
REMARK    2  A    between atoms: N_5  and  C_10
REMARK    3  A    between atoms: N_6  and  C_21
REMARK    4  A    between atoms: C_7  and  C_8
REMARK    5  A    between atoms: C_8  and  C_12
REMARK    6  A    between atoms: C_10  and  C_14
REMARK    7  A    between atoms: C_25  and  C_26
REMARK                            x       y       z     vdW  Elec       q    Type
REMARK                         _______ _______ _______ _____ _____    ______ ____
ROOT
ATOM      1  O   UNL     1      -3.522 -13.854  10.924  0.00  0.00    -0.369 OA
ATOM      3  O   UNL     1      -1.209 -14.606  13.594  0.00  0.00    -0.273 OA
ATOM      5  N   UNL     1      -2.685 -12.818  13.391  0.00  0.00    -0.287 N 
ATOM      7  C   UNL     1      -3.610 -12.080  12.523  0.00  0.00    +0.135 C 
ATOM      9  C   UNL     1      -4.423 -13.054  11.679  0.00  0.00    +0.185 C 
ATOM     11  C   UNL     1      -2.116 -14.026  12.993  0.00  0.00    +0.242 C 
ATOM     13  C   UNL     1      -2.748 -14.677  11.768  0.00  0.00    +0.255 C 
ENDROOT
BRANCH   7   8
ATOM      8  C   UNL     1      -2.844 -11.091  11.639  0.00  0.00    +0.167 C 
BRANCH   8  12
ATOM     12  C   UNL     1      -3.774 -10.156  10.909  0.00  0.00    -0.017 A 
ATOM     15  C   UNL     1      -4.756  -9.458  11.612  0.00  0.00    +0.008 A 
ATOM     16  C   UNL     1      -3.652  -9.987   9.529  0.00  0.00    +0.008 A 
ATOM     17  C   UNL     1      -5.616  -8.592  10.937  0.00  0.00    +0.023 A 
ATOM     18  C   UNL     1      -4.512  -9.122   8.853  0.00  0.00    +0.023 A 
ATOM     21  C   UNL     1      -5.494  -8.424   9.557  0.00  0.00    +0.033 A 
BRANCH  21   6
ATOM      4  O   UNL     1      -8.444  -8.644   8.994  0.00  0.00    -0.276 OA
ATOM      6  N   UNL     1      -6.354  -7.558   8.881  0.00  0.00    -0.286 N 
ATOM     25  C   UNL     1      -7.727  -7.712   8.645  0.00  0.00    +0.214 C 
ATOM     26  C   UNL     1      -8.296  -6.548   7.873  0.00  0.00    +0.109 C 
ATOM     28  H   UNL     1      -5.921  -6.712   8.517  0.00  0.00    +0.155 HD
ENDBRANCH  21   6
ENDBRANCH   8  12
BRANCH   8   2
ATOM      2  O   UNL     1      -1.947 -10.334  12.446  0.00  0.00    -0.385 OA
ATOM     27  H   UNL     1      -2.425  -9.583  12.838  0.00  0.00    +0.210 HD
ENDBRANCH   8   2
ENDBRANCH   7   8
BRANCH   5  10
ATOM     10  C   UNL     1      -2.236 -12.160  14.611  0.00  0.00    +0.143 C 
BRANCH  10  14
ATOM     14  C   UNL     1      -3.381 -11.817  15.519  0.00  0.00    -0.030 A 
ATOM     19  C   UNL     1      -3.484 -10.535  16.059  0.00  0.00    +0.005 A 
ATOM     20  C   UNL     1      -4.343 -12.780  15.822  0.00  0.00    +0.005 A 
ATOM     22  C   UNL     1      -4.550 -10.216  16.902  0.00  0.00    +0.000 A 
ATOM     23  C   UNL     1      -5.408 -12.462  16.665  0.00  0.00    +0.000 A 
ATOM     24  C   UNL     1      -5.510 -11.179  17.205  0.00  0.00    +0.000 A 
ENDBRANCH  10  14
ENDBRANCH   5  10
TORSDOF 6
ENDMDL
