MODEL 1
REMARK VINA RESULT:      -6.3      0.000      0.000
REMARK  Name = 51136687
REMARK  8 active torsions:
REMARK  status: ('A' for Active; 'I' for Inactive)
REMARK    1  A    between atoms: O_2  and  C_16
REMARK    2  A    between atoms: O_4  and  C_30
REMARK    3  A    between atoms: O_4  and  C_31
REMARK    4  A    between atoms: C_7  and  C_12
REMARK    5  A    between atoms: C_8  and  C_13
REMARK    6  A    between atoms: C_12  and  C_14
REMARK    7  A    between atoms: C_13  and  C_16
REMARK    8  A    between atoms: C_15  and  C_21
REMARK                            x       y       z     vdW  Elec       q    Type
REMARK                         _______ _______ _______ _____ _____    ______ ____
ROOT
ATOM      1  O   UNL     1      16.939   5.624  18.213  0.00  0.00    -0.270 OA
ATOM      5  N   UNL     1      17.399   6.483  20.340  0.00  0.00    -0.297 N 
ATOM      7  C   UNL     1      17.876   8.424  21.817  0.00  0.00    +0.016 C 
ATOM      8  C   UNL     1      19.365   7.993  21.837  0.00  0.00    +0.006 C 
ATOM      9  C   UNL     1      19.743   7.207  20.571  0.00  0.00    +0.023 C 
ATOM     10  C   UNL     1      16.979   7.200  21.553  0.00  0.00    +0.112 C 
ATOM     11  C   UNL     1      18.790   6.036  20.342  0.00  0.00    +0.108 C 
ATOM     15  C   UNL     1      16.591   6.218  19.232  0.00  0.00    +0.247 C 
ENDROOT
BRANCH  15  21
ATOM     21  C   UNL     1      15.200   6.683  19.266  0.00  0.00    +0.037 A 
ATOM     24  C   UNL     1      14.617   7.226  18.121  0.00  0.00    +0.016 A 
ATOM     25  C   UNL     1      14.461   6.584  20.445  0.00  0.00    +0.016 A 
ATOM     28  C   UNL     1      13.295   7.670  18.155  0.00  0.00    +0.046 A 
ATOM     29  C   UNL     1      13.139   7.028  20.479  0.00  0.00    +0.046 A 
ATOM     30  C   UNL     1      12.556   7.571  19.334  0.00  0.00    +0.120 A 
BRANCH  30   4
ATOM      4  O   UNL     1      11.266   8.004  19.367  0.00  0.00    -0.495 OA
ATOM     31  C   UNL     1      10.756   8.430  20.629  0.00  0.00    +0.277 C 
ENDBRANCH  30   4
ENDBRANCH  15  21
BRANCH   7  12
ATOM     12  C   UNL     1      17.563   9.540  20.814  0.00  0.00    +0.061 C 
BRANCH  12  14
ATOM      6  N   UNL     1      15.999  10.389  22.426  0.00  0.00    -0.287 NA
ATOM     14  C   UNL     1      16.255  10.203  21.174  0.00  0.00    +0.044 C 
ATOM     17  C   UNL     1      15.329  10.599  20.082  0.00  0.00    -0.001 A 
ATOM     18  C   UNL     1      13.997  10.842  20.440  0.00  0.00    -0.037 A 
ATOM     19  C   UNL     1      13.596  10.675  21.876  0.00  0.00    +0.059 C 
ATOM     20  C   UNL     1      14.756  11.086  22.774  0.00  0.00    +0.146 C 
ATOM     22  C   UNL     1      15.738  10.715  18.751  0.00  0.00    +0.010 A 
ATOM     23  C   UNL     1      13.067  11.179  19.453  0.00  0.00    +0.004 A 
ATOM     26  C   UNL     1      14.805  11.068  17.775  0.00  0.00    +0.001 A 
ATOM     27  C   UNL     1      13.473  11.296  18.123  0.00  0.00    +0.000 A 
ENDBRANCH  12  14
ENDBRANCH   7  12
BRANCH   8  13
ATOM     13  C   UNL     1      20.325   9.162  22.053  0.00  0.00    +0.124 C 
BRANCH  13  16
ATOM      3  O   UNL     1      19.727  11.061  23.459  0.00  0.00    -0.251 OA
ATOM     16  C   UNL     1      20.038   9.886  23.339  0.00  0.00    +0.305 C 
BRANCH  16   2
ATOM      2  O   UNL     1      20.176   9.032  24.386  0.00  0.00    -0.481 OA
ATOM     32  H   UNL     1      21.046   8.578  24.375  0.00  0.00    +0.295 HD
ENDBRANCH  16   2
ENDBRANCH  13  16
ENDBRANCH   8  13
TORSDOF 7
ENDMDL
MODEL 2
REMARK VINA RESULT:      -6.2      2.931      5.601
REMARK  Name = 51136687
REMARK  8 active torsions:
REMARK  status: ('A' for Active; 'I' for Inactive)
REMARK    1  A    between atoms: O_2  and  C_16
REMARK    2  A    between atoms: O_4  and  C_30
REMARK    3  A    between atoms: O_4  and  C_31
REMARK    4  A    between atoms: C_7  and  C_12
REMARK    5  A    between atoms: C_8  and  C_13
REMARK    6  A    between atoms: C_12  and  C_14
REMARK    7  A    between atoms: C_13  and  C_16
REMARK    8  A    between atoms: C_15  and  C_21
REMARK                            x       y       z     vdW  Elec       q    Type
REMARK                         _______ _______ _______ _____ _____    ______ ____
ROOT
ATOM      1  O   UNL     1      10.104   8.264  22.052  0.00  0.00    -0.270 OA
ATOM      5  N   UNL     1      12.440   8.194  21.935  0.00  0.00    -0.297 N 
ATOM      7  C   UNL     1      14.548   8.722  20.729  0.00  0.00    +0.016 C 
ATOM      8  C   UNL     1      14.636   7.232  20.310  0.00  0.00    +0.006 C 
ATOM      9  C   UNL     1      13.246   6.576  20.261  0.00  0.00    +0.023 C 
ATOM     10  C   UNL     1      13.750   8.852  22.040  0.00  0.00    +0.112 C 
ATOM     11  C   UNL     1      12.491   6.780  21.572  0.00  0.00    +0.108 C 
ATOM     15  C   UNL     1      11.202   8.809  22.144  0.00  0.00    +0.247 C 
ENDROOT
BRANCH  15  21
ATOM     21  C   UNL     1      11.191  10.230  22.506  0.00  0.00    +0.037 A 
ATOM     24  C   UNL     1      11.006  10.610  23.836  0.00  0.00    +0.016 A 
ATOM     25  C   UNL     1      11.364  11.202  21.521  0.00  0.00    +0.016 A 
ATOM     28  C   UNL     1      10.993  11.962  24.179  0.00  0.00    +0.046 A 
ATOM     29  C   UNL     1      11.351  12.554  21.864  0.00  0.00    +0.046 A 
ATOM     30  C   UNL     1      11.166  12.934  23.193  0.00  0.00    +0.120 A 
BRANCH  30   4
ATOM      4  O   UNL     1      11.153  14.253  23.530  0.00  0.00    -0.495 OA
ATOM     31  C   UNL     1      10.256  14.650  24.565  0.00  0.00    +0.277 C 
ENDBRANCH  30   4
ENDBRANCH  15  21
BRANCH   7  12
ATOM     12  C   UNL     1      13.956   9.638  19.652  0.00  0.00    +0.061 C 
BRANCH  12  14
ATOM      6  N   UNL     1      15.806  11.114  20.057  0.00  0.00    -0.287 NA
ATOM     14  C   UNL     1      15.004  10.615  19.176  0.00  0.00    +0.044 C 
ATOM     17  C   UNL     1      15.058  10.960  17.732  0.00  0.00    -0.001 A 
ATOM     18  C   UNL     1      15.754  12.126  17.387  0.00  0.00    -0.037 A 
ATOM     19  C   UNL     1      16.375  12.944  18.480  0.00  0.00    +0.059 C 
ATOM     20  C   UNL     1      16.862  12.017  19.587  0.00  0.00    +0.146 C 
ATOM     22  C   UNL     1      14.440  10.186  16.748  0.00  0.00    +0.010 A 
ATOM     23  C   UNL     1      15.807  12.527  16.049  0.00  0.00    +0.004 A 
ATOM     26  C   UNL     1      14.513  10.587  15.412  0.00  0.00    +0.001 A 
ATOM     27  C   UNL     1      15.191  11.755  15.064  0.00  0.00    +0.000 A 
ENDBRANCH  12  14
ENDBRANCH   7  12
BRANCH   8  13
ATOM     13  C   UNL     1      15.378   7.022  18.992  0.00  0.00    +0.124 C 
BRANCH  13  16
ATOM      3  O   UNL     1      17.431   6.345  20.119  0.00  0.00    -0.251 OA
ATOM     16  C   UNL     1      16.648   6.239  19.188  0.00  0.00    +0.305 C 
BRANCH  16   2
ATOM      2  O   UNL     1      16.812   5.368  18.158  0.00  0.00    -0.481 OA
ATOM     32  H   UNL     1      16.042   4.770  18.058  0.00  0.00    +0.295 HD
ENDBRANCH  16   2
ENDBRANCH  13  16
ENDBRANCH   8  13
TORSDOF 7
ENDMDL
MODEL 3
REMARK VINA RESULT:      -6.1     27.008     29.853
REMARK  Name = 51136687
REMARK  8 active torsions:
REMARK  status: ('A' for Active; 'I' for Inactive)
REMARK    1  A    between atoms: O_2  and  C_16
REMARK    2  A    between atoms: O_4  and  C_30
REMARK    3  A    between atoms: O_4  and  C_31
REMARK    4  A    between atoms: C_7  and  C_12
REMARK    5  A    between atoms: C_8  and  C_13
REMARK    6  A    between atoms: C_12  and  C_14
REMARK    7  A    between atoms: C_13  and  C_16
REMARK    8  A    between atoms: C_15  and  C_21
REMARK                            x       y       z     vdW  Elec       q    Type
REMARK                         _______ _______ _______ _____ _____    ______ ____
ROOT
ATOM      1  O   UNL     1      -1.138  -9.520  12.570  0.00  0.00    -0.270 OA
ATOM      5  N   UNL     1      -2.168 -11.180  13.858  0.00  0.00    -0.297 N 
ATOM      7  C   UNL     1      -4.120 -11.980  15.172  0.00  0.00    +0.016 C 
ATOM      8  C   UNL     1      -3.318 -11.688  16.467  0.00  0.00    +0.006 C 
ATOM      9  C   UNL     1      -2.271 -10.584  16.246  0.00  0.00    +0.023 C 
ATOM     10  C   UNL     1      -3.151 -12.262  14.008  0.00  0.00    +0.112 C 
ATOM     11  C   UNL     1      -1.374 -10.902  15.053  0.00  0.00    +0.108 C 
ATOM     15  C   UNL     1      -1.956 -10.429  12.699  0.00  0.00    +0.247 C 
ENDROOT
BRANCH  15  21
ATOM     21  C   UNL     1      -2.772 -10.737  11.519  0.00  0.00    +0.037 A 
ATOM     24  C   UNL     1      -3.099  -9.727  10.614  0.00  0.00    +0.016 A 
ATOM     25  C   UNL     1      -3.224 -12.039  11.305  0.00  0.00    +0.016 A 
ATOM     28  C   UNL     1      -3.877 -10.020   9.494  0.00  0.00    +0.046 A 
ATOM     29  C   UNL     1      -4.002 -12.332  10.185  0.00  0.00    +0.046 A 
ATOM     30  C   UNL     1      -4.329 -11.322   9.279  0.00  0.00    +0.120 A 
BRANCH  30   4
ATOM      4  O   UNL     1      -5.088 -11.607   8.186  0.00  0.00    -0.495 OA
ATOM     31  C   UNL     1      -5.325 -10.543   7.265  0.00  0.00    +0.277 C 
ENDBRANCH  30   4
ENDBRANCH  15  21
BRANCH   7  12
ATOM     12  C   UNL     1      -5.106 -10.872  14.787  0.00  0.00    +0.061 C 
BRANCH  12  14
ATOM      6  N   UNL     1      -6.752 -12.552  14.303  0.00  0.00    -0.287 NA
ATOM     14  C   UNL     1      -6.209 -11.442  13.927  0.00  0.00    +0.044 C 
ATOM     17  C   UNL     1      -6.609 -10.710  12.698  0.00  0.00    -0.001 A 
ATOM     18  C   UNL     1      -7.332 -11.432  11.740  0.00  0.00    -0.037 A 
ATOM     19  C   UNL     1      -7.638 -12.877  12.007  0.00  0.00    +0.059 C 
ATOM     20  C   UNL     1      -7.863 -13.075  13.501  0.00  0.00    +0.146 C 
ATOM     22  C   UNL     1      -6.279  -9.371  12.475  0.00  0.00    +0.010 A 
ATOM     23  C   UNL     1      -7.703 -10.813  10.544  0.00  0.00    +0.004 A 
ATOM     26  C   UNL     1      -6.668  -8.757  11.284  0.00  0.00    +0.001 A 
ATOM     27  C   UNL     1      -7.375  -9.476  10.320  0.00  0.00    +0.000 A 
ENDBRANCH  12  14
ENDBRANCH   7  12
BRANCH   8  13
ATOM     13  C   UNL     1      -4.210 -11.355  17.662  0.00  0.00    +0.124 C 
BRANCH  13  16
ATOM      3  O   UNL     1      -3.469 -12.066  19.872  0.00  0.00    -0.251 OA
ATOM     16  C   UNL     1      -3.995 -12.316  18.799  0.00  0.00    +0.305 C 
BRANCH  16   2
ATOM      2  O   UNL     1      -4.480 -13.539  18.462  0.00  0.00    -0.481 OA
ATOM     32  H   UNL     1      -3.894 -14.262  18.772  0.00  0.00    +0.295 HD
ENDBRANCH  16   2
ENDBRANCH  13  16
ENDBRANCH   8  13
TORSDOF 7
ENDMDL
MODEL 4
REMARK VINA RESULT:      -6.0     27.306     30.036
REMARK  Name = 51136687
REMARK  8 active torsions:
REMARK  status: ('A' for Active; 'I' for Inactive)
REMARK    1  A    between atoms: O_2  and  C_16
REMARK    2  A    between atoms: O_4  and  C_30
REMARK    3  A    between atoms: O_4  and  C_31
REMARK    4  A    between atoms: C_7  and  C_12
REMARK    5  A    between atoms: C_8  and  C_13
REMARK    6  A    between atoms: C_12  and  C_14
REMARK    7  A    between atoms: C_13  and  C_16
REMARK    8  A    between atoms: C_15  and  C_21
REMARK                            x       y       z     vdW  Elec       q    Type
REMARK                         _______ _______ _______ _____ _____    ______ ____
ROOT
ATOM      1  O   UNL     1      -8.786 -10.878  12.903  0.00  0.00    -0.270 OA
ATOM      5  N   UNL     1      -7.693 -10.193  14.855  0.00  0.00    -0.297 N 
ATOM      7  C   UNL     1      -6.092 -10.659  16.698  0.00  0.00    +0.016 C 
ATOM      8  C   UNL     1      -7.303 -10.887  17.640  0.00  0.00    +0.006 C 
ATOM      9  C   UNL     1      -8.547 -11.343  16.860  0.00  0.00    +0.023 C 
ATOM     10  C   UNL     1      -6.491  -9.712  15.551  0.00  0.00    +0.112 C 
ATOM     11  C   UNL     1      -8.861 -10.388  15.711  0.00  0.00    +0.108 C 
ATOM     15  C   UNL     1      -7.785 -10.470  13.489  0.00  0.00    +0.247 C 
ENDROOT
BRANCH  15  21
ATOM     21  C   UNL     1      -6.590 -10.263  12.662  0.00  0.00    +0.037 A 
ATOM     24  C   UNL     1      -5.669 -11.297  12.496  0.00  0.00    +0.016 A 
ATOM     25  C   UNL     1      -6.376  -9.031  12.043  0.00  0.00    +0.016 A 
ATOM     28  C   UNL     1      -4.533 -11.099  11.711  0.00  0.00    +0.046 A 
ATOM     29  C   UNL     1      -5.240  -8.833  11.259  0.00  0.00    +0.046 A 
ATOM     30  C   UNL     1      -4.318  -9.867  11.093  0.00  0.00    +0.120 A 
BRANCH  30   4
ATOM      4  O   UNL     1      -3.209  -9.675  10.328  0.00  0.00    -0.495 OA
ATOM     31  C   UNL     1      -1.960  -9.566  11.010  0.00  0.00    +0.277 C 
ENDBRANCH  30   4
ENDBRANCH  15  21
BRANCH   7  12
ATOM     12  C   UNL     1      -5.488 -11.951  16.137  0.00  0.00    +0.061 C 
BRANCH  12  14
ATOM      6  N   UNL     1      -3.410 -10.805  16.506  0.00  0.00    -0.287 NA
ATOM     14  C   UNL     1      -4.014 -11.757  15.875  0.00  0.00    +0.044 C 
ATOM     17  C   UNL     1      -3.335 -12.655  14.906  0.00  0.00    -0.001 A 
ATOM     18  C   UNL     1      -2.103 -12.222  14.398  0.00  0.00    -0.037 A 
ATOM     19  C   UNL     1      -1.567 -10.894  14.847  0.00  0.00    +0.059 C 
ATOM     20  C   UNL     1      -1.966 -10.654  16.297  0.00  0.00    +0.146 C 
ATOM     22  C   UNL     1      -3.883 -13.872  14.493  0.00  0.00    +0.010 A 
ATOM     23  C   UNL     1      -1.433 -13.003  13.453  0.00  0.00    +0.004 A 
ATOM     26  C   UNL     1      -3.197 -14.652  13.560  0.00  0.00    +0.001 A 
ATOM     27  C   UNL     1      -1.978 -14.218  13.039  0.00  0.00    +0.000 A 
ENDBRANCH  12  14
ENDBRANCH   7  12
BRANCH   8  13
ATOM     13  C   UNL     1      -7.000 -11.853  18.784  0.00  0.00    +0.124 C 
BRANCH  13  16
ATOM      3  O   UNL     1      -5.659 -11.622  20.806  0.00  0.00    -0.251 OA
ATOM     16  C   UNL     1      -6.405 -11.141  19.968  0.00  0.00    +0.305 C 
BRANCH  16   2
ATOM      2  O   UNL     1      -6.823  -9.848  19.983  0.00  0.00    -0.481 OA
ATOM     32  H   UNL     1      -6.380  -9.313  19.291  0.00  0.00    +0.295 HD
ENDBRANCH  16   2
ENDBRANCH  13  16
ENDBRANCH   8  13
TORSDOF 7
ENDMDL
MODEL 5
REMARK VINA RESULT:      -5.9     27.385     29.848
REMARK  Name = 51136687
REMARK  8 active torsions:
REMARK  status: ('A' for Active; 'I' for Inactive)
REMARK    1  A    between atoms: O_2  and  C_16
REMARK    2  A    between atoms: O_4  and  C_30
REMARK    3  A    between atoms: O_4  and  C_31
REMARK    4  A    between atoms: C_7  and  C_12
REMARK    5  A    between atoms: C_8  and  C_13
REMARK    6  A    between atoms: C_12  and  C_14
REMARK    7  A    between atoms: C_13  and  C_16
REMARK    8  A    between atoms: C_15  and  C_21
REMARK                            x       y       z     vdW  Elec       q    Type
REMARK                         _______ _______ _______ _____ _____    ______ ____
ROOT
ATOM      1  O   UNL     1      -1.346  -9.934  12.386  0.00  0.00    -0.270 OA
ATOM      5  N   UNL     1      -2.683 -11.273  13.762  0.00  0.00    -0.297 N 
ATOM      7  C   UNL     1      -4.648 -11.523  15.263  0.00  0.00    +0.016 C 
ATOM      8  C   UNL     1      -3.677 -11.519  16.472  0.00  0.00    +0.006 C 
ATOM      9  C   UNL     1      -2.380 -10.755  16.152  0.00  0.00    +0.023 C 
ATOM     10  C   UNL     1      -3.918 -12.031  14.006  0.00  0.00    +0.112 C 
ATOM     11  C   UNL     1      -1.733 -11.276  14.872  0.00  0.00    +0.108 C 
ATOM     15  C   UNL     1      -2.375 -10.575  12.592  0.00  0.00    +0.247 C 
ENDROOT
BRANCH  15  21
ATOM     21  C   UNL     1      -3.355 -10.594  11.500  0.00  0.00    +0.037 A 
ATOM     24  C   UNL     1      -3.351 -11.641  10.578  0.00  0.00    +0.016 A 
ATOM     25  C   UNL     1      -4.288  -9.564  11.382  0.00  0.00    +0.016 A 
ATOM     28  C   UNL     1      -4.281 -11.658   9.538  0.00  0.00    +0.046 A 
ATOM     29  C   UNL     1      -5.218  -9.581  10.343  0.00  0.00    +0.046 A 
ATOM     30  C   UNL     1      -5.215 -10.628   9.421  0.00  0.00    +0.120 A 
BRANCH  30   4
ATOM      4  O   UNL     1      -6.122 -10.645   8.406  0.00  0.00    -0.495 OA
ATOM     31  C   UNL     1      -5.803  -9.893   7.237  0.00  0.00    +0.277 C 
ENDBRANCH  30   4
ENDBRANCH  15  21
BRANCH   7  12
ATOM     12  C   UNL     1      -5.304 -10.166  14.986  0.00  0.00    +0.061 C 
BRANCH  12  14
ATOM      6  N   UNL     1      -6.978 -10.976  13.468  0.00  0.00    -0.287 NA
ATOM     14  C   UNL     1      -6.745 -10.365  14.581  0.00  0.00    +0.044 C 
ATOM     17  C   UNL     1      -7.817  -9.847  15.470  0.00  0.00    -0.001 A 
ATOM     18  C   UNL     1      -9.089  -9.697  14.903  0.00  0.00    -0.037 A 
ATOM     19  C   UNL     1      -9.279 -10.048  13.457  0.00  0.00    +0.059 C 
ATOM     20  C   UNL     1      -8.377 -11.223  13.102  0.00  0.00    +0.146 C 
ATOM     22  C   UNL     1      -7.590  -9.504  16.804  0.00  0.00    +0.010 A 
ATOM     23  C   UNL     1     -10.131  -9.176  15.675  0.00  0.00    +0.004 A 
ATOM     26  C   UNL     1      -8.641  -8.999  17.572  0.00  0.00    +0.001 A 
ATOM     27  C   UNL     1      -9.907  -8.833  17.009  0.00  0.00    +0.000 A 
ENDBRANCH  12  14
ENDBRANCH   7  12
BRANCH   8  13
ATOM     13  C   UNL     1      -4.315 -10.985  17.753  0.00  0.00    +0.124 C 
BRANCH  13  16
ATOM      3  O   UNL     1      -3.469 -12.057  19.772  0.00  0.00    -0.251 OA
ATOM     16  C   UNL     1      -4.277 -12.005  18.858  0.00  0.00    +0.305 C 
BRANCH  16   2
ATOM      2  O   UNL     1      -5.295 -12.890  18.698  0.00  0.00    -0.481 OA
ATOM     32  H   UNL     1      -5.862 -12.661  17.932  0.00  0.00    +0.295 HD
ENDBRANCH  16   2
ENDBRANCH  13  16
ENDBRANCH   8  13
TORSDOF 7
ENDMDL
MODEL 6
REMARK VINA RESULT:      -5.8      2.802      6.846
REMARK  Name = 51136687
REMARK  8 active torsions:
REMARK  status: ('A' for Active; 'I' for Inactive)
REMARK    1  A    between atoms: O_2  and  C_16
REMARK    2  A    between atoms: O_4  and  C_30
REMARK    3  A    between atoms: O_4  and  C_31
REMARK    4  A    between atoms: C_7  and  C_12
REMARK    5  A    between atoms: C_8  and  C_13
REMARK    6  A    between atoms: C_12  and  C_14
REMARK    7  A    between atoms: C_13  and  C_16
REMARK    8  A    between atoms: C_15  and  C_21
REMARK                            x       y       z     vdW  Elec       q    Type
REMARK                         _______ _______ _______ _____ _____    ______ ____
ROOT
ATOM      1  O   UNL     1      16.432   7.787  21.563  0.00  0.00    -0.270 OA
ATOM      5  N   UNL     1      15.284   8.945  19.885  0.00  0.00    -0.297 N 
ATOM      7  C   UNL     1      13.222  10.072  19.077  0.00  0.00    +0.016 C 
ATOM      8  C   UNL     1      12.930   8.825  18.203  0.00  0.00    +0.006 C 
ATOM      9  C   UNL     1      13.563   7.557  18.799  0.00  0.00    +0.023 C 
ATOM     10  C   UNL     1      14.737  10.191  19.331  0.00  0.00    +0.112 C 
ATOM     11  C   UNL     1      15.052   7.756  19.069  0.00  0.00    +0.108 C 
ATOM     15  C   UNL     1      15.977   8.828  21.093  0.00  0.00    +0.247 C 
ENDROOT
BRANCH  15  21
ATOM     21  C   UNL     1      16.190  10.044  21.886  0.00  0.00    +0.037 A 
ATOM     24  C   UNL     1      15.189  10.503  22.742  0.00  0.00    +0.016 A 
ATOM     25  C   UNL     1      17.393  10.743  21.780  0.00  0.00    +0.016 A 
ATOM     28  C   UNL     1      15.392  11.660  23.494  0.00  0.00    +0.046 A 
ATOM     29  C   UNL     1      17.595  11.900  22.532  0.00  0.00    +0.046 A 
ATOM     30  C   UNL     1      16.594  12.359  23.389  0.00  0.00    +0.120 A 
BRANCH  30   4
ATOM      4  O   UNL     1      16.791  13.488  24.123  0.00  0.00    -0.495 OA
ATOM     31  C   UNL     1      18.136  13.938  24.274  0.00  0.00    +0.277 C 
ENDBRANCH  30   4
ENDBRANCH  15  21
BRANCH   7  12
ATOM     12  C   UNL     1      12.456  10.097  20.404  0.00  0.00    +0.061 C 
BRANCH  12  14
ATOM      6  N   UNL     1      12.369  12.452  19.945  0.00  0.00    -0.287 NA
ATOM     14  C   UNL     1      12.212  11.524  20.830  0.00  0.00    +0.044 C 
ATOM     17  C   UNL     1      11.813  11.794  22.235  0.00  0.00    -0.001 A 
ATOM     18  C   UNL     1      11.971  13.107  22.696  0.00  0.00    -0.037 A 
ATOM     19  C   UNL     1      12.538  14.135  21.760  0.00  0.00    +0.059 C 
ATOM     20  C   UNL     1      12.074  13.833  20.341  0.00  0.00    +0.146 C 
ATOM     22  C   UNL     1      11.316  10.801  23.082  0.00  0.00    +0.010 A 
ATOM     23  C   UNL     1      11.653  13.417  24.021  0.00  0.00    +0.004 A 
ATOM     26  C   UNL     1      10.986  11.124  24.399  0.00  0.00    +0.001 A 
ATOM     27  C   UNL     1      11.156  12.427  24.868  0.00  0.00    +0.000 A 
ENDBRANCH  12  14
ENDBRANCH   7  12
BRANCH   8  13
ATOM     13  C   UNL     1      11.440   8.612  17.941  0.00  0.00    +0.124 C 
BRANCH  13  16
ATOM      3  O   UNL     1      11.792   9.173  15.595  0.00  0.00    -0.251 OA
ATOM     16  C   UNL     1      11.125   8.643  16.470  0.00  0.00    +0.305 C 
BRANCH  16   2
ATOM      2  O   UNL     1       9.961   7.983  16.237  0.00  0.00    -0.481 OA
ATOM     32  H   UNL     1      10.042   7.352  15.491  0.00  0.00    +0.295 HD
ENDBRANCH  16   2
ENDBRANCH  13  16
ENDBRANCH   8  13
TORSDOF 7
ENDMDL
MODEL 7
REMARK VINA RESULT:      -5.8     26.732     29.914
REMARK  Name = 51136687
REMARK  8 active torsions:
REMARK  status: ('A' for Active; 'I' for Inactive)
REMARK    1  A    between atoms: O_2  and  C_16
REMARK    2  A    between atoms: O_4  and  C_30
REMARK    3  A    between atoms: O_4  and  C_31
REMARK    4  A    between atoms: C_7  and  C_12
REMARK    5  A    between atoms: C_8  and  C_13
REMARK    6  A    between atoms: C_12  and  C_14
REMARK    7  A    between atoms: C_13  and  C_16
REMARK    8  A    between atoms: C_15  and  C_21
REMARK                            x       y       z     vdW  Elec       q    Type
REMARK                         _______ _______ _______ _____ _____    ______ ____
ROOT
ATOM      1  O   UNL     1      -7.975 -11.448  18.728  0.00  0.00    -0.270 OA
ATOM      5  N   UNL     1      -6.295 -10.356  17.519  0.00  0.00    -0.297 N 
ATOM      7  C   UNL     1      -4.715 -10.304  15.601  0.00  0.00    +0.016 C 
ATOM      8  C   UNL     1      -3.569 -10.648  16.586  0.00  0.00    +0.006 C 
ATOM      9  C   UNL     1      -4.090 -11.414  17.814  0.00  0.00    +0.023 C 
ATOM     10  C   UNL     1      -5.852  -9.583  16.350  0.00  0.00    +0.112 C 
ATOM     11  C   UNL     1      -5.243 -10.670  18.482  0.00  0.00    +0.108 C 
ATOM     15  C   UNL     1      -7.600 -10.797  17.755  0.00  0.00    +0.247 C 
ENDROOT
BRANCH  15  21
ATOM     21  C   UNL     1      -8.630 -10.463  16.764  0.00  0.00    +0.037 A 
ATOM     24  C   UNL     1      -8.835 -11.295  15.663  0.00  0.00    +0.016 A 
ATOM     25  C   UNL     1      -9.402  -9.312  16.922  0.00  0.00    +0.016 A 
ATOM     28  C   UNL     1      -9.812 -10.976  14.721  0.00  0.00    +0.046 A 
ATOM     29  C   UNL     1     -10.379  -8.993  15.979  0.00  0.00    +0.046 A 
ATOM     30  C   UNL     1     -10.584  -9.825  14.878  0.00  0.00    +0.120 A 
BRANCH  30   4
ATOM      4  O   UNL     1     -11.538  -9.515  13.958  0.00  0.00    -0.495 OA
ATOM     31  C   UNL     1     -11.294  -9.914  12.610  0.00  0.00    +0.277 C 
ENDBRANCH  30   4
ENDBRANCH  15  21
BRANCH   7  12
ATOM     12  C   UNL     1      -5.265 -11.514  14.837  0.00  0.00    +0.061 C 
BRANCH  12  14
ATOM      6  N   UNL     1      -3.869 -12.608  13.219  0.00  0.00    -0.287 NA
ATOM     14  C   UNL     1      -4.625 -11.593  13.472  0.00  0.00    +0.044 C 
ATOM     17  C   UNL     1      -4.887 -10.504  12.495  0.00  0.00    -0.001 A 
ATOM     18  C   UNL     1      -4.001 -10.397  11.416  0.00  0.00    -0.037 A 
ATOM     19  C   UNL     1      -2.857 -11.364  11.325  0.00  0.00    +0.059 C 
ATOM     20  C   UNL     1      -3.295 -12.716  11.872  0.00  0.00    +0.146 C 
ATOM     22  C   UNL     1      -5.948  -9.606  12.632  0.00  0.00    +0.010 A 
ATOM     23  C   UNL     1      -4.169  -9.369  10.484  0.00  0.00    +0.004 A 
ATOM     26  C   UNL     1      -6.117  -8.593  11.687  0.00  0.00    +0.001 A 
ATOM     27  C   UNL     1      -5.228  -8.472  10.618  0.00  0.00    +0.000 A 
ENDBRANCH  12  14
ENDBRANCH   7  12
BRANCH   8  13
ATOM     13  C   UNL     1      -2.418 -11.406  15.927  0.00  0.00    +0.124 C 
BRANCH  13  16
ATOM      3  O   UNL     1      -1.477  -9.933  14.228  0.00  0.00    -0.251 OA
ATOM     16  C   UNL     1      -1.409 -10.467  15.324  0.00  0.00    +0.305 C 
BRANCH  16   2
ATOM      2  O   UNL     1      -0.377 -10.287  16.189  0.00  0.00    -0.481 OA
ATOM     32  H   UNL     1      -0.689 -10.008  17.076  0.00  0.00    +0.295 HD
ENDBRANCH  16   2
ENDBRANCH  13  16
ENDBRANCH   8  13
TORSDOF 7
ENDMDL
MODEL 8
REMARK VINA RESULT:      -5.8     14.679     17.879
REMARK  Name = 51136687
REMARK  8 active torsions:
REMARK  status: ('A' for Active; 'I' for Inactive)
REMARK    1  A    between atoms: O_2  and  C_16
REMARK    2  A    between atoms: O_4  and  C_30
REMARK    3  A    between atoms: O_4  and  C_31
REMARK    4  A    between atoms: C_7  and  C_12
REMARK    5  A    between atoms: C_8  and  C_13
REMARK    6  A    between atoms: C_12  and  C_14
REMARK    7  A    between atoms: C_13  and  C_16
REMARK    8  A    between atoms: C_15  and  C_21
REMARK                            x       y       z     vdW  Elec       q    Type
REMARK                         _______ _______ _______ _____ _____    ______ ____
ROOT
ATOM      1  O   UNL     1      15.462   6.823   4.335  0.00  0.00    -0.270 OA
ATOM      5  N   UNL     1      13.617   7.103   2.923  0.00  0.00    -0.297 N 
ATOM      7  C   UNL     1      11.264   6.566   2.329  0.00  0.00    +0.016 C 
ATOM      8  C   UNL     1      11.800   5.656   1.194  0.00  0.00    +0.006 C 
ATOM      9  C   UNL     1      13.209   5.126   1.512  0.00  0.00    +0.023 C 
ATOM     10  C   UNL     1      12.290   7.671   2.643  0.00  0.00    +0.112 C 
ATOM     11  C   UNL     1      14.163   6.265   1.858  0.00  0.00    +0.108 C 
ATOM     15  C   UNL     1      14.355   7.300   4.094  0.00  0.00    +0.247 C 
ENDROOT
BRANCH  15  21
ATOM     21  C   UNL     1      13.773   8.147   5.141  0.00  0.00    +0.037 A 
ATOM     24  C   UNL     1      13.017   7.573   6.163  0.00  0.00    +0.016 A 
ATOM     25  C   UNL     1      13.974   9.527   5.113  0.00  0.00    +0.016 A 
ATOM     28  C   UNL     1      12.462   8.379   7.157  0.00  0.00    +0.046 A 
ATOM     29  C   UNL     1      13.419  10.333   6.107  0.00  0.00    +0.046 A 
ATOM     30  C   UNL     1      12.663   9.759   7.129  0.00  0.00    +0.120 A 
BRANCH  30   4
ATOM      4  O   UNL     1      12.121  10.545   8.099  0.00  0.00    -0.495 OA
ATOM     31  C   UNL     1      10.741  10.348   8.399  0.00  0.00    +0.277 C 
ENDBRANCH  30   4
ENDBRANCH  15  21
BRANCH   7  12
ATOM     12  C   UNL     1      10.887   5.810   3.608  0.00  0.00    +0.061 C 
BRANCH  12  14
ATOM      6  N   UNL     1       9.072   7.381   3.669  0.00  0.00    -0.287 NA
ATOM     14  C   UNL     1       9.803   6.559   4.345  0.00  0.00    +0.044 C 
ATOM     17  C   UNL     1       9.634   6.322   5.802  0.00  0.00    -0.001 A 
ATOM     18  C   UNL     1       8.911   7.284   6.519  0.00  0.00    -0.037 A 
ATOM     19  C   UNL     1       8.377   8.478   5.784  0.00  0.00    +0.059 C 
ATOM     20  C   UNL     1       7.980   8.064   4.372  0.00  0.00    +0.146 C 
ATOM     22  C   UNL     1      10.173   5.211   6.454  0.00  0.00    +0.010 A 
ATOM     23  C   UNL     1       8.751   7.141   7.900  0.00  0.00    +0.004 A 
ATOM     26  C   UNL     1       9.994   5.068   7.831  0.00  0.00    +0.001 A 
ATOM     27  C   UNL     1       9.289   6.031   8.552  0.00  0.00    +0.000 A 
ENDBRANCH  12  14
ENDBRANCH   7  12
BRANCH   8  13
ATOM     13  C   UNL     1      10.855   4.505   0.851  0.00  0.00    +0.124 C 
BRANCH  13  16
ATOM      3  O   UNL     1      11.581   3.777  -1.359  0.00  0.00    -0.251 OA
ATOM     16  C   UNL     1      10.748   4.299  -0.635  0.00  0.00    +0.305 C 
BRANCH  16   2
ATOM      2  O   UNL     1       9.561   4.788  -1.080  0.00  0.00    -0.481 OA
ATOM     32  H   UNL     1       9.293   4.379  -1.930  0.00  0.00    +0.295 HD
ENDBRANCH  16   2
ENDBRANCH  13  16
ENDBRANCH   8  13
TORSDOF 7
ENDMDL
MODEL 9
REMARK VINA RESULT:      -5.7     13.288     16.273
REMARK  Name = 51136687
REMARK  8 active torsions:
REMARK  status: ('A' for Active; 'I' for Inactive)
REMARK    1  A    between atoms: O_2  and  C_16
REMARK    2  A    between atoms: O_4  and  C_30
REMARK    3  A    between atoms: O_4  and  C_31
REMARK    4  A    between atoms: C_7  and  C_12
REMARK    5  A    between atoms: C_8  and  C_13
REMARK    6  A    between atoms: C_12  and  C_14
REMARK    7  A    between atoms: C_13  and  C_16
REMARK    8  A    between atoms: C_15  and  C_21
REMARK                            x       y       z     vdW  Elec       q    Type
REMARK                         _______ _______ _______ _____ _____    ______ ____
ROOT
ATOM      1  O   UNL     1      16.671  -4.500  30.068  0.00  0.00    -0.270 OA
ATOM      5  N   UNL     1      17.347  -6.153  28.556  0.00  0.00    -0.297 N 
ATOM      7  C   UNL     1      17.277  -7.139  26.276  0.00  0.00    +0.016 C 
ATOM      8  C   UNL     1      16.335  -8.242  26.825  0.00  0.00    +0.006 C 
ATOM      9  C   UNL     1      15.543  -7.752  28.048  0.00  0.00    +0.023 C 
ATOM     10  C   UNL     1      18.160  -6.591  27.413  0.00  0.00    +0.112 C 
ATOM     11  C   UNL     1      16.472  -7.180  29.116  0.00  0.00    +0.108 C 
ATOM     15  C   UNL     1      17.353  -4.873  29.115  0.00  0.00    +0.247 C 
ENDROOT
BRANCH  15  21
ATOM     21  C   UNL     1      18.245  -3.868  28.526  0.00  0.00    +0.037 A 
ATOM     24  C   UNL     1      19.485  -3.607  29.109  0.00  0.00    +0.016 A 
ATOM     25  C   UNL     1      17.852  -3.171  27.383  0.00  0.00    +0.016 A 
ATOM     28  C   UNL     1      20.332  -2.651  28.550  0.00  0.00    +0.046 A 
ATOM     29  C   UNL     1      18.699  -2.214  26.823  0.00  0.00    +0.046 A 
ATOM     30  C   UNL     1      19.939  -1.954  27.407  0.00  0.00    +0.120 A 
BRANCH  30   4
ATOM      4  O   UNL     1      20.766  -1.020  26.861  0.00  0.00    -0.495 OA
ATOM     31  C   UNL     1      20.476  -0.595  25.531  0.00  0.00    +0.277 C 
ENDBRANCH  30   4
ENDBRANCH  15  21
BRANCH   7  12
ATOM     12  C   UNL     1      16.547  -5.992  25.569  0.00  0.00    +0.061 C 
BRANCH  12  14
ATOM      6  N   UNL     1      17.866  -6.625  23.665  0.00  0.00    -0.287 NA
ATOM     14  C   UNL     1      17.238  -5.670  24.266  0.00  0.00    +0.044 C 
ATOM     17  C   UNL     1      17.171  -4.281  23.744  0.00  0.00    -0.001 A 
ATOM     18  C   UNL     1      18.116  -3.923  22.774  0.00  0.00    -0.037 A 
ATOM     19  C   UNL     1      19.127  -4.945  22.344  0.00  0.00    +0.059 C 
ATOM     20  C   UNL     1      18.488  -6.327  22.370  0.00  0.00    +0.146 C 
ATOM     22  C   UNL     1      16.230  -3.351  24.194  0.00  0.00    +0.010 A 
ATOM     23  C   UNL     1      18.131  -2.619  22.273  0.00  0.00    +0.004 A 
ATOM     26  C   UNL     1      16.244  -2.055  23.675  0.00  0.00    +0.001 A 
ATOM     27  C   UNL     1      17.193  -1.689  22.720  0.00  0.00    +0.000 A 
ENDBRANCH  12  14
ENDBRANCH   7  12
BRANCH   8  13
ATOM     13  C   UNL     1      15.393  -8.809  25.764  0.00  0.00    +0.124 C 
BRANCH  13  16
ATOM      3  O   UNL     1      15.811 -11.032  26.673  0.00  0.00    -0.251 OA
ATOM     16  C   UNL     1      15.167 -10.284  25.954  0.00  0.00    +0.305 C 
BRANCH  16   2
ATOM      2  O   UNL     1      14.116 -10.688  25.193  0.00  0.00    -0.481 OA
ATOM     32  H   UNL     1      14.397 -10.944  24.289  0.00  0.00    +0.295 HD
ENDBRANCH  16   2
ENDBRANCH  13  16
ENDBRANCH   8  13
TORSDOF 7
ENDMDL
MODEL 10
REMARK VINA RESULT:      -5.6     27.012     30.123
REMARK  Name = 51136687
REMARK  8 active torsions:
REMARK  status: ('A' for Active; 'I' for Inactive)
REMARK    1  A    between atoms: O_2  and  C_16
REMARK    2  A    between atoms: O_4  and  C_30
REMARK    3  A    between atoms: O_4  and  C_31
REMARK    4  A    between atoms: C_7  and  C_12
REMARK    5  A    between atoms: C_8  and  C_13
REMARK    6  A    between atoms: C_12  and  C_14
REMARK    7  A    between atoms: C_13  and  C_16
REMARK    8  A    between atoms: C_15  and  C_21
REMARK                            x       y       z     vdW  Elec       q    Type
REMARK                         _______ _______ _______ _____ _____    ______ ____
ROOT
ATOM      1  O   UNL     1      -8.369 -11.327  18.927  0.00  0.00    -0.270 OA
ATOM      5  N   UNL     1      -6.725 -10.178  17.721  0.00  0.00    -0.297 N 
ATOM      7  C   UNL     1      -5.329  -9.942  15.679  0.00  0.00    +0.016 C 
ATOM      8  C   UNL     1      -4.129 -10.507  16.481  0.00  0.00    +0.006 C 
ATOM      9  C   UNL     1      -4.595 -11.413  17.633  0.00  0.00    +0.023 C 
ATOM     10  C   UNL     1      -6.330  -9.269  16.636  0.00  0.00    +0.112 C 
ATOM     11  C   UNL     1      -5.618 -10.703  18.516  0.00  0.00    +0.108 C 
ATOM     15  C   UNL     1      -8.034 -10.562  18.024  0.00  0.00    +0.247 C 
ENDROOT
BRANCH  15  21
ATOM     21  C   UNL     1      -9.120 -10.015  17.203  0.00  0.00    +0.037 A 
ATOM     24  C   UNL     1      -9.586 -10.728  16.097  0.00  0.00    +0.016 A 
ATOM     25  C   UNL     1      -9.685  -8.781  17.526  0.00  0.00    +0.016 A 
ATOM     28  C   UNL     1     -10.617 -10.206  15.316  0.00  0.00    +0.046 A 
ATOM     29  C   UNL     1     -10.716  -8.260  16.744  0.00  0.00    +0.046 A 
ATOM     30  C   UNL     1     -11.182  -8.973  15.639  0.00  0.00    +0.120 A 
BRANCH  30   4
ATOM      4  O   UNL     1     -12.188  -8.465  14.875  0.00  0.00    -0.495 OA
ATOM     31  C   UNL     1     -11.943  -7.219  14.224  0.00  0.00    +0.277 C 
ENDBRANCH  30   4
ENDBRANCH  15  21
BRANCH   7  12
ATOM     12  C   UNL     1      -6.042 -10.984  14.809  0.00  0.00    +0.061 C 
BRANCH  12  14
ATOM      6  N   UNL     1      -7.612  -9.963  13.307  0.00  0.00    -0.287 NA
ATOM     14  C   UNL     1      -6.401 -10.379  13.473  0.00  0.00    +0.044 C 
ATOM     17  C   UNL     1      -5.357 -10.299  12.420  0.00  0.00    -0.001 A 
ATOM     18  C   UNL     1      -5.799 -10.105  11.106  0.00  0.00    -0.037 A 
ATOM     19  C   UNL     1      -7.274 -10.008  10.849  0.00  0.00    +0.059 C 
ATOM     20  C   UNL     1      -7.946  -9.321  12.031  0.00  0.00    +0.146 C 
ATOM     22  C   UNL     1      -3.993 -10.423  12.698  0.00  0.00    +0.010 A 
ATOM     23  C   UNL     1      -4.868 -10.061  10.064  0.00  0.00    +0.004 A 
ATOM     26  C   UNL     1      -3.071 -10.362  11.653  0.00  0.00    +0.001 A 
ATOM     27  C   UNL     1      -3.506 -10.184  10.339  0.00  0.00    +0.000 A 
ENDBRANCH  12  14
ENDBRANCH   7  12
BRANCH   8  13
ATOM     13  C   UNL     1      -3.108 -11.231  15.605  0.00  0.00    +0.124 C 
BRANCH  13  16
ATOM      3  O   UNL     1      -1.263  -9.826  14.853  0.00  0.00    -0.251 OA
ATOM     16  C   UNL     1      -1.753 -10.581  15.679  0.00  0.00    +0.305 C 
BRANCH  16   2
ATOM      2  O   UNL     1      -1.127 -10.958  16.824  0.00  0.00    -0.481 OA
ATOM     32  H   UNL     1      -1.192 -10.270  17.520  0.00  0.00    +0.295 HD
ENDBRANCH  16   2
ENDBRANCH  13  16
ENDBRANCH   8  13
TORSDOF 7
ENDMDL
