REMARK  Name = 25313080
REMARK  9 active torsions:
REMARK  status: ('A' for Active; 'I' for Inactive)
REMARK    1  A    between atoms: O_2  and  C_20
REMARK    2  A    between atoms: N_5  and  C_13
REMARK    3  A    between atoms: N_6  and  C_22
REMARK    4  A    between atoms: C_7  and  C_11
REMARK    5  A    between atoms: C_8  and  C_14
REMARK    6  A    between atoms: C_11  and  C_13
REMARK    7  A    between atoms: C_14  and  C_20
REMARK    8  A    between atoms: C_17  and  C_21
REMARK    9  A    between atoms: C_21  and  C_23
REMARK                            x       y       z     vdW  Elec       q    Type
REMARK                         _______ _______ _______ _____ _____    ______ ____
ROOT
ATOM      1  O   UNL     1       2.702   2.952   1.051  0.00  0.00    -0.275 OA
ATOM      4  N   UNL     1       3.266   1.122  -0.264  0.00  0.00    -0.301 N 
ATOM      7  C   UNL     1       2.915  -1.222  -1.012  0.00  0.00    +0.011 C 
ATOM      8  C   UNL     1       4.136  -1.639  -0.154  0.00  0.00    +0.006 C 
ATOM      9  C   UNL     1       3.049   0.254  -1.429  0.00  0.00    +0.111 C 
ATOM     10  C   UNL     1       4.356  -0.675   1.024  0.00  0.00    +0.023 C 
ATOM     12  C   UNL     1       4.431   0.774   0.549  0.00  0.00    +0.108 C 
ATOM     17  C   UNL     1       2.482   2.223   0.081  0.00  0.00    +0.220 C 
ENDROOT
BRANCH   7  11
ATOM     11  C   UNL     1       1.563  -1.461  -0.329  0.00  0.00    +0.020 C 
BRANCH  11  13
ATOM     13  C   UNL     1       0.459  -1.646  -1.360  0.00  0.00    +0.085 C 
BRANCH  13   5
ATOM      5  N   UNL     1      -0.822  -1.855  -0.684  0.00  0.00    -0.299 NA
ATOM      6  N   UNL     1      -3.625  -1.521  -0.249  0.00  0.00    -0.327 N 
ATOM     15  C   UNL     1      -1.794  -2.463  -1.601  0.00  0.00    +0.103 C 
ATOM     16  C   UNL     1      -1.346  -0.584  -0.171  0.00  0.00    +0.103 C 
ATOM     18  C   UNL     1      -3.122  -2.739  -0.891  0.00  0.00    +0.120 C 
ATOM     19  C   UNL     1      -2.658  -0.798   0.588  0.00  0.00    +0.120 C 
BRANCH   6  22
ATOM     22  C   UNL     1      -4.982  -1.417   0.076  0.00  0.00    +0.030 A 
ATOM     24  C   UNL     1      -5.713  -2.562   0.391  0.00  0.00    +0.023 A 
ATOM     25  C   UNL     1      -5.604  -0.168   0.084  0.00  0.00    +0.023 A 
ATOM     28  C   UNL     1      -7.066  -2.459   0.714  0.00  0.00    +0.002 A 
ATOM     29  C   UNL     1      -6.957  -0.065   0.407  0.00  0.00    +0.002 A 
ATOM     30  C   UNL     1      -7.688  -1.210   0.722  0.00  0.00    +0.000 A 
ENDBRANCH   6  22
ENDBRANCH  13   5
ENDBRANCH  11  13
ENDBRANCH   7  11
BRANCH   8  14
ATOM     14  C   UNL     1       4.059  -3.084   0.339  0.00  0.00    +0.124 C 
BRANCH  14  20
ATOM      3  O   UNL     1       6.483  -3.036   0.588  0.00  0.00    -0.251 OA
ATOM     20  C   UNL     1       5.419  -3.630   0.675  0.00  0.00    +0.305 C 
BRANCH  20   2
ATOM      2  O   UNL     1       5.304  -4.913   1.103  0.00  0.00    -0.481 OA
ATOM     34  H   UNL     1       6.175  -5.302   1.331  0.00  0.00    +0.295 HD
ENDBRANCH  20   2
ENDBRANCH  14  20
ENDBRANCH   8  14
BRANCH  17  21
ATOM     21  C   UNL     1       1.298   2.513  -0.806  0.00  0.00    +0.131 C 
BRANCH  21  23
ATOM     23  C   UNL     1       0.579   3.741  -0.341  0.00  0.00    -0.039 A 
ATOM     26  C   UNL     1      -0.456   3.633   0.588  0.00  0.00    +0.004 A 
ATOM     27  C   UNL     1       0.944   4.993  -0.836  0.00  0.00    +0.004 A 
ATOM     31  C   UNL     1      -1.126   4.777   1.022  0.00  0.00    +0.000 A 
ATOM     32  C   UNL     1       0.274   6.137  -0.402  0.00  0.00    +0.000 A 
ATOM     33  C   UNL     1      -0.761   6.029   0.527  0.00  0.00    +0.000 A 
ENDBRANCH  21  23
ENDBRANCH  17  21
TORSDOF 9
