MODEL 1
REMARK VINA RESULT:      -6.0      0.000      0.000
REMARK  Name = 71692987
REMARK  11 active torsions:
REMARK  status: ('A' for Active; 'I' for Inactive)
REMARK    1  A    between atoms: N_1  and  C_11
REMARK    2  A    between atoms: N_1  and  C_17
REMARK    3  A    between atoms: N_1  and  C_18
REMARK    4  A    between atoms: C_4  and  C_8
REMARK    5  A    between atoms: C_5  and  C_11
REMARK    6  A    between atoms: C_7  and  C_12
REMARK    7  A    between atoms: C_8  and  C_13
REMARK    8  A    between atoms: C_8  and  C_14
REMARK    9  A    between atoms: C_9  and  C_15
REMARK   10  A    between atoms: C_12  and  C_16
REMARK   11  A    between atoms: C_21  and  C_25
REMARK                            x       y       z     vdW  Elec       q    Type
REMARK                         _______ _______ _______ _____ _____    ______ ____
ROOT
ATOM      4  C   UNL     1      -5.020 -12.348  15.617  0.00  0.00    +0.000 C 
ATOM      5  C   UNL     1      -4.931 -10.825  15.873  0.00  0.00    +0.029 C 
ATOM      6  C   UNL     1      -4.000 -12.775  14.554  0.00  0.00    +0.012 C 
ATOM      7  C   UNL     1      -2.546 -12.399  14.914  0.00  0.00    +0.022 C 
ATOM      9  C   UNL     1      -2.430 -11.031  15.567  0.00  0.00    -0.073 C 
ATOM     10  C   UNL     1      -3.508 -10.339  15.978  0.00  0.00    -0.023 C 
ATOM     15  C   UNL     1      -1.047 -10.487  15.798  0.00  0.00    +0.039 C 
ENDROOT
BRANCH   4   8
ATOM      8  C   UNL     1      -4.834 -13.145  16.915  0.00  0.00    -0.013 C 
ATOM     13  C   UNL     1      -5.705 -12.564  18.026  0.00  0.00    +0.007 C 
ATOM     14  C   UNL     1      -5.161 -14.618  16.687  0.00  0.00    +0.007 C 
ENDBRANCH   4   8
BRANCH   5  11
ATOM     11  C   UNL     1      -5.659 -10.026  14.788  0.00  0.00    +0.091 C 
BRANCH  11   1
ATOM      1  N   UNL     1      -7.075 -10.346  14.777  0.00  0.00    -0.308 NA
ATOM     17  C   UNL     1      -7.707  -9.872  13.542  0.00  0.00    +0.104 C 
ATOM     18  C   UNL     1      -7.750  -9.765  15.942  0.00  0.00    +0.104 C 
ENDBRANCH  11   1
ENDBRANCH   5  11
BRANCH   7  12
ATOM     12  C   UNL     1      -1.679 -12.536  13.657  0.00  0.00    +0.082 C 
BRANCH  12  16
ATOM      2  N   UNL     1      -2.302 -10.582  12.224  0.00  0.00    -0.342 N 
ATOM      3  N   UNL     1      -3.029 -12.565  11.530  0.00  0.00    -0.232 NA
ATOM     16  C   UNL     1      -2.350 -11.928  12.458  0.00  0.00    +0.109 A 
ATOM     19  C   UNL     1      -2.998 -10.333  11.069  0.00  0.00    +0.066 A 
ATOM     20  C   UNL     1      -3.442 -11.587  10.655  0.00  0.00    +0.092 A 
ATOM     21  C   UNL     1      -4.202 -11.690   9.479  0.00  0.00    -0.023 A 
ATOM     22  C   UNL     1      -3.268  -9.155  10.370  0.00  0.00    +0.028 A 
ATOM     23  C   UNL     1      -4.486 -10.520   8.761  0.00  0.00    +0.005 A 
ATOM     24  C   UNL     1      -4.026  -9.277   9.201  0.00  0.00    +0.002 A 
ATOM     25  C   UNL     1      -4.715 -12.996   8.967  0.00  0.00    +0.046 C 
ATOM     26  H   UNL     1      -1.838  -9.890  12.797  0.00  0.00    +0.167 HD
ENDBRANCH  12  16
ENDBRANCH   7  12
TORSDOF 5
ENDMDL
MODEL 2
REMARK VINA RESULT:      -5.9      3.498      8.251
REMARK  Name = 71692987
REMARK  11 active torsions:
REMARK  status: ('A' for Active; 'I' for Inactive)
REMARK    1  A    between atoms: N_1  and  C_11
REMARK    2  A    between atoms: N_1  and  C_17
REMARK    3  A    between atoms: N_1  and  C_18
REMARK    4  A    between atoms: C_4  and  C_8
REMARK    5  A    between atoms: C_5  and  C_11
REMARK    6  A    between atoms: C_7  and  C_12
REMARK    7  A    between atoms: C_8  and  C_13
REMARK    8  A    between atoms: C_8  and  C_14
REMARK    9  A    between atoms: C_9  and  C_15
REMARK   10  A    between atoms: C_12  and  C_16
REMARK   11  A    between atoms: C_21  and  C_25
REMARK                            x       y       z     vdW  Elec       q    Type
REMARK                         _______ _______ _______ _____ _____    ______ ____
ROOT
ATOM      4  C   UNL     1      -4.678 -10.908  17.744  0.00  0.00    +0.000 C 
ATOM      5  C   UNL     1      -4.249 -11.696  16.484  0.00  0.00    +0.029 C 
ATOM      6  C   UNL     1      -5.915 -10.050  17.446  0.00  0.00    +0.012 C 
ATOM      7  C   UNL     1      -7.115 -10.867  16.917  0.00  0.00    +0.022 C 
ATOM      9  C   UNL     1      -6.705 -11.966  15.949  0.00  0.00    -0.073 C 
ATOM     10  C   UNL     1      -5.419 -12.313  15.761  0.00  0.00    -0.023 C 
ATOM     15  C   UNL     1      -7.803 -12.707  15.236  0.00  0.00    +0.039 C 
ENDROOT
BRANCH   4   8
ATOM      8  C   UNL     1      -4.928 -11.847  18.932  0.00  0.00    -0.013 C 
ATOM     13  C   UNL     1      -3.604 -12.324  19.521  0.00  0.00    +0.007 C 
ATOM     14  C   UNL     1      -5.772 -11.149  19.993  0.00  0.00    +0.007 C 
ENDBRANCH   4   8
BRANCH   5  11
ATOM     11  C   UNL     1      -3.460 -10.816  15.508  0.00  0.00    +0.091 C 
BRANCH  11   1
ATOM      1  N   UNL     1      -2.104 -11.310  15.354  0.00  0.00    -0.308 NA
ATOM     17  C   UNL     1      -1.129 -10.261  15.670  0.00  0.00    +0.104 C 
ATOM     18  C   UNL     1      -1.882 -11.808  13.992  0.00  0.00    +0.104 C 
ENDBRANCH  11   1
ENDBRANCH   5  11
BRANCH   7  12
ATOM     12  C   UNL     1      -8.142  -9.898  16.320  0.00  0.00    +0.082 C 
BRANCH  12  16
ATOM      2  N   UNL     1      -9.362 -10.068  18.498  0.00  0.00    -0.342 N 
ATOM      3  N   UNL     1     -10.609  -9.589  16.721  0.00  0.00    -0.232 NA
ATOM     16  C   UNL     1      -9.393  -9.844  17.150  0.00  0.00    +0.109 A 
ATOM     19  C   UNL     1     -10.643  -9.951  18.971  0.00  0.00    +0.066 A 
ATOM     20  C   UNL     1     -11.403  -9.653  17.843  0.00  0.00    +0.092 A 
ATOM     21  C   UNL     1     -12.789  -9.465  17.981  0.00  0.00    -0.023 A 
ATOM     22  C   UNL     1     -11.187 -10.077  20.251  0.00  0.00    +0.028 A 
ATOM     23  C   UNL     1     -13.356  -9.587  19.256  0.00  0.00    +0.005 A 
ATOM     24  C   UNL     1     -12.568  -9.887  20.370  0.00  0.00    +0.002 A 
ATOM     25  C   UNL     1     -13.674  -9.142  16.822  0.00  0.00    +0.046 C 
ATOM     26  H   UNL     1      -8.543 -10.281  19.051  0.00  0.00    +0.167 HD
ENDBRANCH  12  16
ENDBRANCH   7  12
TORSDOF 5
ENDMDL
MODEL 3
REMARK VINA RESULT:      -5.8     20.556     23.362
REMARK  Name = 71692987
REMARK  11 active torsions:
REMARK  status: ('A' for Active; 'I' for Inactive)
REMARK    1  A    between atoms: N_1  and  C_11
REMARK    2  A    between atoms: N_1  and  C_17
REMARK    3  A    between atoms: N_1  and  C_18
REMARK    4  A    between atoms: C_4  and  C_8
REMARK    5  A    between atoms: C_5  and  C_11
REMARK    6  A    between atoms: C_7  and  C_12
REMARK    7  A    between atoms: C_8  and  C_13
REMARK    8  A    between atoms: C_8  and  C_14
REMARK    9  A    between atoms: C_9  and  C_15
REMARK   10  A    between atoms: C_12  and  C_16
REMARK   11  A    between atoms: C_21  and  C_25
REMARK                            x       y       z     vdW  Elec       q    Type
REMARK                         _______ _______ _______ _____ _____    ______ ____
ROOT
ATOM      4  C   UNL     1     -13.386   8.955  20.545  0.00  0.00    +0.000 C 
ATOM      5  C   UNL     1     -12.082   8.275  20.063  0.00  0.00    +0.029 C 
ATOM      6  C   UNL     1     -14.517   7.925  20.663  0.00  0.00    +0.012 C 
ATOM      7  C   UNL     1     -14.176   6.745  21.600  0.00  0.00    +0.022 C 
ATOM      9  C   UNL     1     -12.736   6.276  21.465  0.00  0.00    -0.073 C 
ATOM     10  C   UNL     1     -11.818   6.967  20.764  0.00  0.00    -0.023 C 
ATOM     15  C   UNL     1     -12.342   5.022  22.198  0.00  0.00    +0.039 C 
ENDROOT
BRANCH   4   8
ATOM      8  C   UNL     1     -13.172   9.698  21.870  0.00  0.00    -0.013 C 
ATOM     13  C   UNL     1     -12.163  10.829  21.690  0.00  0.00    +0.007 C 
ATOM     14  C   UNL     1     -14.498  10.237  22.399  0.00  0.00    +0.007 C 
ENDBRANCH   4   8
BRANCH   5  11
ATOM     11  C   UNL     1     -12.092   8.044  18.549  0.00  0.00    +0.091 C 
BRANCH  11   1
ATOM      1  N   UNL     1     -11.186   8.963  17.883  0.00  0.00    -0.308 NA
ATOM     17  C   UNL     1     -10.518   8.309  16.754  0.00  0.00    +0.104 C 
ATOM     18  C   UNL     1     -10.190   9.486  18.823  0.00  0.00    +0.104 C 
ENDBRANCH  11   1
ENDBRANCH   5  11
BRANCH   7  12
ATOM     12  C   UNL     1     -15.194   5.623  21.366  0.00  0.00    +0.082 C 
BRANCH  12  16
ATOM      2  N   UNL     1     -15.566   3.741  22.972  0.00  0.00    -0.342 N 
ATOM      3  N   UNL     1     -16.316   5.731  23.619  0.00  0.00    -0.232 NA
ATOM     16  C   UNL     1     -15.705   5.066  22.663  0.00  0.00    +0.109 A 
ATOM     19  C   UNL     1     -16.125   3.538  24.207  0.00  0.00    +0.066 A 
ATOM     20  C   UNL     1     -16.586   4.795  24.590  0.00  0.00    +0.092 A 
ATOM     21  C   UNL     1     -17.224   4.941  25.832  0.00  0.00    -0.023 A 
ATOM     22  C   UNL     1     -16.262   2.398  25.000  0.00  0.00    +0.028 A 
ATOM     23  C   UNL     1     -17.373   3.810  26.645  0.00  0.00    +0.005 A 
ATOM     24  C   UNL     1     -16.899   2.561  26.234  0.00  0.00    +0.002 A 
ATOM     25  C   UNL     1     -17.747   6.254  26.317  0.00  0.00    +0.046 C 
ATOM     26  H   UNL     1     -15.129   3.035  22.395  0.00  0.00    +0.167 HD
ENDBRANCH  12  16
ENDBRANCH   7  12
TORSDOF 5
ENDMDL
MODEL 4
REMARK VINA RESULT:      -5.8      2.759      4.804
REMARK  Name = 71692987
REMARK  11 active torsions:
REMARK  status: ('A' for Active; 'I' for Inactive)
REMARK    1  A    between atoms: N_1  and  C_11
REMARK    2  A    between atoms: N_1  and  C_17
REMARK    3  A    between atoms: N_1  and  C_18
REMARK    4  A    between atoms: C_4  and  C_8
REMARK    5  A    between atoms: C_5  and  C_11
REMARK    6  A    between atoms: C_7  and  C_12
REMARK    7  A    between atoms: C_8  and  C_13
REMARK    8  A    between atoms: C_8  and  C_14
REMARK    9  A    between atoms: C_9  and  C_15
REMARK   10  A    between atoms: C_12  and  C_16
REMARK   11  A    between atoms: C_21  and  C_25
REMARK                            x       y       z     vdW  Elec       q    Type
REMARK                         _______ _______ _______ _____ _____    ______ ____
ROOT
ATOM      4  C   UNL     1      -3.793 -12.046  12.326  0.00  0.00    +0.000 C 
ATOM      5  C   UNL     1      -2.812 -11.437  13.356  0.00  0.00    +0.029 C 
ATOM      6  C   UNL     1      -4.337 -10.955  11.393  0.00  0.00    +0.012 C 
ATOM      7  C   UNL     1      -3.230 -10.176  10.650  0.00  0.00    +0.022 C 
ATOM      9  C   UNL     1      -2.017  -9.889  11.523  0.00  0.00    -0.073 C 
ATOM     10  C   UNL     1      -1.855 -10.454  12.733  0.00  0.00    -0.023 C 
ATOM     15  C   UNL     1      -0.955  -8.985  10.959  0.00  0.00    +0.039 C 
ENDROOT
BRANCH   4   8
ATOM      8  C   UNL     1      -3.134 -13.179  11.529  0.00  0.00    -0.013 C 
ATOM     13  C   UNL     1      -2.476 -14.181  12.473  0.00  0.00    +0.007 C 
ATOM     14  C   UNL     1      -4.162 -13.870  10.638  0.00  0.00    +0.007 C 
ENDBRANCH   4   8
BRANCH   5  11
ATOM     11  C   UNL     1      -3.556 -10.757  14.510  0.00  0.00    +0.091 C 
BRANCH  11   1
ATOM      1  N   UNL     1      -3.146 -11.316  15.786  0.00  0.00    -0.308 NA
ATOM     17  C   UNL     1      -4.173 -11.091  16.807  0.00  0.00    +0.104 C 
ATOM     18  C   UNL     1      -1.870 -10.741  16.222  0.00  0.00    +0.104 C 
ENDBRANCH  11   1
ENDBRANCH   5  11
BRANCH   7  12
ATOM     12  C   UNL     1      -3.844  -8.907  10.047  0.00  0.00    +0.082 C 
BRANCH  12  16
ATOM      2  N   UNL     1      -5.953  -8.615   8.734  0.00  0.00    -0.342 N 
ATOM      3  N   UNL     1      -4.501 -10.089   7.922  0.00  0.00    -0.232 NA
ATOM     16  C   UNL     1      -4.742  -9.229   8.887  0.00  0.00    +0.109 A 
ATOM     19  C   UNL     1      -6.534  -9.111   7.595  0.00  0.00    +0.066 A 
ATOM     20  C   UNL     1      -5.608 -10.030   7.107  0.00  0.00    +0.092 A 
ATOM     21  C   UNL     1      -5.898 -10.733   5.926  0.00  0.00    -0.023 A 
ATOM     22  C   UNL     1      -7.751  -8.843   6.969  0.00  0.00    +0.028 A 
ATOM     23  C   UNL     1      -7.116 -10.480   5.280  0.00  0.00    +0.005 A 
ATOM     24  C   UNL     1      -8.024  -9.551   5.794  0.00  0.00    +0.002 A 
ATOM     25  C   UNL     1      -4.960 -11.734   5.337  0.00  0.00    +0.046 C 
ATOM     26  H   UNL     1      -6.353  -7.917   9.347  0.00  0.00    +0.167 HD
ENDBRANCH  12  16
ENDBRANCH   7  12
TORSDOF 5
ENDMDL
MODEL 5
REMARK VINA RESULT:      -5.8      2.095      6.799
REMARK  Name = 71692987
REMARK  11 active torsions:
REMARK  status: ('A' for Active; 'I' for Inactive)
REMARK    1  A    between atoms: N_1  and  C_11
REMARK    2  A    between atoms: N_1  and  C_17
REMARK    3  A    between atoms: N_1  and  C_18
REMARK    4  A    between atoms: C_4  and  C_8
REMARK    5  A    between atoms: C_5  and  C_11
REMARK    6  A    between atoms: C_7  and  C_12
REMARK    7  A    between atoms: C_8  and  C_13
REMARK    8  A    between atoms: C_8  and  C_14
REMARK    9  A    between atoms: C_9  and  C_15
REMARK   10  A    between atoms: C_12  and  C_16
REMARK   11  A    between atoms: C_21  and  C_25
REMARK                            x       y       z     vdW  Elec       q    Type
REMARK                         _______ _______ _______ _____ _____    ______ ____
ROOT
ATOM      4  C   UNL     1      -5.553 -10.644  10.964  0.00  0.00    +0.000 C 
ATOM      5  C   UNL     1      -4.478 -10.720   9.854  0.00  0.00    +0.029 C 
ATOM      6  C   UNL     1      -5.015 -11.232  12.275  0.00  0.00    +0.012 C 
ATOM      7  C   UNL     1      -3.720 -10.548  12.767  0.00  0.00    +0.022 C 
ATOM      9  C   UNL     1      -2.758 -10.213  11.637  0.00  0.00    -0.073 C 
ATOM     10  C   UNL     1      -3.113 -10.307  10.342  0.00  0.00    -0.023 C 
ATOM     15  C   UNL     1      -1.393  -9.708  12.014  0.00  0.00    +0.039 C 
ENDROOT
BRANCH   4   8
ATOM      8  C   UNL     1      -6.050  -9.206  11.164  0.00  0.00    -0.013 C 
ATOM     13  C   UNL     1      -6.639  -8.661   9.866  0.00  0.00    +0.007 C 
ATOM     14  C   UNL     1      -7.077  -9.149  12.289  0.00  0.00    +0.007 C 
ENDBRANCH   4   8
BRANCH   5  11
ATOM     11  C   UNL     1      -4.393 -12.123   9.244  0.00  0.00    +0.091 C 
BRANCH  11   1
ATOM      1  N   UNL     1      -4.300 -12.048   7.797  0.00  0.00    -0.308 NA
ATOM     17  C   UNL     1      -5.095 -10.930   7.281  0.00  0.00    +0.104 C 
ATOM     18  C   UNL     1      -4.740 -13.304   7.181  0.00  0.00    +0.104 C 
ENDBRANCH  11   1
ENDBRANCH   5  11
BRANCH   7  12
ATOM     12  C   UNL     1      -3.084 -11.426  13.851  0.00  0.00    +0.082 C 
BRANCH  12  16
ATOM      2  N   UNL     1      -3.327 -11.884  16.298  0.00  0.00    -0.342 N 
ATOM      3  N   UNL     1      -4.888 -10.586  15.394  0.00  0.00    -0.232 NA
ATOM     16  C   UNL     1      -3.793 -11.277  15.166  0.00  0.00    +0.109 A 
ATOM     19  C   UNL     1      -4.177 -11.565  17.325  0.00  0.00    +0.066 A 
ATOM     20  C   UNL     1      -5.144 -10.754  16.735  0.00  0.00    +0.092 A 
ATOM     21  C   UNL     1      -6.186 -10.244  17.527  0.00  0.00    -0.023 A 
ATOM     22  C   UNL     1      -4.184 -11.904  18.679  0.00  0.00    +0.028 A 
ATOM     23  C   UNL     1      -6.213 -10.572  18.889  0.00  0.00    +0.005 A 
ATOM     24  C   UNL     1      -5.228 -11.388  19.453  0.00  0.00    +0.002 A 
ATOM     25  C   UNL     1      -7.260  -9.368  16.972  0.00  0.00    +0.046 C 
ATOM     26  H   UNL     1      -2.502 -12.464  16.370  0.00  0.00    +0.167 HD
ENDBRANCH  12  16
ENDBRANCH   7  12
TORSDOF 5
ENDMDL
MODEL 6
REMARK VINA RESULT:      -5.7      2.253      6.839
REMARK  Name = 71692987
REMARK  11 active torsions:
REMARK  status: ('A' for Active; 'I' for Inactive)
REMARK    1  A    between atoms: N_1  and  C_11
REMARK    2  A    between atoms: N_1  and  C_17
REMARK    3  A    between atoms: N_1  and  C_18
REMARK    4  A    between atoms: C_4  and  C_8
REMARK    5  A    between atoms: C_5  and  C_11
REMARK    6  A    between atoms: C_7  and  C_12
REMARK    7  A    between atoms: C_8  and  C_13
REMARK    8  A    between atoms: C_8  and  C_14
REMARK    9  A    between atoms: C_9  and  C_15
REMARK   10  A    between atoms: C_12  and  C_16
REMARK   11  A    between atoms: C_21  and  C_25
REMARK                            x       y       z     vdW  Elec       q    Type
REMARK                         _______ _______ _______ _____ _____    ______ ____
ROOT
ATOM      4  C   UNL     1      -3.896 -12.606  13.485  0.00  0.00    +0.000 C 
ATOM      5  C   UNL     1      -2.398 -12.992  13.463  0.00  0.00    +0.029 C 
ATOM      6  C   UNL     1      -4.309 -12.130  14.884  0.00  0.00    +0.012 C 
ATOM      7  C   UNL     1      -3.465 -10.944  15.401  0.00  0.00    +0.022 C 
ATOM      9  C   UNL     1      -1.991 -11.064  15.047  0.00  0.00    -0.073 C 
ATOM     10  C   UNL     1      -1.533 -11.993  14.188  0.00  0.00    -0.023 C 
ATOM     15  C   UNL     1      -1.048 -10.059  15.650  0.00  0.00    +0.039 C 
ENDROOT
BRANCH   4   8
ATOM      8  C   UNL     1      -4.215 -11.546  12.422  0.00  0.00    -0.013 C 
ATOM     13  C   UNL     1      -3.533 -11.894  11.102  0.00  0.00    +0.007 C 
ATOM     14  C   UNL     1      -5.723 -11.417  12.234  0.00  0.00    +0.007 C 
ENDBRANCH   4   8
BRANCH   5  11
ATOM     11  C   UNL     1      -2.165 -14.386  14.056  0.00  0.00    +0.091 C 
BRANCH  11   1
ATOM      1  N   UNL     1      -1.311 -15.177  13.188  0.00  0.00    -0.308 NA
ATOM     17  C   UNL     1      -2.028 -15.571  11.972  0.00  0.00    +0.104 C 
ATOM     18  C   UNL     1      -0.816 -16.366  13.888  0.00  0.00    +0.104 C 
ENDBRANCH  11   1
ENDBRANCH   5  11
BRANCH   7  12
ATOM     12  C   UNL     1      -3.706 -10.792  16.908  0.00  0.00    +0.082 C 
BRANCH  12  16
ATOM      2  N   UNL     1      -5.886  -9.604  16.603  0.00  0.00    -0.342 N 
ATOM      3  N   UNL     1      -5.893 -11.288  18.054  0.00  0.00    -0.232 NA
ATOM     16  C   UNL     1      -5.162 -10.590  17.213  0.00  0.00    +0.109 A 
ATOM     19  C   UNL     1      -7.170  -9.670  17.082  0.00  0.00    +0.066 A 
ATOM     20  C   UNL     1      -7.148 -10.728  17.986  0.00  0.00    +0.092 A 
ATOM     21  C   UNL     1      -8.327 -11.070  18.669  0.00  0.00    -0.023 A 
ATOM     22  C   UNL     1      -8.313  -8.917  16.810  0.00  0.00    +0.028 A 
ATOM     23  C   UNL     1      -9.488 -10.328  18.411  0.00  0.00    +0.005 A 
ATOM     24  C   UNL     1      -9.478  -9.271  17.498  0.00  0.00    +0.002 A 
ATOM     25  C   UNL     1      -8.389 -12.191  19.654  0.00  0.00    +0.046 C 
ATOM     26  H   UNL     1      -5.542  -8.944  15.920  0.00  0.00    +0.167 HD
ENDBRANCH  12  16
ENDBRANCH   7  12
TORSDOF 5
ENDMDL
MODEL 7
REMARK VINA RESULT:      -5.6      1.746      2.439
REMARK  Name = 71692987
REMARK  11 active torsions:
REMARK  status: ('A' for Active; 'I' for Inactive)
REMARK    1  A    between atoms: N_1  and  C_11
REMARK    2  A    between atoms: N_1  and  C_17
REMARK    3  A    between atoms: N_1  and  C_18
REMARK    4  A    between atoms: C_4  and  C_8
REMARK    5  A    between atoms: C_5  and  C_11
REMARK    6  A    between atoms: C_7  and  C_12
REMARK    7  A    between atoms: C_8  and  C_13
REMARK    8  A    between atoms: C_8  and  C_14
REMARK    9  A    between atoms: C_9  and  C_15
REMARK   10  A    between atoms: C_12  and  C_16
REMARK   11  A    between atoms: C_21  and  C_25
REMARK                            x       y       z     vdW  Elec       q    Type
REMARK                         _______ _______ _______ _____ _____    ______ ____
ROOT
ATOM      4  C   UNL     1      -6.679 -11.595  17.220  0.00  0.00    +0.000 C 
ATOM      5  C   UNL     1      -6.210 -10.124  17.137  0.00  0.00    +0.029 C 
ATOM      6  C   UNL     1      -6.009 -12.436  16.124  0.00  0.00    +0.012 C 
ATOM      7  C   UNL     1      -4.466 -12.385  16.170  0.00  0.00    +0.022 C 
ATOM      9  C   UNL     1      -3.926 -11.001  16.499  0.00  0.00    -0.073 C 
ATOM     10  C   UNL     1      -4.724 -10.001  16.918  0.00  0.00    -0.023 C 
ATOM     15  C   UNL     1      -2.440 -10.793  16.397  0.00  0.00    +0.039 C 
ENDROOT
BRANCH   4   8
ATOM      8  C   UNL     1      -6.417 -12.188  18.611  0.00  0.00    -0.013 C 
ATOM     13  C   UNL     1      -6.184 -11.075  19.628  0.00  0.00    +0.007 C 
ATOM     14  C   UNL     1      -7.581 -13.076  19.039  0.00  0.00    +0.007 C 
ENDBRANCH   4   8
BRANCH   5  11
ATOM     11  C   UNL     1      -6.947  -9.357  16.034  0.00  0.00    +0.091 C 
BRANCH  11   1
ATOM      1  N   UNL     1      -8.382  -9.546  16.149  0.00  0.00    -0.308 NA
ATOM     17  C   UNL     1      -9.038  -9.357  14.851  0.00  0.00    +0.104 C 
ATOM     18  C   UNL     1      -8.952  -8.625  17.138  0.00  0.00    +0.104 C 
ENDBRANCH  11   1
ENDBRANCH   5  11
BRANCH   7  12
ATOM     12  C   UNL     1      -3.918 -12.941  14.851  0.00  0.00    +0.082 C 
BRANCH  12  16
ATOM      2  N   UNL     1      -2.931 -11.672  12.934  0.00  0.00    -0.342 N 
ATOM      3  N   UNL     1      -5.039 -11.181  13.440  0.00  0.00    -0.232 NA
ATOM     16  C   UNL     1      -3.999 -11.923  13.750  0.00  0.00    +0.109 A 
ATOM     19  C   UNL     1      -3.307 -10.705  12.038  0.00  0.00    +0.066 A 
ATOM     20  C   UNL     1      -4.626 -10.415  12.375  0.00  0.00    +0.092 A 
ATOM     21  C   UNL     1      -5.324  -9.445  11.636  0.00  0.00    -0.023 A 
ATOM     22  C   UNL     1      -2.627 -10.078  10.993  0.00  0.00    +0.028 A 
ATOM     23  C   UNL     1      -4.661  -8.802  10.582  0.00  0.00    +0.005 A 
ATOM     24  C   UNL     1      -3.336  -9.115  10.268  0.00  0.00    +0.002 A 
ATOM     25  C   UNL     1      -6.740  -9.075  11.932  0.00  0.00    +0.046 C 
ATOM     26  H   UNL     1      -2.025 -12.119  12.979  0.00  0.00    +0.167 HD
ENDBRANCH  12  16
ENDBRANCH   7  12
TORSDOF 5
ENDMDL
MODEL 8
REMARK VINA RESULT:      -5.5      4.243      8.395
REMARK  Name = 71692987
REMARK  11 active torsions:
REMARK  status: ('A' for Active; 'I' for Inactive)
REMARK    1  A    between atoms: N_1  and  C_11
REMARK    2  A    between atoms: N_1  and  C_17
REMARK    3  A    between atoms: N_1  and  C_18
REMARK    4  A    between atoms: C_4  and  C_8
REMARK    5  A    between atoms: C_5  and  C_11
REMARK    6  A    between atoms: C_7  and  C_12
REMARK    7  A    between atoms: C_8  and  C_13
REMARK    8  A    between atoms: C_8  and  C_14
REMARK    9  A    between atoms: C_9  and  C_15
REMARK   10  A    between atoms: C_12  and  C_16
REMARK   11  A    between atoms: C_21  and  C_25
REMARK                            x       y       z     vdW  Elec       q    Type
REMARK                         _______ _______ _______ _____ _____    ______ ____
ROOT
ATOM      4  C   UNL     1     -11.485  -8.733  14.295  0.00  0.00    +0.000 C 
ATOM      5  C   UNL     1     -12.773  -8.426  15.095  0.00  0.00    +0.029 C 
ATOM      6  C   UNL     1     -10.243  -8.335  15.103  0.00  0.00    +0.012 C 
ATOM      7  C   UNL     1     -10.165  -9.020  16.485  0.00  0.00    +0.022 C 
ATOM      9  C   UNL     1     -11.517  -9.121  17.176  0.00  0.00    -0.073 C 
ATOM     10  C   UNL     1     -12.670  -8.840  16.541  0.00  0.00    -0.023 C 
ATOM     15  C   UNL     1     -11.535  -9.608  18.599  0.00  0.00    +0.039 C 
ENDROOT
BRANCH   4   8
ATOM      8  C   UNL     1     -11.425 -10.208  13.877  0.00  0.00    -0.013 C 
ATOM     13  C   UNL     1     -12.714 -10.613  13.168  0.00  0.00    +0.007 C 
ATOM     14  C   UNL     1     -10.215 -10.460  12.984  0.00  0.00    +0.007 C 
ENDBRANCH   4   8
BRANCH   5  11
ATOM     11  C   UNL     1     -13.144  -6.941  15.020  0.00  0.00    +0.091 C 
BRANCH  11   1
ATOM      1  N   UNL     1     -12.962  -6.433  13.672  0.00  0.00    -0.308 NA
ATOM     17  C   UNL     1     -12.401  -5.079  13.697  0.00  0.00    +0.104 C 
ATOM     18  C   UNL     1     -14.230  -6.438  12.937  0.00  0.00    +0.104 C 
ENDBRANCH  11   1
ENDBRANCH   5  11
BRANCH   7  12
ATOM     12  C   UNL     1      -9.115  -8.294  17.334  0.00  0.00    +0.082 C 
BRANCH  12  16
ATOM      2  N   UNL     1      -7.714  -9.798  18.759  0.00  0.00    -0.342 N 
ATOM      3  N   UNL     1      -6.935  -9.396  16.717  0.00  0.00    -0.232 NA
ATOM     16  C   UNL     1      -7.907  -9.156  17.568  0.00  0.00    +0.109 A 
ATOM     19  C   UNL     1      -6.538 -10.499  18.671  0.00  0.00    +0.066 A 
ATOM     20  C   UNL     1      -6.072 -10.231  17.387  0.00  0.00    +0.092 A 
ATOM     21  C   UNL     1      -4.862 -10.807  16.964  0.00  0.00    -0.023 A 
ATOM     22  C   UNL     1      -5.864 -11.319  19.576  0.00  0.00    +0.028 A 
ATOM     23  C   UNL     1      -4.167 -11.634  17.856  0.00  0.00    +0.005 A 
ATOM     24  C   UNL     1      -4.661 -11.884  19.139  0.00  0.00    +0.002 A 
ATOM     25  C   UNL     1      -4.293 -10.571  15.604  0.00  0.00    +0.046 C 
ATOM     26  H   UNL     1      -8.326  -9.766  19.564  0.00  0.00    +0.167 HD
ENDBRANCH  12  16
ENDBRANCH   7  12
TORSDOF 5
ENDMDL
MODEL 9
REMARK VINA RESULT:      -5.5      2.117      6.144
REMARK  Name = 71692987
REMARK  11 active torsions:
REMARK  status: ('A' for Active; 'I' for Inactive)
REMARK    1  A    between atoms: N_1  and  C_11
REMARK    2  A    between atoms: N_1  and  C_17
REMARK    3  A    between atoms: N_1  and  C_18
REMARK    4  A    between atoms: C_4  and  C_8
REMARK    5  A    between atoms: C_5  and  C_11
REMARK    6  A    between atoms: C_7  and  C_12
REMARK    7  A    between atoms: C_8  and  C_13
REMARK    8  A    between atoms: C_8  and  C_14
REMARK    9  A    between atoms: C_9  and  C_15
REMARK   10  A    between atoms: C_12  and  C_16
REMARK   11  A    between atoms: C_21  and  C_25
REMARK                            x       y       z     vdW  Elec       q    Type
REMARK                         _______ _______ _______ _____ _____    ______ ____
ROOT
ATOM      4  C   UNL     1      -4.475 -11.000  11.577  0.00  0.00    +0.000 C 
ATOM      5  C   UNL     1      -4.803 -12.454  11.991  0.00  0.00    +0.029 C 
ATOM      6  C   UNL     1      -3.699 -10.285  12.692  0.00  0.00    +0.012 C 
ATOM      7  C   UNL     1      -2.397 -11.011  13.096  0.00  0.00    +0.022 C 
ATOM      9  C   UNL     1      -2.545 -12.525  13.127  0.00  0.00    -0.073 C 
ATOM     10  C   UNL     1      -3.633 -13.149  12.639  0.00  0.00    -0.023 C 
ATOM     15  C   UNL     1      -1.395 -13.324  13.677  0.00  0.00    +0.039 C 
ENDROOT
BRANCH   4   8
ATOM      8  C   UNL     1      -3.704 -10.957  10.251  0.00  0.00    -0.013 C 
ATOM     13  C   UNL     1      -4.416 -11.797   9.194  0.00  0.00    +0.007 C 
ATOM     14  C   UNL     1      -3.540  -9.516   9.777  0.00  0.00    +0.007 C 
ENDBRANCH   4   8
BRANCH   5  11
ATOM     11  C   UNL     1      -6.010 -12.514  12.933  0.00  0.00    +0.091 C 
BRANCH  11   1
ATOM      1  N   UNL     1      -7.246 -12.609  12.177  0.00  0.00    -0.308 NA
ATOM     17  C   UNL     1      -8.399 -12.721  13.075  0.00  0.00    +0.104 C 
ATOM     18  C   UNL     1      -7.211 -13.753  11.260  0.00  0.00    +0.104 C 
ENDBRANCH  11   1
ENDBRANCH   5  11
BRANCH   7  12
ATOM     12  C   UNL     1      -1.905 -10.432  14.427  0.00  0.00    +0.082 C 
BRANCH  12  16
ATOM      2  N   UNL     1      -4.194 -10.046  15.360  0.00  0.00    -0.342 N 
ATOM      3  N   UNL     1      -2.798 -11.188  16.658  0.00  0.00    -0.232 NA
ATOM     16  C   UNL     1      -2.942 -10.574  15.504  0.00  0.00    +0.109 A 
ATOM     19  C   UNL     1      -4.905 -10.336  16.496  0.00  0.00    +0.066 A 
ATOM     20  C   UNL     1      -4.011 -11.049  17.291  0.00  0.00    +0.092 A 
ATOM     21  C   UNL     1      -4.431 -11.506  18.551  0.00  0.00    -0.023 A 
ATOM     22  C   UNL     1      -6.214 -10.045  16.885  0.00  0.00    +0.028 A 
ATOM     23  C   UNL     1      -5.740 -11.226  18.962  0.00  0.00    +0.005 A 
ATOM     24  C   UNL     1      -6.614 -10.508  18.142  0.00  0.00    +0.002 A 
ATOM     25  C   UNL     1      -3.535 -12.278  19.464  0.00  0.00    +0.046 C 
ATOM     26  H   UNL     1      -4.539  -9.532  14.560  0.00  0.00    +0.167 HD
ENDBRANCH  12  16
ENDBRANCH   7  12
TORSDOF 5
ENDMDL
MODEL 10
REMARK VINA RESULT:      -5.5     25.525     27.856
REMARK  Name = 71692987
REMARK  11 active torsions:
REMARK  status: ('A' for Active; 'I' for Inactive)
REMARK    1  A    between atoms: N_1  and  C_11
REMARK    2  A    between atoms: N_1  and  C_17
REMARK    3  A    between atoms: N_1  and  C_18
REMARK    4  A    between atoms: C_4  and  C_8
REMARK    5  A    between atoms: C_5  and  C_11
REMARK    6  A    between atoms: C_7  and  C_12
REMARK    7  A    between atoms: C_8  and  C_13
REMARK    8  A    between atoms: C_8  and  C_14
REMARK    9  A    between atoms: C_9  and  C_15
REMARK   10  A    between atoms: C_12  and  C_16
REMARK   11  A    between atoms: C_21  and  C_25
REMARK                            x       y       z     vdW  Elec       q    Type
REMARK                         _______ _______ _______ _____ _____    ______ ____
ROOT
ATOM      4  C   UNL     1      17.604  -3.503  23.748  0.00  0.00    +0.000 C 
ATOM      5  C   UNL     1      18.938  -4.020  23.162  0.00  0.00    +0.029 C 
ATOM      6  C   UNL     1      17.368  -4.089  25.147  0.00  0.00    +0.012 C 
ATOM      7  C   UNL     1      18.514  -3.791  26.138  0.00  0.00    +0.022 C 
ATOM      9  C   UNL     1      19.892  -3.886  25.499  0.00  0.00    -0.073 C 
ATOM     10  C   UNL     1      20.060  -3.999  24.169  0.00  0.00    -0.023 C 
ATOM     15  C   UNL     1      21.087  -3.789  26.408  0.00  0.00    +0.039 C 
ENDROOT
BRANCH   4   8
ATOM      8  C   UNL     1      17.562  -1.969  23.776  0.00  0.00    -0.013 C 
ATOM     13  C   UNL     1      17.261  -1.419  22.385  0.00  0.00    +0.007 C 
ATOM     14  C   UNL     1      16.527  -1.483  24.785  0.00  0.00    +0.007 C 
ENDBRANCH   4   8
BRANCH   5  11
ATOM     11  C   UNL     1      18.796  -5.436  22.594  0.00  0.00    +0.091 C 
BRANCH  11   1
ATOM      1  N   UNL     1      20.033  -5.865  21.968  0.00  0.00    -0.308 NA
ATOM     17  C   UNL     1      19.923  -5.813  20.507  0.00  0.00    +0.104 C 
ATOM     18  C   UNL     1      20.391  -7.221  22.396  0.00  0.00    +0.104 C 
ENDBRANCH  11   1
ENDBRANCH   5  11
BRANCH   7  12
ATOM     12  C   UNL     1      18.358  -4.705  27.358  0.00  0.00    +0.082 C 
BRANCH  12  16
ATOM      2  N   UNL     1      18.465  -2.766  28.935  0.00  0.00    -0.342 N 
ATOM      3  N   UNL     1      16.891  -4.277  29.360  0.00  0.00    -0.232 NA
ATOM     16  C   UNL     1      17.878  -3.942  28.559  0.00  0.00    +0.109 A 
ATOM     19  C   UNL     1      17.814  -2.312  30.053  0.00  0.00    +0.066 A 
ATOM     20  C   UNL     1      16.837  -3.273  30.299  0.00  0.00    +0.092 A 
ATOM     21  C   UNL     1      15.977  -3.109  31.397  0.00  0.00    -0.023 A 
ATOM     22  C   UNL     1      17.991  -1.178  30.847  0.00  0.00    +0.028 A 
ATOM     23  C   UNL     1      16.136  -1.978  32.209  0.00  0.00    +0.005 A 
ATOM     24  C   UNL     1      17.126  -1.031  31.936  0.00  0.00    +0.002 A 
ATOM     25  C   UNL     1      14.903  -4.092  31.730  0.00  0.00    +0.046 C 
ATOM     26  H   UNL     1      19.239  -2.308  28.473  0.00  0.00    +0.167 HD
ENDBRANCH  12  16
ENDBRANCH   7  12
TORSDOF 5
ENDMDL
