MODEL 1
REMARK VINA RESULT:      -5.8      0.000      0.000
REMARK  Name = 75536966
REMARK  1 active torsions:
REMARK  status: ('A' for Active; 'I' for Inactive)
REMARK    1  A    between atoms: C_12  and  C_13
REMARK                            x       y       z     vdW  Elec       q    Type
REMARK                         _______ _______ _______ _____ _____    ______ ____
ROOT
ATOM      2  O   UNL     1      11.431   8.229  19.315  0.00  0.00    -0.275 OA
ATOM      3  O   UNL     1      10.848  11.328  25.531  0.00  0.00    -0.253 OA
ATOM      4  N   UNL     1      11.682  10.804  23.393  0.00  0.00    -0.278 N 
ATOM      5  N   UNL     1      12.346   9.222  21.204  0.00  0.00    -0.298 N 
ATOM      6  N   UNL     1      12.933  12.076  24.760  0.00  0.00    -0.297 N 
ATOM      7  C   UNL     1      12.825  11.194  22.589  0.00  0.00    +0.112 C 
ATOM      8  C   UNL     1      13.418   9.978  21.882  0.00  0.00    +0.132 C 
ATOM      9  C   UNL     1      10.633   9.988  22.811  0.00  0.00    +0.128 C 
ATOM     10  C   UNL     1      11.248   8.794  22.084  0.00  0.00    +0.127 C 
ATOM     11  C   UNL     1      13.757  11.869  23.591  0.00  0.00    +0.129 C 
ATOM     13  C   UNL     1      12.328   8.883  19.853  0.00  0.00    +0.219 C 
ATOM     14  C   UNL     1      11.707  11.392  24.663  0.00  0.00    +0.303 C 
ATOM     19  H   UNL     1      13.231  12.585  25.586  0.00  0.00    +0.150 HD
ENDROOT
BRANCH  13  12
ATOM      1  O   UNL     1      13.566   8.148  16.407  0.00  0.00    -0.380 OA
ATOM     12  C   UNL     1      13.485   9.362  19.025  0.00  0.00    +0.079 C 
ATOM     15  C   UNL     1      14.426   8.208  18.681  0.00  0.00    +0.041 C 
ATOM     16  C   UNL     1      12.977  10.069  17.770  0.00  0.00    +0.041 C 
ATOM     17  C   UNL     1      13.895   7.346  17.539  0.00  0.00    +0.160 C 
ATOM     18  C   UNL     1      12.529   9.082  16.698  0.00  0.00    +0.160 C 
ENDBRANCH  13  12
TORSDOF 1
ENDMDL
MODEL 2
REMARK VINA RESULT:      -5.6      2.256      6.615
REMARK  Name = 75536966
REMARK  1 active torsions:
REMARK  status: ('A' for Active; 'I' for Inactive)
REMARK    1  A    between atoms: C_12  and  C_13
REMARK                            x       y       z     vdW  Elec       q    Type
REMARK                         _______ _______ _______ _____ _____    ______ ____
ROOT
ATOM      2  O   UNL     1      12.160  13.283  22.360  0.00  0.00    -0.275 OA
ATOM      3  O   UNL     1      12.234   7.019  19.304  0.00  0.00    -0.253 OA
ATOM      4  N   UNL     1      11.603   8.763  20.754  0.00  0.00    -0.278 N 
ATOM      5  N   UNL     1      11.914  10.974  22.411  0.00  0.00    -0.298 N 
ATOM      6  N   UNL     1      10.818   6.693  21.146  0.00  0.00    -0.297 N 
ATOM      7  C   UNL     1      10.680   8.923  21.863  0.00  0.00    +0.112 C 
ATOM      8  C   UNL     1      11.322   9.745  22.976  0.00  0.00    +0.132 C 
ATOM      9  C   UNL     1      12.284   9.921  20.208  0.00  0.00    +0.128 C 
ATOM     10  C   UNL     1      12.894  10.746  21.339  0.00  0.00    +0.127 C 
ATOM     11  C   UNL     1      10.328   7.489  22.248  0.00  0.00    +0.129 C 
ATOM     13  C   UNL     1      11.633  12.272  22.833  0.00  0.00    +0.219 C 
ATOM     14  C   UNL     1      11.628   7.447  20.277  0.00  0.00    +0.303 C 
ATOM     19  H   UNL     1      10.665   5.694  21.050  0.00  0.00    +0.150 HD
ENDROOT
BRANCH  13  12
ATOM      1  O   UNL     1      11.134  14.688  25.636  0.00  0.00    -0.380 OA
ATOM     12  C   UNL     1      10.619  12.417  23.930  0.00  0.00    +0.079 C 
ATOM     15  C   UNL     1      11.276  12.284  25.303  0.00  0.00    +0.041 C 
ATOM     16  C   UNL     1       9.875  13.744  23.787  0.00  0.00    +0.041 C 
ATOM     17  C   UNL     1      11.998  13.559  25.728  0.00  0.00    +0.160 C 
ATOM     18  C   UNL     1      10.699  14.921  24.298  0.00  0.00    +0.160 C 
ENDBRANCH  13  12
TORSDOF 1
ENDMDL
MODEL 3
REMARK VINA RESULT:      -5.6      2.151      3.281
REMARK  Name = 75536966
REMARK  1 active torsions:
REMARK  status: ('A' for Active; 'I' for Inactive)
REMARK    1  A    between atoms: C_12  and  C_13
REMARK                            x       y       z     vdW  Elec       q    Type
REMARK                         _______ _______ _______ _____ _____    ______ ____
ROOT
ATOM      2  O   UNL     1      13.938   9.130  20.950  0.00  0.00    -0.275 OA
ATOM      3  O   UNL     1      13.683  13.344  26.497  0.00  0.00    -0.253 OA
ATOM      4  N   UNL     1      12.958  11.916  24.771  0.00  0.00    -0.278 N 
ATOM      5  N   UNL     1      12.897  10.752  22.246  0.00  0.00    -0.298 N 
ATOM      6  N   UNL     1      11.423  13.091  25.918  0.00  0.00    -0.297 N 
ATOM      7  C   UNL     1      11.681  11.449  24.263  0.00  0.00    +0.112 C 
ATOM      8  C   UNL     1      11.686  11.439  22.737  0.00  0.00    +0.132 C 
ATOM      9  C   UNL     1      14.190  11.341  24.267  0.00  0.00    +0.128 C 
ATOM     10  C   UNL     1      14.163  11.313  22.740  0.00  0.00    +0.127 C 
ATOM     11  C   UNL     1      10.671  12.404  24.894  0.00  0.00    +0.129 C 
ATOM     13  C   UNL     1      12.911   9.673  21.364  0.00  0.00    +0.219 C 
ATOM     14  C   UNL     1      12.804  12.840  25.811  0.00  0.00    +0.303 C 
ATOM     19  H   UNL     1      11.018  13.740  26.585  0.00  0.00    +0.150 HD
ENDROOT
BRANCH  13  12
ATOM      1  O   UNL     1      11.641   6.369  20.173  0.00  0.00    -0.380 OA
ATOM     12  C   UNL     1      11.575   9.159  20.911  0.00  0.00    +0.079 C 
ATOM     15  C   UNL     1      11.633   8.693  19.457  0.00  0.00    +0.041 C 
ATOM     16  C   UNL     1      11.096   8.046  21.842  0.00  0.00    +0.041 C 
ATOM     17  C   UNL     1      12.272   7.315  19.313  0.00  0.00    +0.160 C 
ATOM     18  C   UNL     1      11.785   6.718  21.548  0.00  0.00    +0.160 C 
ENDBRANCH  13  12
TORSDOF 1
ENDMDL
MODEL 4
REMARK VINA RESULT:      -5.6     29.414     30.900
REMARK  Name = 75536966
REMARK  1 active torsions:
REMARK  status: ('A' for Active; 'I' for Inactive)
REMARK    1  A    between atoms: C_12  and  C_13
REMARK                            x       y       z     vdW  Elec       q    Type
REMARK                         _______ _______ _______ _____ _____    ______ ____
ROOT
ATOM      2  O   UNL     1     -14.123   4.770  34.243  0.00  0.00    -0.275 OA
ATOM      3  O   UNL     1     -15.648  -1.062  30.743  0.00  0.00    -0.253 OA
ATOM      4  N   UNL     1     -15.162   1.204  31.156  0.00  0.00    -0.278 N 
ATOM      5  N   UNL     1     -15.169   3.635  32.508  0.00  0.00    -0.298 N 
ATOM      6  N   UNL     1     -15.927   0.615  29.126  0.00  0.00    -0.297 N 
ATOM      7  C   UNL     1     -15.103   2.424  30.372  0.00  0.00    +0.112 C 
ATOM      8  C   UNL     1     -15.727   3.584  31.142  0.00  0.00    +0.132 C 
ATOM      9  C   UNL     1     -14.708   1.208  32.534  0.00  0.00    +0.128 C 
ATOM     10  C   UNL     1     -15.321   2.392  33.279  0.00  0.00    +0.127 C 
ATOM     11  C   UNL     1     -15.821   2.055  29.077  0.00  0.00    +0.129 C 
ATOM     13  C   UNL     1     -14.561   4.745  33.090  0.00  0.00    +0.219 C 
ATOM     14  C   UNL     1     -15.581   0.108  30.393  0.00  0.00    +0.303 C 
ATOM     19  H   UNL     1     -16.282   0.042  28.368  0.00  0.00    +0.150 HD
ENDROOT
BRANCH  13  12
ATOM      1  O   UNL     1     -14.969   8.408  33.690  0.00  0.00    -0.380 OA
ATOM     12  C   UNL     1     -14.443   5.972  32.233  0.00  0.00    +0.079 C 
ATOM     15  C   UNL     1     -15.778   6.711  32.149  0.00  0.00    +0.041 C 
ATOM     16  C   UNL     1     -13.330   6.877  32.760  0.00  0.00    +0.041 C 
ATOM     17  C   UNL     1     -16.062   7.542  33.396  0.00  0.00    +0.160 C 
ATOM     18  C   UNL     1     -13.775   7.683  33.976  0.00  0.00    +0.160 C 
ENDBRANCH  13  12
TORSDOF 1
ENDMDL
MODEL 5
REMARK VINA RESULT:      -5.5     26.796     27.656
REMARK  Name = 75536966
REMARK  1 active torsions:
REMARK  status: ('A' for Active; 'I' for Inactive)
REMARK    1  A    between atoms: C_12  and  C_13
REMARK                            x       y       z     vdW  Elec       q    Type
REMARK                         _______ _______ _______ _____ _____    ______ ____
ROOT
ATOM      2  O   UNL     1      -2.400 -11.899  14.833  0.00  0.00    -0.275 OA
ATOM      3  O   UNL     1      -6.246 -10.888  20.558  0.00  0.00    -0.253 OA
ATOM      4  N   UNL     1      -5.650 -10.967  18.282  0.00  0.00    -0.278 N 
ATOM      5  N   UNL     1      -4.022 -10.753  16.037  0.00  0.00    -0.298 N 
ATOM      6  N   UNL     1      -7.544  -9.908  18.867  0.00  0.00    -0.297 N 
ATOM      7  C   UNL     1      -6.266 -10.591  17.022  0.00  0.00    +0.112 C 
ATOM      8  C   UNL     1      -5.243  -9.926  16.106  0.00  0.00    +0.132 C 
ATOM      9  C   UNL     1      -4.402 -11.707  18.283  0.00  0.00    +0.128 C 
ATOM     10  C   UNL     1      -3.403 -11.043  17.339  0.00  0.00    +0.127 C 
ATOM     11  C   UNL     1      -7.427  -9.695  17.443  0.00  0.00    +0.129 C 
ATOM     13  C   UNL     1      -3.435 -11.229  14.866  0.00  0.00    +0.219 C 
ATOM     14  C   UNL     1      -6.448 -10.627  19.380  0.00  0.00    +0.303 C 
ATOM     19  H   UNL     1      -8.283  -9.520  19.444  0.00  0.00    +0.150 HD
ENDROOT
BRANCH  13  12
ATOM      1  O   UNL     1      -3.209 -12.481  11.355  0.00  0.00    -0.380 OA
ATOM     12  C   UNL     1      -4.133 -10.891  13.580  0.00  0.00    +0.079 C 
ATOM     15  C   UNL     1      -3.143 -10.361  12.544  0.00  0.00    +0.041 C 
ATOM     16  C   UNL     1      -4.896 -12.108  13.060  0.00  0.00    +0.041 C 
ATOM     17  C   UNL     1      -2.343 -11.477  11.880  0.00  0.00    +0.160 C 
ATOM     18  C   UNL     1      -3.975 -13.113  12.378  0.00  0.00    +0.160 C 
ENDBRANCH  13  12
TORSDOF 1
ENDMDL
MODEL 6
REMARK VINA RESULT:      -5.5     27.605     29.195
REMARK  Name = 75536966
REMARK  1 active torsions:
REMARK  status: ('A' for Active; 'I' for Inactive)
REMARK    1  A    between atoms: C_12  and  C_13
REMARK                            x       y       z     vdW  Elec       q    Type
REMARK                         _______ _______ _______ _____ _____    ______ ____
ROOT
ATOM      2  O   UNL     1      -9.943 -10.383  19.042  0.00  0.00    -0.275 OA
ATOM      3  O   UNL     1      -3.283 -12.234  19.941  0.00  0.00    -0.253 OA
ATOM      4  N   UNL     1      -5.230 -11.429  18.892  0.00  0.00    -0.278 N 
ATOM      5  N   UNL     1      -7.934 -11.253  18.266  0.00  0.00    -0.298 N 
ATOM      6  N   UNL     1      -3.424 -11.867  17.628  0.00  0.00    -0.297 N 
ATOM      7  C   UNL     1      -5.598 -10.988  17.558  0.00  0.00    +0.112 C 
ATOM      8  C   UNL     1      -6.974 -11.527  17.179  0.00  0.00    +0.132 C 
ATOM      9  C   UNL     1      -6.165 -11.266  19.989  0.00  0.00    +0.128 C 
ATOM     10  C   UNL     1      -7.542 -11.784  19.580  0.00  0.00    +0.127 C 
ATOM     11  C   UNL     1      -4.450 -11.488  16.685  0.00  0.00    +0.129 C 
ATOM     13  C   UNL     1      -9.145 -10.579  18.122  0.00  0.00    +0.219 C 
ATOM     14  C   UNL     1      -3.907 -11.883  18.950  0.00  0.00    +0.303 C 
ATOM     19  H   UNL     1      -2.489 -12.165  17.366  0.00  0.00    +0.150 HD
ENDROOT
BRANCH  13  12
ATOM      1  O   UNL     1     -11.421  -7.940  16.779  0.00  0.00    -0.380 OA
ATOM     12  C   UNL     1      -9.468 -10.066  16.748  0.00  0.00    +0.079 C 
ATOM     15  C   UNL     1     -10.941 -10.295  16.411  0.00  0.00    +0.041 C 
ATOM     16  C   UNL     1      -9.086  -8.591  16.634  0.00  0.00    +0.041 C 
ATOM     17  C   UNL     1     -11.855  -9.266  17.070  0.00  0.00    +0.160 C 
ATOM     18  C   UNL     1     -10.116  -7.680  17.292  0.00  0.00    +0.160 C 
ENDBRANCH  13  12
TORSDOF 1
ENDMDL
MODEL 7
REMARK VINA RESULT:      -5.4     26.160     27.713
REMARK  Name = 75536966
REMARK  1 active torsions:
REMARK  status: ('A' for Active; 'I' for Inactive)
REMARK    1  A    between atoms: C_12  and  C_13
REMARK                            x       y       z     vdW  Elec       q    Type
REMARK                         _______ _______ _______ _____ _____    ______ ____
ROOT
ATOM      2  O   UNL     1      -5.920 -11.246  11.170  0.00  0.00    -0.275 OA
ATOM      3  O   UNL     1      -3.799 -11.123  17.808  0.00  0.00    -0.253 OA
ATOM      4  N   UNL     1      -3.715 -10.996  15.459  0.00  0.00    -0.278 N 
ATOM      5  N   UNL     1      -4.333 -11.627  12.822  0.00  0.00    -0.298 N 
ATOM      6  N   UNL     1      -1.784 -11.074  16.608  0.00  0.00    -0.297 N 
ATOM      7  C   UNL     1      -2.682 -10.826  14.454  0.00  0.00    +0.112 C 
ATOM      8  C   UNL     1      -2.932 -11.755  13.270  0.00  0.00    +0.132 C 
ATOM      9  C   UNL     1      -5.112 -10.967  15.071  0.00  0.00    +0.128 C 
ATOM     10  C   UNL     1      -5.336 -11.879  13.867  0.00  0.00    +0.127 C 
ATOM     11  C   UNL     1      -1.389 -11.096  15.218  0.00  0.00    +0.129 C 
ATOM     13  C   UNL     1      -4.741 -11.324  11.525  0.00  0.00    +0.219 C 
ATOM     14  C   UNL     1      -3.184 -11.068  16.752  0.00  0.00    +0.303 C 
ATOM     19  H   UNL     1      -1.137 -11.137  17.387  0.00  0.00    +0.150 HD
ENDROOT
BRANCH  13  12
ATOM      1  O   UNL     1      -4.462  -9.275   8.415  0.00  0.00    -0.380 OA
ATOM     12  C   UNL     1      -3.653 -11.078  10.519  0.00  0.00    +0.079 C 
ATOM     15  C   UNL     1      -4.070 -11.565   9.132  0.00  0.00    +0.041 C 
ATOM     16  C   UNL     1      -3.273  -9.598  10.508  0.00  0.00    +0.041 C 
ATOM     17  C   UNL     1      -5.012 -10.590   8.433  0.00  0.00    +0.160 C 
ATOM     18  C   UNL     1      -4.278  -8.755   9.731  0.00  0.00    +0.160 C 
ENDBRANCH  13  12
TORSDOF 1
ENDMDL
MODEL 8
REMARK VINA RESULT:      -5.1     26.653     28.362
REMARK  Name = 75536966
REMARK  1 active torsions:
REMARK  status: ('A' for Active; 'I' for Inactive)
REMARK    1  A    between atoms: C_12  and  C_13
REMARK                            x       y       z     vdW  Elec       q    Type
REMARK                         _______ _______ _______ _____ _____    ______ ____
ROOT
ATOM      2  O   UNL     1      -7.421 -11.115  16.457  0.00  0.00    -0.275 OA
ATOM      3  O   UNL     1      -3.455  -9.925  10.849  0.00  0.00    -0.253 OA
ATOM      4  N   UNL     1      -4.074 -10.627  13.009  0.00  0.00    -0.278 N 
ATOM      5  N   UNL     1      -5.397 -10.573  15.455  0.00  0.00    -0.298 N 
ATOM      6  N   UNL     1      -1.891 -10.546  12.483  0.00  0.00    -0.297 N 
ATOM      7  C   UNL     1      -3.396 -11.180  14.168  0.00  0.00    +0.112 C 
ATOM      8  C   UNL     1      -3.921 -10.540  15.449  0.00  0.00    +0.132 C 
ATOM      9  C   UNL     1      -5.523 -10.552  12.988  0.00  0.00    +0.128 C 
ATOM     10  C   UNL     1      -6.030  -9.936  14.291  0.00  0.00    +0.127 C 
ATOM     11  C   UNL     1      -1.920 -10.918  13.879  0.00  0.00    +0.129 C 
ATOM     13  C   UNL     1      -6.188 -11.121  16.464  0.00  0.00    +0.219 C 
ATOM     14  C   UNL     1      -3.183 -10.320  11.975  0.00  0.00    +0.303 C 
ATOM     19  H   UNL     1      -1.040 -10.389  11.952  0.00  0.00    +0.150 HD
ENDROOT
BRANCH  13  12
ATOM      1  O   UNL     1      -6.962 -11.642  20.080  0.00  0.00    -0.380 OA
ATOM     12  C   UNL     1      -5.462 -11.754  17.616  0.00  0.00    +0.079 C 
ATOM     15  C   UNL     1      -5.173 -10.728  18.710  0.00  0.00    +0.041 C 
ATOM     16  C   UNL     1      -6.261 -12.941  18.151  0.00  0.00    +0.041 C 
ATOM     17  C   UNL     1      -6.397 -10.436  19.571  0.00  0.00    +0.160 C 
ATOM     18  C   UNL     1      -7.422 -12.498  19.035  0.00  0.00    +0.160 C 
ENDBRANCH  13  12
TORSDOF 1
ENDMDL
MODEL 9
REMARK VINA RESULT:      -5.1     14.584     18.026
REMARK  Name = 75536966
REMARK  1 active torsions:
REMARK  status: ('A' for Active; 'I' for Inactive)
REMARK    1  A    between atoms: C_12  and  C_13
REMARK                            x       y       z     vdW  Elec       q    Type
REMARK                         _______ _______ _______ _____ _____    ______ ____
ROOT
ATOM      2  O   UNL     1      13.249   5.928   1.823  0.00  0.00    -0.275 OA
ATOM      3  O   UNL     1      10.712   8.574   7.752  0.00  0.00    -0.253 OA
ATOM      4  N   UNL     1      11.112   7.044   6.009  0.00  0.00    -0.278 N 
ATOM      5  N   UNL     1      11.570   6.161   3.411  0.00  0.00    -0.298 N 
ATOM      6  N   UNL     1       9.464   6.607   7.473  0.00  0.00    -0.297 N 
ATOM      7  C   UNL     1      10.632   5.725   5.639  0.00  0.00    +0.112 C 
ATOM      8  C   UNL     1      10.389   5.648   4.135  0.00  0.00    +0.132 C 
ATOM      9  C   UNL     1      12.216   7.641   5.280  0.00  0.00    +0.128 C 
ATOM     10  C   UNL     1      11.968   7.528   3.778  0.00  0.00    +0.127 C 
ATOM     11  C   UNL     1       9.384   5.543   6.499  0.00  0.00    +0.129 C 
ATOM     13  C   UNL     1      12.278   5.469   2.431  0.00  0.00    +0.219 C 
ATOM     14  C   UNL     1      10.469   7.538   7.149  0.00  0.00    +0.303 C 
ATOM     19  H   UNL     1       8.824   6.717   8.253  0.00  0.00    +0.150 HD
ENDROOT
BRANCH  13  12
ATOM      1  O   UNL     1      12.196   3.360  -0.650  0.00  0.00    -0.380 OA
ATOM     12  C   UNL     1      11.808   4.077   2.119  0.00  0.00    +0.079 C 
ATOM     15  C   UNL     1      10.674   4.100   1.096  0.00  0.00    +0.041 C 
ATOM     16  C   UNL     1      12.981   3.221   1.643  0.00  0.00    +0.041 C 
ATOM     17  C   UNL     1      11.180   4.307  -0.329  0.00  0.00    +0.160 C 
ATOM     18  C   UNL     1      13.341   3.500   0.189  0.00  0.00    +0.160 C 
ENDBRANCH  13  12
TORSDOF 1
ENDMDL
MODEL 10
REMARK VINA RESULT:      -5.0     14.829     18.818
REMARK  Name = 75536966
REMARK  1 active torsions:
REMARK  status: ('A' for Active; 'I' for Inactive)
REMARK    1  A    between atoms: C_12  and  C_13
REMARK                            x       y       z     vdW  Elec       q    Type
REMARK                         _______ _______ _______ _____ _____    ______ ____
ROOT
ATOM      2  O   UNL     1      11.507   7.249   5.992  0.00  0.00    -0.275 OA
ATOM      3  O   UNL     1      12.694   6.196  -0.796  0.00  0.00    -0.253 OA
ATOM      4  N   UNL     1      11.640   6.086   1.306  0.00  0.00    -0.278 N 
ATOM      5  N   UNL     1      11.424   5.940   4.075  0.00  0.00    -0.298 N 
ATOM      6  N   UNL     1      10.941   4.709  -0.328  0.00  0.00    -0.297 N 
ATOM      7  C   UNL     1      10.490   5.401   1.869  0.00  0.00    +0.112 C 
ATOM      8  C   UNL     1      10.815   4.869   3.261  0.00  0.00    +0.132 C 
ATOM      9  C   UNL     1      12.337   7.089   2.088  0.00  0.00    +0.128 C 
ATOM     10  C   UNL     1      12.626   6.549   3.487  0.00  0.00    +0.127 C 
ATOM     11  C   UNL     1      10.168   4.328   0.832  0.00  0.00    +0.129 C 
ATOM     13  C   UNL     1      10.966   6.367   5.320  0.00  0.00    +0.219 C 
ATOM     14  C   UNL     1      11.863   5.730  -0.029  0.00  0.00    +0.303 C 
ATOM     19  H   UNL     1      10.886   4.245  -1.229  0.00  0.00    +0.150 HD
ENDROOT
BRANCH  13  12
ATOM      1  O   UNL     1       8.293   7.329   7.744  0.00  0.00    -0.380 OA
ATOM     12  C   UNL     1       9.730   5.696   5.846  0.00  0.00    +0.079 C 
ATOM     15  C   UNL     1       9.826   5.482   7.356  0.00  0.00    +0.041 C 
ATOM     16  C   UNL     1       8.490   6.505   5.468  0.00  0.00    +0.041 C 
ATOM     17  C   UNL     1       9.535   6.756   8.144  0.00  0.00    +0.160 C 
ATOM     18  C   UNL     1       8.301   7.718   6.372  0.00  0.00    +0.160 C 
ENDBRANCH  13  12
TORSDOF 1
ENDMDL
