MODEL 1
REMARK VINA RESULT:      -6.3      0.000      0.000
REMARK  Name = 28961799
REMARK  11 active torsions:
REMARK  status: ('A' for Active; 'I' for Inactive)
REMARK    1  A    between atoms: O_5  and  C_14
REMARK    2  A    between atoms: O_6  and  C_20
REMARK    3  A    between atoms: O_6  and  C_23
REMARK    4  A    between atoms: O_7  and  C_21
REMARK    5  A    between atoms: N_9  and  C_11
REMARK    6  A    between atoms: N_10  and  C_19
REMARK    7  A    between atoms: C_12  and  C_20
REMARK    8  A    between atoms: C_13  and  C_19
REMARK    9  A    between atoms: C_16  and  C_21
REMARK   10  A    between atoms: C_22  and  C_24
REMARK   11  A    between atoms: C_29  and  C_30
REMARK                            x       y       z     vdW  Elec       q    Type
REMARK                         _______ _______ _______ _____ _____    ______ ____
ROOT
ATOM      4  O   UNL     1     -17.275   4.405  23.746  0.00  0.00    -0.365 OA
ATOM     11  C   UNL     1     -17.199   3.350  25.878  0.00  0.00    +0.118 C 
ATOM     13  C   UNL     1     -16.493   4.356  24.960  0.00  0.00    +0.155 C 
ATOM     14  C   UNL     1     -17.926   2.442  24.898  0.00  0.00    +0.165 C 
ATOM     16  C   UNL     1     -18.353   3.455  23.842  0.00  0.00    +0.174 C 
ENDROOT
BRANCH  11   9
ATOM      9  N   UNL     1     -16.360   2.668  26.849  0.00  0.00    -0.289 NA
ATOM     12  C   UNL     1     -15.952   3.470  28.008  0.00  0.00    +0.083 C 
ATOM     15  C   UNL     1     -16.964   1.442  27.365  0.00  0.00    +0.085 C 
ATOM     17  C   UNL     1     -15.349   2.391  28.906  0.00  0.00    +0.022 C 
ATOM     18  C   UNL     1     -16.187   1.145  28.643  0.00  0.00    +0.017 C 
BRANCH  12  20
ATOM     20  C   UNL     1     -17.069   4.235  28.724  0.00  0.00    +0.178 C 
BRANCH  20   6
ATOM      6  O   UNL     1     -16.692   5.597  28.823  0.00  0.00    -0.381 OA
ATOM     23  C   UNL     1     -17.495   6.428  27.992  0.00  0.00    +0.194 C 
ENDBRANCH  20   6
ENDBRANCH  12  20
ENDBRANCH  11   9
BRANCH  14   5
ATOM      5  O   UNL     1     -17.048   1.477  24.333  0.00  0.00    -0.388 OA
ATOM     31  H   UNL     1     -17.208   1.459  23.374  0.00  0.00    +0.210 HD
ENDBRANCH  14   5
BRANCH  13  19
ATOM     19  C   UNL     1     -15.058   4.027  24.561  0.00  0.00    +0.137 C 
BRANCH  19  10
ATOM      8  O   UNL     1     -14.742   4.333  21.724  0.00  0.00    -0.270 OA
ATOM     10  N   UNL     1     -14.447   5.131  23.883  0.00  0.00    -0.309 N 
ATOM     22  C   UNL     1     -14.336   5.198  22.496  0.00  0.00    +0.244 C 
ATOM     32  H   UNL     1     -14.028   5.848  24.466  0.00  0.00    +0.149 HD
BRANCH  22  24
ATOM     24  C   UNL     1     -13.653   6.397  21.947  0.00  0.00    +0.037 A 
ATOM     25  C   UNL     1     -12.450   6.260  21.255  0.00  0.00    +0.013 A 
ATOM     26  C   UNL     1     -14.214   7.662  22.125  0.00  0.00    +0.013 A 
ATOM     27  C   UNL     1     -11.809   7.386  20.740  0.00  0.00    +0.013 A 
ATOM     28  C   UNL     1     -13.573   8.788  21.611  0.00  0.00    +0.013 A 
ATOM     29  C   UNL     1     -12.370   8.650  20.919  0.00  0.00    +0.055 A 
BRANCH  29  30
ATOM      1  F   UNL     1     -10.396   9.622  19.977  0.00  0.00    -0.166 F 
ATOM      2  F   UNL     1     -11.615  10.878  21.269  0.00  0.00    -0.166 F 
ATOM      3  F   UNL     1     -12.301  10.379  19.267  0.00  0.00    -0.166 F 
ATOM     30  C   UNL     1     -11.685   9.855  20.367  0.00  0.00    +0.417 C 
ENDBRANCH  29  30
ENDBRANCH  22  24
ENDBRANCH  19  10
ENDBRANCH  13  19
BRANCH  16  21
ATOM     21  C   UNL     1     -18.639   2.881  22.465  0.00  0.00    +0.190 C 
BRANCH  21   7
ATOM      7  O   UNL     1     -17.443   2.901  21.703  0.00  0.00    -0.392 OA
ATOM     33  H   UNL     1     -17.402   2.062  21.213  0.00  0.00    +0.210 HD
ENDBRANCH  21   7
ENDBRANCH  16  21
TORSDOF 10
ENDMDL
MODEL 2
REMARK VINA RESULT:      -6.2     29.718     32.602
REMARK  Name = 28961799
REMARK  11 active torsions:
REMARK  status: ('A' for Active; 'I' for Inactive)
REMARK    1  A    between atoms: O_5  and  C_14
REMARK    2  A    between atoms: O_6  and  C_20
REMARK    3  A    between atoms: O_6  and  C_23
REMARK    4  A    between atoms: O_7  and  C_21
REMARK    5  A    between atoms: N_9  and  C_11
REMARK    6  A    between atoms: N_10  and  C_19
REMARK    7  A    between atoms: C_12  and  C_20
REMARK    8  A    between atoms: C_13  and  C_19
REMARK    9  A    between atoms: C_16  and  C_21
REMARK   10  A    between atoms: C_22  and  C_24
REMARK   11  A    between atoms: C_29  and  C_30
REMARK                            x       y       z     vdW  Elec       q    Type
REMARK                         _______ _______ _______ _____ _____    ______ ____
ROOT
ATOM      4  O   UNL     1       8.708   6.632   8.667  0.00  0.00    -0.365 OA
ATOM     11  C   UNL     1      10.663   7.301   7.485  0.00  0.00    +0.118 C 
ATOM     13  C   UNL     1       9.146   7.497   7.595  0.00  0.00    +0.155 C 
ATOM     14  C   UNL     1      10.868   5.897   8.035  0.00  0.00    +0.165 C 
ATOM     16  C   UNL     1       9.837   5.882   9.157  0.00  0.00    +0.174 C 
ENDROOT
BRANCH  11   9
ATOM      9  N   UNL     1      11.249   7.546   6.178  0.00  0.00    -0.289 NA
ATOM     12  C   UNL     1      11.400   8.957   5.805  0.00  0.00    +0.083 C 
ATOM     15  C   UNL     1      12.555   6.913   6.009  0.00  0.00    +0.085 C 
ATOM     17  C   UNL     1      12.266   8.833   4.554  0.00  0.00    +0.022 C 
ATOM     18  C   UNL     1      13.176   7.639   4.821  0.00  0.00    +0.017 C 
BRANCH  12  20
ATOM     20  C   UNL     1      12.054   9.863   6.853  0.00  0.00    +0.178 C 
BRANCH  20   6
ATOM      6  O   UNL     1      11.077  10.760   7.350  0.00  0.00    -0.381 OA
ATOM     23  C   UNL     1      11.044  10.769   8.772  0.00  0.00    +0.194 C 
ENDBRANCH  20   6
ENDBRANCH  12  20
ENDBRANCH  11   9
BRANCH  14   5
ATOM      5  O   UNL     1      10.558   4.907   7.063  0.00  0.00    -0.388 OA
ATOM     31  H   UNL     1      11.388   4.464   6.819  0.00  0.00    +0.210 HD
ENDBRANCH  14   5
BRANCH  13  19
ATOM     19  C   UNL     1       8.319   7.146   6.364  0.00  0.00    +0.137 C 
BRANCH  19  10
ATOM      8  O   UNL     1       8.265   7.629   3.534  0.00  0.00    -0.270 OA
ATOM     10  N   UNL     1       9.124   6.501   5.370  0.00  0.00    -0.309 N 
ATOM     22  C   UNL     1       9.033   6.798   4.013  0.00  0.00    +0.244 C 
ATOM     32  H   UNL     1       9.731   5.754   5.691  0.00  0.00    +0.149 HD
BRANCH  22  24
ATOM     24  C   UNL     1       9.919   6.024   3.107  0.00  0.00    +0.037 A 
ATOM     25  C   UNL     1      10.614   4.916   3.591  0.00  0.00    +0.013 A 
ATOM     26  C   UNL     1      10.059   6.405   1.773  0.00  0.00    +0.013 A 
ATOM     27  C   UNL     1      11.448   4.189   2.741  0.00  0.00    +0.013 A 
ATOM     28  C   UNL     1      10.892   5.679   0.923  0.00  0.00    +0.013 A 
ATOM     29  C   UNL     1      11.587   4.571   1.407  0.00  0.00    +0.055 A 
BRANCH  29  30
ATOM      1  F   UNL     1      11.856   3.367  -0.644  0.00  0.00    -0.166 F 
ATOM      2  F   UNL     1      12.974   2.666   1.086  0.00  0.00    -0.166 F 
ATOM      3  F   UNL     1      13.568   4.493   0.069  0.00  0.00    -0.166 F 
ATOM     30  C   UNL     1      12.477   3.793   0.497  0.00  0.00    +0.417 C 
ENDBRANCH  29  30
ENDBRANCH  22  24
ENDBRANCH  19  10
ENDBRANCH  13  19
BRANCH  16  21
ATOM     21  C   UNL     1       9.371   4.506   9.597  0.00  0.00    +0.190 C 
BRANCH  21   7
ATOM      7  O   UNL     1       9.863   4.251  10.902  0.00  0.00    -0.392 OA
ATOM     33  H   UNL     1      10.144   3.320  10.926  0.00  0.00    +0.210 HD
ENDBRANCH  21   7
ENDBRANCH  16  21
TORSDOF 10
ENDMDL
MODEL 3
REMARK VINA RESULT:      -6.1     21.144     23.315
REMARK  Name = 28961799
REMARK  11 active torsions:
REMARK  status: ('A' for Active; 'I' for Inactive)
REMARK    1  A    between atoms: O_5  and  C_14
REMARK    2  A    between atoms: O_6  and  C_20
REMARK    3  A    between atoms: O_6  and  C_23
REMARK    4  A    between atoms: O_7  and  C_21
REMARK    5  A    between atoms: N_9  and  C_11
REMARK    6  A    between atoms: N_10  and  C_19
REMARK    7  A    between atoms: C_12  and  C_20
REMARK    8  A    between atoms: C_13  and  C_19
REMARK    9  A    between atoms: C_16  and  C_21
REMARK   10  A    between atoms: C_22  and  C_24
REMARK   11  A    between atoms: C_29  and  C_30
REMARK                            x       y       z     vdW  Elec       q    Type
REMARK                         _______ _______ _______ _____ _____    ______ ____
ROOT
ATOM      4  O   UNL     1      -1.960 -12.642  12.789  0.00  0.00    -0.365 OA
ATOM     11  C   UNL     1      -3.534 -11.374  11.533  0.00  0.00    +0.118 C 
ATOM     13  C   UNL     1      -2.142 -11.346  12.176  0.00  0.00    +0.155 C 
ATOM     14  C   UNL     1      -4.277 -12.406  12.367  0.00  0.00    +0.165 C 
ATOM     16  C   UNL     1      -3.164 -13.415  12.621  0.00  0.00    +0.174 C 
ENDROOT
BRANCH  11   9
ATOM      9  N   UNL     1      -4.203 -10.092  11.394  0.00  0.00    -0.289 NA
ATOM     12  C   UNL     1      -4.087  -9.455  10.078  0.00  0.00    +0.083 C 
ATOM     15  C   UNL     1      -5.627 -10.151  11.720  0.00  0.00    +0.085 C 
ATOM     17  C   UNL     1      -5.102  -8.322  10.215  0.00  0.00    +0.022 C 
ATOM     18  C   UNL     1      -6.212  -8.891  11.093  0.00  0.00    +0.017 C 
BRANCH  12  20
ATOM     20  C   UNL     1      -4.400 -10.344   8.870  0.00  0.00    +0.178 C 
BRANCH  20   6
ATOM      6  O   UNL     1      -5.011  -9.550   7.869  0.00  0.00    -0.381 OA
ATOM     23  C   UNL     1      -5.495 -10.341   6.790  0.00  0.00    +0.194 C 
ENDBRANCH  20   6
ENDBRANCH  12  20
ENDBRANCH  11   9
BRANCH  14   5
ATOM      5  O   UNL     1      -4.734 -11.853  13.594  0.00  0.00    -0.388 OA
ATOM     31  H   UNL     1      -5.664 -11.594  13.473  0.00  0.00    +0.210 HD
ENDBRANCH  14   5
BRANCH  13  19
ATOM     19  C   UNL     1      -1.909 -10.297  13.257  0.00  0.00    +0.137 C 
BRANCH  19  10
ATOM      8  O   UNL     1      -1.197 -10.267  16.039  0.00  0.00    -0.270 OA
ATOM     10  N   UNL     1      -2.790 -10.499  14.368  0.00  0.00    -0.309 N 
ATOM     22  C   UNL     1      -2.358 -10.467  15.692  0.00  0.00    +0.244 C 
ATOM     32  H   UNL     1      -3.752 -10.739  14.149  0.00  0.00    +0.149 HD
BRANCH  22  24
ATOM     24  C   UNL     1      -3.391 -10.720  16.729  0.00  0.00    +0.037 A 
ATOM     25  C   UNL     1      -3.100 -11.541  17.818  0.00  0.00    +0.013 A 
ATOM     26  C   UNL     1      -4.653 -10.138  16.613  0.00  0.00    +0.013 A 
ATOM     27  C   UNL     1      -4.069 -11.779  18.791  0.00  0.00    +0.013 A 
ATOM     28  C   UNL     1      -5.623 -10.377  17.586  0.00  0.00    +0.013 A 
ATOM     29  C   UNL     1      -5.332 -11.198  18.675  0.00  0.00    +0.055 A 
BRANCH  29  30
ATOM      1  F   UNL     1      -5.893 -11.375  20.994  0.00  0.00    -0.166 F 
ATOM      2  F   UNL     1      -6.930 -12.690  19.607  0.00  0.00    -0.166 F 
ATOM      3  F   UNL     1      -7.414 -10.572  19.673  0.00  0.00    -0.166 F 
ATOM     30  C   UNL     1      -6.369 -11.451  19.716  0.00  0.00    +0.417 C 
ENDBRANCH  29  30
ENDBRANCH  22  24
ENDBRANCH  19  10
ENDBRANCH  13  19
BRANCH  16  21
ATOM     21  C   UNL     1      -3.357 -14.310  13.833  0.00  0.00    +0.190 C 
BRANCH  21   7
ATOM      7  O   UNL     1      -2.731 -13.706  14.953  0.00  0.00    -0.392 OA
ATOM     33  H   UNL     1      -1.874 -13.361  14.651  0.00  0.00    +0.210 HD
ENDBRANCH  21   7
ENDBRANCH  16  21
TORSDOF 10
ENDMDL
MODEL 4
REMARK VINA RESULT:      -6.0     18.210     19.681
REMARK  Name = 28961799
REMARK  11 active torsions:
REMARK  status: ('A' for Active; 'I' for Inactive)
REMARK    1  A    between atoms: O_5  and  C_14
REMARK    2  A    between atoms: O_6  and  C_20
REMARK    3  A    between atoms: O_6  and  C_23
REMARK    4  A    between atoms: O_7  and  C_21
REMARK    5  A    between atoms: N_9  and  C_11
REMARK    6  A    between atoms: N_10  and  C_19
REMARK    7  A    between atoms: C_12  and  C_20
REMARK    8  A    between atoms: C_13  and  C_19
REMARK    9  A    between atoms: C_16  and  C_21
REMARK   10  A    between atoms: C_22  and  C_24
REMARK   11  A    between atoms: C_29  and  C_30
REMARK                            x       y       z     vdW  Elec       q    Type
REMARK                         _______ _______ _______ _____ _____    ______ ____
ROOT
ATOM      4  O   UNL     1     -10.423 -13.494  19.964  0.00  0.00    -0.365 OA
ATOM     11  C   UNL     1     -10.470 -11.556  18.583  0.00  0.00    +0.118 C 
ATOM     13  C   UNL     1      -9.589 -12.707  19.085  0.00  0.00    +0.155 C 
ATOM     14  C   UNL     1     -11.501 -11.404  19.692  0.00  0.00    +0.165 C 
ATOM     16  C   UNL     1     -11.713 -12.863  20.079  0.00  0.00    +0.174 C 
ENDROOT
BRANCH  11   9
ATOM      9  N   UNL     1      -9.779 -10.334  18.208  0.00  0.00    -0.289 NA
ATOM     12  C   UNL     1      -9.105 -10.361  16.905  0.00  0.00    +0.083 C 
ATOM     15  C   UNL     1     -10.648  -9.159  18.220  0.00  0.00    +0.085 C 
ATOM     17  C   UNL     1      -8.749  -8.886  16.735  0.00  0.00    +0.022 C 
ATOM     18  C   UNL     1      -9.897  -8.125  17.389  0.00  0.00    +0.017 C 
BRANCH  12  20
ATOM     20  C   UNL     1      -9.939 -10.876  15.728  0.00  0.00    +0.178 C 
BRANCH  20   6
ATOM      6  O   UNL     1      -9.076 -11.533  14.816  0.00  0.00    -0.381 OA
ATOM     23  C   UNL     1      -8.199 -12.437  15.478  0.00  0.00    +0.194 C 
ENDBRANCH  20   6
ENDBRANCH  12  20
ENDBRANCH  11   9
BRANCH  14   5
ATOM      5  O   UNL     1     -10.978 -10.670  20.791  0.00  0.00    -0.388 OA
ATOM     31  H   UNL     1     -10.120 -11.061  21.025  0.00  0.00    +0.210 HD
ENDBRANCH  14   5
BRANCH  13  19
ATOM     19  C   UNL     1      -8.342 -12.319  19.872  0.00  0.00    +0.137 C 
BRANCH  19  10
ATOM      8  O   UNL     1      -6.321 -10.300  20.157  0.00  0.00    -0.270 OA
ATOM     10  N   UNL     1      -7.231 -12.092  18.998  0.00  0.00    -0.309 N 
ATOM     22  C   UNL     1      -6.293 -11.085  19.213  0.00  0.00    +0.244 C 
ATOM     32  H   UNL     1      -7.188 -12.662  18.159  0.00  0.00    +0.149 HD
BRANCH  22  24
ATOM     24  C   UNL     1      -5.214 -10.963  18.200  0.00  0.00    +0.037 A 
ATOM     25  C   UNL     1      -5.454 -10.292  17.001  0.00  0.00    +0.013 A 
ATOM     26  C   UNL     1      -3.960 -11.521  18.447  0.00  0.00    +0.013 A 
ATOM     27  C   UNL     1      -4.441 -10.179  16.050  0.00  0.00    +0.013 A 
ATOM     28  C   UNL     1      -2.946 -11.408  17.495  0.00  0.00    +0.013 A 
ATOM     29  C   UNL     1      -3.187 -10.737  16.296  0.00  0.00    +0.055 A 
BRANCH  29  30
ATOM      1  F   UNL     1      -1.178  -9.653  15.578  0.00  0.00    -0.166 F 
ATOM      2  F   UNL     1      -2.577 -10.295  14.041  0.00  0.00    -0.166 F 
ATOM      3  F   UNL     1      -1.380 -11.761  15.110  0.00  0.00    -0.166 F 
ATOM     30  C   UNL     1      -2.102 -10.615  15.280  0.00  0.00    +0.417 C 
ENDBRANCH  29  30
ENDBRANCH  22  24
ENDBRANCH  19  10
ENDBRANCH  13  19
BRANCH  16  21
ATOM     21  C   UNL     1     -12.261 -13.094  21.476  0.00  0.00    +0.190 C 
BRANCH  21   7
ATOM      7  O   UNL     1     -13.088 -11.998  21.831  0.00  0.00    -0.392 OA
ATOM     33  H   UNL     1     -13.951 -12.363  22.093  0.00  0.00    +0.210 HD
ENDBRANCH  21   7
ENDBRANCH  16  21
TORSDOF 10
ENDMDL
MODEL 5
REMARK VINA RESULT:      -5.9     20.407     22.537
REMARK  Name = 28961799
REMARK  11 active torsions:
REMARK  status: ('A' for Active; 'I' for Inactive)
REMARK    1  A    between atoms: O_5  and  C_14
REMARK    2  A    between atoms: O_6  and  C_20
REMARK    3  A    between atoms: O_6  and  C_23
REMARK    4  A    between atoms: O_7  and  C_21
REMARK    5  A    between atoms: N_9  and  C_11
REMARK    6  A    between atoms: N_10  and  C_19
REMARK    7  A    between atoms: C_12  and  C_20
REMARK    8  A    between atoms: C_13  and  C_19
REMARK    9  A    between atoms: C_16  and  C_21
REMARK   10  A    between atoms: C_22  and  C_24
REMARK   11  A    between atoms: C_29  and  C_30
REMARK                            x       y       z     vdW  Elec       q    Type
REMARK                         _______ _______ _______ _____ _____    ______ ____
ROOT
ATOM      4  O   UNL     1      -7.299  -9.977   9.832  0.00  0.00    -0.365 OA
ATOM     11  C   UNL     1      -5.003 -10.336  10.347  0.00  0.00    +0.118 C 
ATOM     13  C   UNL     1      -6.401 -10.158  10.950  0.00  0.00    +0.155 C 
ATOM     14  C   UNL     1      -5.108  -9.605   9.016  0.00  0.00    +0.165 C 
ATOM     16  C   UNL     1      -6.533  -9.963   8.612  0.00  0.00    +0.174 C 
ENDROOT
BRANCH  11   9
ATOM      9  N   UNL     1      -3.885  -9.937  11.186  0.00  0.00    -0.289 NA
ATOM     12  C   UNL     1      -3.415 -10.949  12.138  0.00  0.00    +0.083 C 
ATOM     15  C   UNL     1      -2.723  -9.494  10.418  0.00  0.00    +0.085 C 
ATOM     17  C   UNL     1      -2.116 -10.307  12.622  0.00  0.00    +0.022 C 
ATOM     18  C   UNL     1      -1.566  -9.567  11.408  0.00  0.00    +0.017 C 
BRANCH  12  20
ATOM     20  C   UNL     1      -3.169 -12.348  11.566  0.00  0.00    +0.178 C 
BRANCH  20   6
ATOM      6  O   UNL     1      -3.781 -13.300  12.419  0.00  0.00    -0.381 OA
ATOM     23  C   UNL     1      -4.794 -12.711  13.226  0.00  0.00    +0.194 C 
ENDBRANCH  20   6
ENDBRANCH  12  20
ENDBRANCH  11   9
BRANCH  14   5
ATOM      5  O   UNL     1      -4.977  -8.200   9.183  0.00  0.00    -0.388 OA
ATOM     31  H   UNL     1      -5.112  -7.786   8.313  0.00  0.00    +0.210 HD
ENDBRANCH  14   5
BRANCH  13  19
ATOM     19  C   UNL     1      -6.597  -8.969  11.884  0.00  0.00    +0.137 C 
BRANCH  19  10
ATOM      8  O   UNL     1      -8.545 -10.104  13.662  0.00  0.00    -0.270 OA
ATOM     10  N   UNL     1      -6.391  -9.348  13.250  0.00  0.00    -0.309 N 
ATOM     22  C   UNL     1      -7.397  -9.895  14.043  0.00  0.00    +0.244 C 
ATOM     32  H   UNL     1      -5.482  -9.137  13.649  0.00  0.00    +0.149 HD
BRANCH  22  24
ATOM     24  C   UNL     1      -7.030 -10.212  15.447  0.00  0.00    +0.037 A 
ATOM     25  C   UNL     1      -7.966 -10.803  16.296  0.00  0.00    +0.013 A 
ATOM     26  C   UNL     1      -5.751  -9.916  15.918  0.00  0.00    +0.013 A 
ATOM     27  C   UNL     1      -7.622 -11.100  17.615  0.00  0.00    +0.013 A 
ATOM     28  C   UNL     1      -5.407 -10.213  17.236  0.00  0.00    +0.013 A 
ATOM     29  C   UNL     1      -6.342 -10.804  18.085  0.00  0.00    +0.055 A 
BRANCH  29  30
ATOM      1  F   UNL     1      -4.704 -11.609  19.632  0.00  0.00    -0.166 F 
ATOM      2  F   UNL     1      -6.789 -12.065  20.051  0.00  0.00    -0.166 F 
ATOM      3  F   UNL     1      -6.035 -10.046  20.333  0.00  0.00    -0.166 F 
ATOM     30  C   UNL     1      -5.973 -11.122  19.495  0.00  0.00    +0.417 C 
ENDBRANCH  29  30
ENDBRANCH  22  24
ENDBRANCH  19  10
ENDBRANCH  13  19
BRANCH  16  21
ATOM     21  C   UNL     1      -7.187  -9.017   7.621  0.00  0.00    +0.190 C 
BRANCH  21   7
ATOM      7  O   UNL     1      -6.319  -8.842   6.513  0.00  0.00    -0.392 OA
ATOM     33  H   UNL     1      -5.952  -7.944   6.576  0.00  0.00    +0.210 HD
ENDBRANCH  21   7
ENDBRANCH  16  21
TORSDOF 10
ENDMDL
MODEL 6
REMARK VINA RESULT:      -5.9     18.864     20.653
REMARK  Name = 28961799
REMARK  11 active torsions:
REMARK  status: ('A' for Active; 'I' for Inactive)
REMARK    1  A    between atoms: O_5  and  C_14
REMARK    2  A    between atoms: O_6  and  C_20
REMARK    3  A    between atoms: O_6  and  C_23
REMARK    4  A    between atoms: O_7  and  C_21
REMARK    5  A    between atoms: N_9  and  C_11
REMARK    6  A    between atoms: N_10  and  C_19
REMARK    7  A    between atoms: C_12  and  C_20
REMARK    8  A    between atoms: C_13  and  C_19
REMARK    9  A    between atoms: C_16  and  C_21
REMARK   10  A    between atoms: C_22  and  C_24
REMARK   11  A    between atoms: C_29  and  C_30
REMARK                            x       y       z     vdW  Elec       q    Type
REMARK                         _______ _______ _______ _____ _____    ______ ____
ROOT
ATOM      4  O   UNL     1      -5.021 -10.136  18.278  0.00  0.00    -0.365 OA
ATOM     11  C   UNL     1      -4.392 -11.780  16.676  0.00  0.00    +0.118 C 
ATOM     13  C   UNL     1      -4.715 -10.294  16.875  0.00  0.00    +0.155 C 
ATOM     14  C   UNL     1      -5.157 -12.452  17.807  0.00  0.00    +0.165 C 
ATOM     16  C   UNL     1      -4.973 -11.425  18.919  0.00  0.00    +0.174 C 
ENDROOT
BRANCH  11   9
ATOM      9  N   UNL     1      -4.643 -12.321  15.351  0.00  0.00    -0.289 NA
ATOM     12  C   UNL     1      -3.771 -11.816  14.285  0.00  0.00    +0.083 C 
ATOM     15  C   UNL     1      -4.578 -13.780  15.307  0.00  0.00    +0.085 C 
ATOM     17  C   UNL     1      -4.125 -12.772  13.147  0.00  0.00    +0.022 C 
ATOM     18  C   UNL     1      -4.408 -14.107  13.828  0.00  0.00    +0.017 C 
BRANCH  12  20
ATOM     20  C   UNL     1      -2.268 -11.830  14.582  0.00  0.00    +0.178 C 
BRANCH  20   6
ATOM      6  O   UNL     1      -1.785 -10.499  14.533  0.00  0.00    -0.381 OA
ATOM     23  C   UNL     1      -1.046 -10.163  15.701  0.00  0.00    +0.194 C 
ENDBRANCH  20   6
ENDBRANCH  12  20
ENDBRANCH  11   9
BRANCH  14   5
ATOM      5  O   UNL     1      -6.535 -12.596  17.488  0.00  0.00    -0.388 OA
ATOM     31  H   UNL     1      -6.977 -11.758  17.708  0.00  0.00    +0.210 HD
ENDBRANCH  14   5
BRANCH  13  19
ATOM     19  C   UNL     1      -5.899  -9.741  16.089  0.00  0.00    +0.137 C 
BRANCH  19  10
ATOM      8  O   UNL     1      -8.584  -9.458  15.112  0.00  0.00    -0.270 OA
ATOM     10  N   UNL     1      -7.101  -9.793  16.865  0.00  0.00    -0.309 N 
ATOM     22  C   UNL     1      -8.369  -9.646  16.306  0.00  0.00    +0.244 C 
ATOM     32  H   UNL     1      -6.991  -9.877  17.870  0.00  0.00    +0.149 HD
BRANCH  22  24
ATOM     24  C   UNL     1      -9.515  -9.700  17.249  0.00  0.00    +0.037 A 
ATOM     25  C   UNL     1      -9.452 -10.518  18.377  0.00  0.00    +0.013 A 
ATOM     26  C   UNL     1     -10.655  -8.935  17.006  0.00  0.00    +0.013 A 
ATOM     27  C   UNL     1     -10.529 -10.570  19.262  0.00  0.00    +0.013 A 
ATOM     28  C   UNL     1     -11.732  -8.987  17.891  0.00  0.00    +0.013 A 
ATOM     29  C   UNL     1     -11.669  -9.805  19.019  0.00  0.00    +0.055 A 
BRANCH  29  30
ATOM      1  F   UNL     1     -12.594  -9.200  21.141  0.00  0.00    -0.166 F 
ATOM      2  F   UNL     1     -13.151 -11.135  20.318  0.00  0.00    -0.166 F 
ATOM      3  F   UNL     1     -13.966  -9.309  19.465  0.00  0.00    -0.166 F 
ATOM     30  C   UNL     1     -12.820  -9.858  19.965  0.00  0.00    +0.417 C 
ENDBRANCH  29  30
ENDBRANCH  22  24
ENDBRANCH  19  10
ENDBRANCH  13  19
BRANCH  16  21
ATOM     21  C   UNL     1      -6.008 -11.473  20.028  0.00  0.00    +0.190 C 
BRANCH  21   7
ATOM      7  O   UNL     1      -6.649 -10.210  20.111  0.00  0.00    -0.392 OA
ATOM     33  H   UNL     1      -6.616  -9.814  19.223  0.00  0.00    +0.210 HD
ENDBRANCH  21   7
ENDBRANCH  16  21
TORSDOF 10
ENDMDL
MODEL 7
REMARK VINA RESULT:      -5.9     18.842     20.151
REMARK  Name = 28961799
REMARK  11 active torsions:
REMARK  status: ('A' for Active; 'I' for Inactive)
REMARK    1  A    between atoms: O_5  and  C_14
REMARK    2  A    between atoms: O_6  and  C_20
REMARK    3  A    between atoms: O_6  and  C_23
REMARK    4  A    between atoms: O_7  and  C_21
REMARK    5  A    between atoms: N_9  and  C_11
REMARK    6  A    between atoms: N_10  and  C_19
REMARK    7  A    between atoms: C_12  and  C_20
REMARK    8  A    between atoms: C_13  and  C_19
REMARK    9  A    between atoms: C_16  and  C_21
REMARK   10  A    between atoms: C_22  and  C_24
REMARK   11  A    between atoms: C_29  and  C_30
REMARK                            x       y       z     vdW  Elec       q    Type
REMARK                         _______ _______ _______ _____ _____    ______ ____
ROOT
ATOM      4  O   UNL     1      -6.051 -11.635  17.534  0.00  0.00    -0.365 OA
ATOM     11  C   UNL     1      -8.202 -11.410  18.530  0.00  0.00    +0.118 C 
ATOM     13  C   UNL     1      -7.382 -11.140  17.262  0.00  0.00    +0.155 C 
ATOM     14  C   UNL     1      -7.145 -11.432  19.624  0.00  0.00    +0.165 C 
ATOM     16  C   UNL     1      -5.997 -12.116  18.891  0.00  0.00    +0.174 C 
ENDROOT
BRANCH  11   9
ATOM      9  N   UNL     1      -9.325 -10.520  18.771  0.00  0.00    -0.289 NA
ATOM     12  C   UNL     1     -10.364 -10.516  17.735  0.00  0.00    +0.083 C 
ATOM     15  C   UNL     1      -9.989 -10.770  20.048  0.00  0.00    +0.085 C 
ATOM     17  C   UNL     1     -11.462  -9.717  18.434  0.00  0.00    +0.022 C 
ATOM     18  C   UNL     1     -11.347 -10.092  19.907  0.00  0.00    +0.017 C 
BRANCH  12  20
ATOM     20  C   UNL     1     -10.870 -11.890  17.285  0.00  0.00    +0.178 C 
BRANCH  20   6
ATOM      6  O   UNL     1     -10.610 -12.036  15.900  0.00  0.00    -0.381 OA
ATOM     23  C   UNL     1      -9.992 -13.284  15.609  0.00  0.00    +0.194 C 
ENDBRANCH  20   6
ENDBRANCH  12  20
ENDBRANCH  11   9
BRANCH  14   5
ATOM      5  O   UNL     1      -6.772 -10.117  20.013  0.00  0.00    -0.388 OA
ATOM     31  H   UNL     1      -6.529 -10.145  20.954  0.00  0.00    +0.210 HD
ENDBRANCH  14   5
BRANCH  13  19
ATOM     19  C   UNL     1      -7.244  -9.683  16.834  0.00  0.00    +0.137 C 
BRANCH  19  10
ATOM      8  O   UNL     1      -8.227 -10.339  14.217  0.00  0.00    -0.270 OA
ATOM     10  N   UNL     1      -6.527  -9.575  15.600  0.00  0.00    -0.309 N 
ATOM     22  C   UNL     1      -7.084  -9.916  14.369  0.00  0.00    +0.244 C 
ATOM     32  H   UNL     1      -5.553  -9.298  15.662  0.00  0.00    +0.149 HD
BRANCH  22  24
ATOM     24  C   UNL     1      -6.202  -9.771  13.183  0.00  0.00    +0.037 A 
ATOM     25  C   UNL     1      -4.930 -10.344  13.185  0.00  0.00    +0.013 A 
ATOM     26  C   UNL     1      -6.643  -9.059  12.068  0.00  0.00    +0.013 A 
ATOM     27  C   UNL     1      -4.101 -10.207  12.072  0.00  0.00    +0.013 A 
ATOM     28  C   UNL     1      -5.815  -8.922  10.955  0.00  0.00    +0.013 A 
ATOM     29  C   UNL     1      -4.543  -9.495  10.957  0.00  0.00    +0.055 A 
BRANCH  29  30
ATOM      1  F   UNL     1      -4.001  -8.306   8.953  0.00  0.00    -0.166 F 
ATOM      2  F   UNL     1      -3.667 -10.455   8.966  0.00  0.00    -0.166 F 
ATOM      3  F   UNL     1      -2.346  -9.137  10.082  0.00  0.00    -0.166 F 
ATOM     30  C   UNL     1      -3.658  -9.349   9.766  0.00  0.00    +0.417 C 
ENDBRANCH  29  30
ENDBRANCH  22  24
ENDBRANCH  19  10
ENDBRANCH  13  19
BRANCH  16  21
ATOM     21  C   UNL     1      -4.613 -11.855  19.459  0.00  0.00    +0.190 C 
BRANCH  21   7
ATOM      7  O   UNL     1      -3.726 -12.855  18.982  0.00  0.00    -0.392 OA
ATOM     33  H   UNL     1      -2.872 -12.714  19.424  0.00  0.00    +0.210 HD
ENDBRANCH  21   7
ENDBRANCH  16  21
TORSDOF 10
ENDMDL
MODEL 8
REMARK VINA RESULT:      -5.9      7.455     10.158
REMARK  Name = 28961799
REMARK  11 active torsions:
REMARK  status: ('A' for Active; 'I' for Inactive)
REMARK    1  A    between atoms: O_5  and  C_14
REMARK    2  A    between atoms: O_6  and  C_20
REMARK    3  A    between atoms: O_6  and  C_23
REMARK    4  A    between atoms: O_7  and  C_21
REMARK    5  A    between atoms: N_9  and  C_11
REMARK    6  A    between atoms: N_10  and  C_19
REMARK    7  A    between atoms: C_12  and  C_20
REMARK    8  A    between atoms: C_13  and  C_19
REMARK    9  A    between atoms: C_16  and  C_21
REMARK   10  A    between atoms: C_22  and  C_24
REMARK   11  A    between atoms: C_29  and  C_30
REMARK                            x       y       z     vdW  Elec       q    Type
REMARK                         _______ _______ _______ _____ _____    ______ ____
ROOT
ATOM      4  O   UNL     1     -13.550   1.448  30.414  0.00  0.00    -0.365 OA
ATOM     11  C   UNL     1     -15.586   1.770  29.223  0.00  0.00    +0.118 C 
ATOM     13  C   UNL     1     -14.705   2.314  30.354  0.00  0.00    +0.155 C 
ATOM     14  C   UNL     1     -15.202   0.298  29.168  0.00  0.00    +0.165 C 
ATOM     16  C   UNL     1     -13.707   0.387  29.451  0.00  0.00    +0.174 C 
ENDROOT
BRANCH  11   9
ATOM      9  N   UNL     1     -17.010   2.035  29.333  0.00  0.00    -0.289 NA
ATOM     12  C   UNL     1     -17.391   3.451  29.355  0.00  0.00    +0.083 C 
ATOM     15  C   UNL     1     -17.795   1.394  28.280  0.00  0.00    +0.085 C 
ATOM     17  C   UNL     1     -18.907   3.344  29.199  0.00  0.00    +0.022 C 
ATOM     18  C   UNL     1     -19.125   2.137  28.294  0.00  0.00    +0.017 C 
BRANCH  12  20
ATOM     20  C   UNL     1     -16.776   4.330  28.262  0.00  0.00    +0.178 C 
BRANCH  20   6
ATOM      6  O   UNL     1     -16.712   5.664  28.736  0.00  0.00    -0.381 OA
ATOM     23  C   UNL     1     -16.338   5.718  30.107  0.00  0.00    +0.194 C 
ENDBRANCH  20   6
ENDBRANCH  12  20
ENDBRANCH  11   9
BRANCH  14   5
ATOM      5  O   UNL     1     -15.857  -0.448  30.185  0.00  0.00    -0.388 OA
ATOM     31  H   UNL     1     -16.031  -1.337  29.833  0.00  0.00    +0.210 HD
ENDBRANCH  14   5
BRANCH  13  19
ATOM     19  C   UNL     1     -15.321   2.342  31.748  0.00  0.00    +0.137 C 
BRANCH  19  10
ATOM      8  O   UNL     1     -16.616   4.316  33.383  0.00  0.00    -0.270 OA
ATOM     10  N   UNL     1     -14.682   3.321  32.575  0.00  0.00    -0.309 N 
ATOM     22  C   UNL     1     -15.390   4.244  33.339  0.00  0.00    +0.244 C 
ATOM     32  H   UNL     1     -13.669   3.362  32.530  0.00  0.00    +0.149 HD
BRANCH  22  24
ATOM     24  C   UNL     1     -14.580   5.210  34.124  0.00  0.00    +0.037 A 
ATOM     25  C   UNL     1     -14.211   6.432  33.560  0.00  0.00    +0.013 A 
ATOM     26  C   UNL     1     -14.185   4.896  35.424  0.00  0.00    +0.013 A 
ATOM     27  C   UNL     1     -13.449   7.338  34.297  0.00  0.00    +0.013 A 
ATOM     28  C   UNL     1     -13.423   5.802  36.161  0.00  0.00    +0.013 A 
ATOM     29  C   UNL     1     -13.054   7.024  35.597  0.00  0.00    +0.055 A 
BRANCH  29  30
ATOM      1  F   UNL     1     -11.407   8.759  35.620  0.00  0.00    -0.166 F 
ATOM      2  F   UNL     1     -11.436   7.380  37.302  0.00  0.00    -0.166 F 
ATOM      3  F   UNL     1     -12.990   8.885  37.097  0.00  0.00    -0.166 F 
ATOM     30  C   UNL     1     -12.241   7.993  36.385  0.00  0.00    +0.417 C 
ENDBRANCH  29  30
ENDBRANCH  22  24
ENDBRANCH  19  10
ENDBRANCH  13  19
BRANCH  16  21
ATOM     21  C   UNL     1     -13.069  -0.879  29.993  0.00  0.00    +0.190 C 
BRANCH  21   7
ATOM      7  O   UNL     1     -13.339  -1.947  29.099  0.00  0.00    -0.392 OA
ATOM     33  H   UNL     1     -14.303  -1.986  28.981  0.00  0.00    +0.210 HD
ENDBRANCH  21   7
ENDBRANCH  16  21
TORSDOF 10
ENDMDL
MODEL 9
REMARK VINA RESULT:      -5.8     17.959     19.875
REMARK  Name = 28961799
REMARK  11 active torsions:
REMARK  status: ('A' for Active; 'I' for Inactive)
REMARK    1  A    between atoms: O_5  and  C_14
REMARK    2  A    between atoms: O_6  and  C_20
REMARK    3  A    between atoms: O_6  and  C_23
REMARK    4  A    between atoms: O_7  and  C_21
REMARK    5  A    between atoms: N_9  and  C_11
REMARK    6  A    between atoms: N_10  and  C_19
REMARK    7  A    between atoms: C_12  and  C_20
REMARK    8  A    between atoms: C_13  and  C_19
REMARK    9  A    between atoms: C_16  and  C_21
REMARK   10  A    between atoms: C_22  and  C_24
REMARK   11  A    between atoms: C_29  and  C_30
REMARK                            x       y       z     vdW  Elec       q    Type
REMARK                         _______ _______ _______ _____ _____    ______ ____
ROOT
ATOM      4  O   UNL     1      -7.265 -10.873  19.518  0.00  0.00    -0.365 OA
ATOM     11  C   UNL     1      -6.055 -11.556  17.585  0.00  0.00    +0.118 C 
ATOM     13  C   UNL     1      -6.595 -10.343  18.353  0.00  0.00    +0.155 C 
ATOM     14  C   UNL     1      -6.996 -12.675  18.006  0.00  0.00    +0.165 C 
ATOM     16  C   UNL     1      -7.226 -12.312  19.469  0.00  0.00    +0.174 C 
ENDROOT
BRANCH  11   9
ATOM      9  N   UNL     1      -5.894 -11.389  16.151  0.00  0.00    -0.289 NA
ATOM     12  C   UNL     1      -4.833 -10.464  15.736  0.00  0.00    +0.083 C 
ATOM     15  C   UNL     1      -5.664 -12.650  15.450  0.00  0.00    +0.085 C 
ATOM     17  C   UNL     1      -4.775 -10.747  14.236  0.00  0.00    +0.022 C 
ATOM     18  C   UNL     1      -5.082 -12.235  14.104  0.00  0.00    +0.017 C 
BRANCH  12  20
ATOM     20  C   UNL     1      -3.467 -10.666  16.399  0.00  0.00    +0.178 C 
BRANCH  20   6
ATOM      6  O   UNL     1      -2.456 -10.360  15.454  0.00  0.00    -0.381 OA
ATOM     23  C   UNL     1      -1.164 -10.716  15.931  0.00  0.00    +0.194 C 
ENDBRANCH  20   6
ENDBRANCH  12  20
ENDBRANCH  11   9
BRANCH  14   5
ATOM      5  O   UNL     1      -8.220 -12.624  17.284  0.00  0.00    -0.388 OA
ATOM     31  H   UNL     1      -8.934 -12.467  17.925  0.00  0.00    +0.210 HD
ENDBRANCH  14   5
BRANCH  13  19
ATOM     19  C   UNL     1      -7.598  -9.460  17.618  0.00  0.00    +0.137 C 
BRANCH  19  10
ATOM      8  O   UNL     1     -10.081 -10.348  16.484  0.00  0.00    -0.270 OA
ATOM     10  N   UNL     1      -8.874  -9.481  18.266  0.00  0.00    -0.309 N 
ATOM     22  C   UNL     1     -10.034  -9.932  17.639  0.00  0.00    +0.244 C 
ATOM     32  H   UNL     1      -8.918  -9.085  19.199  0.00  0.00    +0.149 HD
BRANCH  22  24
ATOM     24  C   UNL     1     -11.284  -9.867  18.438  0.00  0.00    +0.037 A 
ATOM     25  C   UNL     1     -12.506  -9.642  17.805  0.00  0.00    +0.013 A 
ATOM     26  C   UNL     1     -11.235 -10.028  19.823  0.00  0.00    +0.013 A 
ATOM     27  C   UNL     1     -13.680  -9.580  18.556  0.00  0.00    +0.013 A 
ATOM     28  C   UNL     1     -12.409  -9.966  20.573  0.00  0.00    +0.013 A 
ATOM     29  C   UNL     1     -13.631  -9.742  19.941  0.00  0.00    +0.055 A 
BRANCH  29  30
ATOM      1  F   UNL     1     -16.014  -9.940  20.020  0.00  0.00    -0.166 F 
ATOM      2  F   UNL     1     -15.088  -8.449  21.304  0.00  0.00    -0.166 F 
ATOM      3  F   UNL     1     -14.916 -10.562  21.783  0.00  0.00    -0.166 F 
ATOM     30  C   UNL     1     -14.886  -9.677  20.744  0.00  0.00    +0.417 C 
ENDBRANCH  29  30
ENDBRANCH  22  24
ENDBRANCH  19  10
ENDBRANCH  13  19
BRANCH  16  21
ATOM     21  C   UNL     1      -8.496 -12.869  20.087  0.00  0.00    +0.190 C 
BRANCH  21   7
ATOM      7  O   UNL     1      -8.576 -14.256  19.800  0.00  0.00    -0.392 OA
ATOM     33  H   UNL     1      -9.272 -14.371  19.131  0.00  0.00    +0.210 HD
ENDBRANCH  21   7
ENDBRANCH  16  21
TORSDOF 10
ENDMDL
MODEL 10
REMARK VINA RESULT:      -5.8     30.166     34.804
REMARK  Name = 28961799
REMARK  11 active torsions:
REMARK  status: ('A' for Active; 'I' for Inactive)
REMARK    1  A    between atoms: O_5  and  C_14
REMARK    2  A    between atoms: O_6  and  C_20
REMARK    3  A    between atoms: O_6  and  C_23
REMARK    4  A    between atoms: O_7  and  C_21
REMARK    5  A    between atoms: N_9  and  C_11
REMARK    6  A    between atoms: N_10  and  C_19
REMARK    7  A    between atoms: C_12  and  C_20
REMARK    8  A    between atoms: C_13  and  C_19
REMARK    9  A    between atoms: C_16  and  C_21
REMARK   10  A    between atoms: C_22  and  C_24
REMARK   11  A    between atoms: C_29  and  C_30
REMARK                            x       y       z     vdW  Elec       q    Type
REMARK                         _______ _______ _______ _____ _____    ______ ____
ROOT
ATOM      4  O   UNL     1      12.475   7.677   1.895  0.00  0.00    -0.365 OA
ATOM     11  C   UNL     1      12.758   5.885   0.352  0.00  0.00    +0.118 C 
ATOM     13  C   UNL     1      11.856   7.064   0.741  0.00  0.00    +0.155 C 
ATOM     14  C   UNL     1      13.437   5.525   1.666  0.00  0.00    +0.165 C 
ATOM     16  C   UNL     1      13.638   6.912   2.266  0.00  0.00    +0.174 C 
ENDROOT
BRANCH  11   9
ATOM      9  N   UNL     1      12.110   4.780  -0.333  0.00  0.00    -0.289 NA
ATOM     12  C   UNL     1      11.574   5.086  -1.664  0.00  0.00    +0.083 C 
ATOM     15  C   UNL     1      12.974   3.610  -0.475  0.00  0.00    +0.085 C 
ATOM     17  C   UNL     1      11.238   3.684  -2.168  0.00  0.00    +0.022 C 
ATOM     18  C   UNL     1      12.313   2.782  -1.572  0.00  0.00    +0.017 C 
BRANCH  12  20
ATOM     20  C   UNL     1      12.523   5.814  -2.620  0.00  0.00    +0.178 C 
BRANCH  20   6
ATOM      6  O   UNL     1      12.286   5.346  -3.936  0.00  0.00    -0.381 OA
ATOM     23  C   UNL     1      12.283   6.410  -4.881  0.00  0.00    +0.194 C 
ENDBRANCH  20   6
ENDBRANCH  12  20
ENDBRANCH  11   9
BRANCH  14   5
ATOM      5  O   UNL     1      12.586   4.745   2.494  0.00  0.00    -0.388 OA
ATOM     31  H   UNL     1      11.668   4.993   2.292  0.00  0.00    +0.210 HD
ENDBRANCH  14   5
BRANCH  13  19
ATOM     19  C   UNL     1      10.419   6.729   1.123  0.00  0.00    +0.137 C 
BRANCH  19  10
ATOM      8  O   UNL     1       8.426   7.621   2.988  0.00  0.00    -0.270 OA
ATOM     10  N   UNL     1      10.324   6.375   2.508  0.00  0.00    -0.309 N 
ATOM     22  C   UNL     1       9.319   6.856   3.344  0.00  0.00    +0.244 C 
ATOM     32  H   UNL     1      11.071   5.801   2.883  0.00  0.00    +0.149 HD
BRANCH  22  24
ATOM     24  C   UNL     1       9.373   6.415   4.761  0.00  0.00    +0.037 A 
ATOM     25  C   UNL     1       9.014   7.296   5.780  0.00  0.00    +0.013 A 
ATOM     26  C   UNL     1       9.786   5.120   5.073  0.00  0.00    +0.013 A 
ATOM     27  C   UNL     1       9.066   6.883   7.111  0.00  0.00    +0.013 A 
ATOM     28  C   UNL     1       9.838   4.706   6.404  0.00  0.00    +0.013 A 
ATOM     29  C   UNL     1       9.479   5.588   7.423  0.00  0.00    +0.055 A 
BRANCH  29  30
ATOM      1  F   UNL     1      10.671   5.530   9.497  0.00  0.00    -0.166 F 
ATOM      2  F   UNL     1       9.481   3.786   8.975  0.00  0.00    -0.166 F 
ATOM      3  F   UNL     1       8.507   5.623   9.608  0.00  0.00    -0.166 F 
ATOM     30  C   UNL     1       9.534   5.144   8.846  0.00  0.00    +0.417 C 
ENDBRANCH  29  30
ENDBRANCH  22  24
ENDBRANCH  19  10
ENDBRANCH  13  19
BRANCH  16  21
ATOM     21  C   UNL     1      13.802   6.952   3.775  0.00  0.00    +0.190 C 
BRANCH  21   7
ATOM      7  O   UNL     1      12.546   7.243   4.366  0.00  0.00    -0.392 OA
ATOM     33  H   UNL     1      11.876   6.731   3.882  0.00  0.00    +0.210 HD
ENDBRANCH  21   7
ENDBRANCH  16  21
TORSDOF 10
ENDMDL
