REMARK  Name = 51136914
REMARK  5 active torsions:
REMARK  status: ('A' for Active; 'I' for Inactive)
REMARK    1  A    between atoms: N_2  and  C_13
REMARK    2  A    between atoms: C_9  and  C_14
REMARK    3  A    between atoms: C_13  and  C_15
REMARK    4  A    between atoms: C_16  and  C_19
REMARK    5  A    between atoms: C_25  and  C_26
REMARK                            x       y       z     vdW  Elec       q    Type
REMARK                         _______ _______ _______ _____ _____    ______ ____
ROOT
ATOM      1  O   UNL     1      -2.307  -0.442   2.021  0.00  0.00    -0.336 OA
ATOM      3  N   UNL     1      -1.368  -1.135   0.110  0.00  0.00    -0.190 NA
ATOM      4  N   UNL     1      -0.941  -0.153   2.131  0.00  0.00    -0.056 NA
ATOM     14  C   UNL     1      -2.473  -1.019   0.802  0.00  0.00    +0.245 A 
ATOM     16  C   UNL     1      -0.456  -0.590   0.966  0.00  0.00    +0.204 A 
ENDROOT
BRANCH  16  19
ATOM      6  N   UNL     1       3.173   0.171   1.247  0.00  0.00    -0.254 NA
ATOM     19  C   UNL     1       0.935  -0.500   0.626  0.00  0.00    +0.041 A 
ATOM     22  C   UNL     1       1.406  -0.968  -0.596  0.00  0.00    +0.015 A 
ATOM     23  C   UNL     1       1.851   0.056   1.505  0.00  0.00    +0.123 A 
ATOM     24  C   UNL     1       2.760  -0.866  -0.897  0.00  0.00    +0.029 A 
ATOM     25  C   UNL     1       3.594  -0.294   0.049  0.00  0.00    +0.074 A 
BRANCH  25  26
ATOM      7  N   UNL     1       6.840   0.138  -1.730  0.00  0.00    -0.243 NA
ATOM      8  N   UNL     1       7.269  -0.064   0.632  0.00  0.00    -0.243 NA
ATOM     26  C   UNL     1       5.010  -0.157  -0.195  0.00  0.00    +0.037 A 
ATOM     27  C   UNL     1       5.524   0.009  -1.465  0.00  0.00    +0.124 A 
ATOM     28  C   UNL     1       5.939  -0.187   0.825  0.00  0.00    +0.124 A 
ATOM     29  C   UNL     1       7.645   0.093  -0.651  0.00  0.00    +0.221 A 
ENDBRANCH  25  26
ENDBRANCH  16  19
BRANCH  14   9
ATOM      2  N   UNL     1      -4.352  -0.799  -0.814  0.00  0.00    -0.287 NA
ATOM      9  C   UNL     1      -3.884  -1.430   0.436  0.00  0.00    +0.146 C 
ATOM     10  C   UNL     1      -4.015  -2.943   0.184  0.00  0.00    +0.030 C 
ATOM     11  C   UNL     1      -4.622  -3.063  -1.207  0.00  0.00    +0.017 C 
ATOM     12  C   UNL     1      -5.310  -1.729  -1.412  0.00  0.00    +0.085 C 
BRANCH   2  13
ATOM     13  C   UNL     1      -4.927   0.524  -0.610  0.00  0.00    +0.120 C 
BRANCH  13  15
ATOM      5  N   UNL     1      -1.892   3.542  -0.189  0.00  0.00    -0.263 NA
ATOM     15  C   UNL     1      -3.865   1.581  -0.462  0.00  0.00    -0.030 A 
ATOM     17  C   UNL     1      -3.804   2.354   0.692  0.00  0.00    +0.024 A 
ATOM     18  C   UNL     1      -2.940   1.787  -1.480  0.00  0.00    +0.024 A 
ATOM     20  C   UNL     1      -2.808   3.313   0.779  0.00  0.00    +0.111 A 
ATOM     21  C   UNL     1      -1.982   2.771  -1.296  0.00  0.00    +0.111 A 
ENDBRANCH  13  15
ENDBRANCH   2  13
ENDBRANCH  14   9
TORSDOF 5
