REMARK  Name = 7051260
REMARK  8 active torsions:
REMARK  status: ('A' for Active; 'I' for Inactive)
REMARK    1  A    between atoms: S_1  and  N_10
REMARK    2  A    between atoms: S_1  and  C_28
REMARK    3  A    between atoms: O_6  and  C_29
REMARK    4  A    between atoms: O_6  and  C_35
REMARK    5  A    between atoms: O_7  and  C_34
REMARK    6  A    between atoms: O_7  and  C_36
REMARK    7  A    between atoms: N_10  and  C_21
REMARK    8  A    between atoms: C_20  and  C_23
REMARK                            x       y       z     vdW  Elec       q    Type
REMARK                         _______ _______ _______ _____ _____    ______ ____
ROOT
ATOM      2  O   UNL     1       0.924   3.359  -0.922  0.00  0.00    -0.266 OA
ATOM      3  O   UNL     1       3.150  -1.020  -2.570  0.00  0.00    -0.270 OA
ATOM      8  N   UNL     1       3.938  -0.594  -0.409  0.00  0.00    -0.297 N 
ATOM      9  N   UNL     1       2.305   2.003   0.398  0.00  0.00    -0.310 N 
ATOM     11  C   UNL     1       4.810   1.710  -0.047  0.00  0.00    +0.027 C 
ATOM     12  C   UNL     1       3.747   0.497   1.814  0.00  0.00    +0.054 C 
ATOM     13  C   UNL     1       4.899   1.432   1.450  0.00  0.00    +0.018 C 
ATOM     14  C   UNL     1       4.922   0.398  -0.845  0.00  0.00    +0.113 C 
ATOM     15  C   UNL     1       3.498   2.450  -0.335  0.00  0.00    +0.130 C 
ATOM     16  C   UNL     1       3.897  -0.830   1.043  0.00  0.00    +0.117 C 
ATOM     17  C   UNL     1       2.406   1.128   1.488  0.00  0.00    +0.027 A 
ATOM     18  C   UNL     1       1.319   0.820   2.218  0.00  0.00    +0.024 A 
ATOM     19  C   UNL     1       1.074   2.575   0.014  0.00  0.00    +0.274 A 
ATOM     20  C   UNL     1       3.119  -1.213  -1.356  0.00  0.00    +0.247 C 
ATOM     21  C   UNL     1      -0.092   2.177   0.841  0.00  0.00    +0.112 A 
ATOM     22  C   UNL     1       0.027   1.358   1.886  0.00  0.00    +0.031 A 
ENDROOT
BRANCH  20  23
ATOM     23  C   UNL     1       2.115  -2.168  -0.876  0.00  0.00    +0.037 A 
ATOM     24  C   UNL     1       2.442  -3.517  -0.757  0.00  0.00    +0.016 A 
ATOM     25  C   UNL     1       0.839  -1.721  -0.543  0.00  0.00    +0.016 A 
ATOM     26  C   UNL     1       1.485  -4.424  -0.301  0.00  0.00    +0.046 A 
ATOM     27  C   UNL     1      -0.117  -2.629  -0.087  0.00  0.00    +0.046 A 
ATOM     29  C   UNL     1       0.206  -3.980   0.034  0.00  0.00    +0.120 A 
BRANCH  29   6
ATOM      6  O   UNL     1      -0.727  -4.867   0.477  0.00  0.00    -0.495 OA
ATOM     35  C   UNL     1      -2.016  -4.346   0.800  0.00  0.00    +0.277 C 
ENDBRANCH  29   6
ENDBRANCH  20  23
BRANCH  21  10
ATOM     10  N   UNL     1      -1.374   2.673   0.542  0.00  0.00    -0.211 N 
ATOM     37  H   UNL     1      -2.037   2.562   1.323  0.00  0.00    +0.174 HD
BRANCH  10   1
ATOM      1  S   UNL     1      -2.009   2.297  -0.981  0.00  0.00    +0.073 S 
ATOM      4  O   UNL     1      -2.437   3.514  -1.645  0.00  0.00    -0.150 OA
ATOM      5  O   UNL     1      -1.131   1.364  -1.660  0.00  0.00    -0.150 OA
BRANCH   1  28
ATOM     28  C   UNL     1      -3.467   1.408  -0.519  0.00  0.00    +0.109 A 
ATOM     30  C   UNL     1      -3.396   0.037  -0.350  0.00  0.00    +0.032 A 
ATOM     31  C   UNL     1      -4.651   2.101  -0.335  0.00  0.00    +0.032 A 
ATOM     32  C   UNL     1      -4.545  -0.664   0.015  0.00  0.00    +0.047 A 
ATOM     33  C   UNL     1      -5.800   1.400   0.029  0.00  0.00    +0.047 A 
ATOM     34  C   UNL     1      -5.747   0.017   0.204  0.00  0.00    +0.120 A 
BRANCH  34   7
ATOM      7  O   UNL     1      -6.869  -0.667   0.561  0.00  0.00    -0.495 OA
ATOM     36  C   UNL     1      -6.744  -2.079   0.724  0.00  0.00    +0.277 C 
ENDBRANCH  34   7
ENDBRANCH   1  28
ENDBRANCH  10   1
ENDBRANCH  21  10
TORSDOF 6
