MODEL 1
REMARK VINA RESULT:      -8.0      0.000      0.000
REMARK  Name = 25338564
REMARK  7 active torsions:
REMARK  status: ('A' for Active; 'I' for Inactive)
REMARK    1  A    between atoms: O_4  and  C_26
REMARK    2  A    between atoms: O_4  and  C_30
REMARK    3  A    between atoms: N_5  and  C_15
REMARK    4  A    between atoms: N_6  and  C_10
REMARK    5  A    between atoms: N_9  and  C_19
REMARK    6  A    between atoms: C_11  and  C_14
REMARK    7  A    between atoms: C_17  and  C_18
REMARK                            x       y       z     vdW  Elec       q    Type
REMARK                         _______ _______ _______ _____ _____    ______ ____
ROOT
ATOM      5  N   UNL     1     -17.926   2.685  26.651  0.00  0.00    -0.293 NA
ATOM     10  C   UNL     1     -16.873   1.951  24.704  0.00  0.00    +0.090 C 
ATOM     11  C   UNL     1     -17.441   1.335  27.000  0.00  0.00    +0.147 C 
ATOM     12  C   UNL     1     -16.611   0.895  25.777  0.00  0.00    +0.052 C 
ATOM     13  C   UNL     1     -18.114   2.680  25.196  0.00  0.00    +0.107 C 
ATOM     15  C   UNL     1     -19.147   3.056  27.356  0.00  0.00    +0.105 C 
ENDROOT
BRANCH  10   6
ATOM      3  O   UNL     1     -16.436   3.813  22.573  0.00  0.00    -0.253 OA
ATOM      6  N   UNL     1     -15.755   2.854  24.563  0.00  0.00    -0.295 N 
ATOM      9  N   UNL     1     -14.441   4.480  23.616  0.00  0.00    -0.269 N 
ATOM     16  C   UNL     1     -15.617   3.735  23.486  0.00  0.00    +0.304 C 
ATOM     31  H   UNL     1     -15.000   2.795  25.239  0.00  0.00    +0.151 HD
ATOM     32  H   UNL     1     -13.871   4.293  24.436  0.00  0.00    +0.156 HD
BRANCH   9  19
ATOM      1 CL   UNL     1     -12.351   8.643  19.954  0.00  0.00    -0.084 Cl
ATOM     19  C   UNL     1     -13.942   5.473  22.741  0.00  0.00    +0.035 A 
ATOM     22  C   UNL     1     -14.636   6.673  22.580  0.00  0.00    +0.025 A 
ATOM     23  C   UNL     1     -12.756   5.254  22.041  0.00  0.00    +0.025 A 
ATOM     27  C   UNL     1     -14.144   7.653  21.718  0.00  0.00    +0.022 A 
ATOM     28  C   UNL     1     -12.264   6.235  21.179  0.00  0.00    +0.022 A 
ATOM     29  C   UNL     1     -12.958   7.433  21.017  0.00  0.00    +0.041 A 
ENDBRANCH   9  19
ENDBRANCH  10   6
BRANCH  11  14
ATOM      2  O   UNL     1     -15.873   0.196  28.486  0.00  0.00    -0.336 OA
ATOM      7  N   UNL     1     -16.595   2.170  29.259  0.00  0.00    -0.190 NA
ATOM      8  N   UNL     1     -15.246   0.383  29.725  0.00  0.00    -0.056 NA
ATOM     14  C   UNL     1     -16.648   1.294  28.288  0.00  0.00    +0.245 A 
ATOM     17  C   UNL     1     -15.722   1.568  30.118  0.00  0.00    +0.202 A 
BRANCH  17  18
ATOM     18  C   UNL     1     -15.346   2.178  31.360  0.00  0.00    +0.023 A 
ATOM     20  C   UNL     1     -15.396   3.565  31.501  0.00  0.00    +0.015 A 
ATOM     21  C   UNL     1     -14.929   1.384  32.428  0.00  0.00    +0.015 A 
ATOM     24  C   UNL     1     -15.028   4.158  32.709  0.00  0.00    +0.046 A 
ATOM     25  C   UNL     1     -14.560   1.976  33.635  0.00  0.00    +0.046 A 
ATOM     26  C   UNL     1     -14.610   3.363  33.776  0.00  0.00    +0.120 A 
BRANCH  26   4
ATOM      4  O   UNL     1     -14.252   3.941  34.955  0.00  0.00    -0.495 OA
ATOM     30  C   UNL     1     -14.275   5.367  35.013  0.00  0.00    +0.277 C 
ENDBRANCH  26   4
ENDBRANCH  17  18
ENDBRANCH  11  14
TORSDOF 5
ENDMDL
MODEL 2
REMARK VINA RESULT:      -7.8     29.425     32.844
REMARK  Name = 25338564
REMARK  7 active torsions:
REMARK  status: ('A' for Active; 'I' for Inactive)
REMARK    1  A    between atoms: O_4  and  C_26
REMARK    2  A    between atoms: O_4  and  C_30
REMARK    3  A    between atoms: N_5  and  C_15
REMARK    4  A    between atoms: N_6  and  C_10
REMARK    5  A    between atoms: N_9  and  C_19
REMARK    6  A    between atoms: C_11  and  C_14
REMARK    7  A    between atoms: C_17  and  C_18
REMARK                            x       y       z     vdW  Elec       q    Type
REMARK                         _______ _______ _______ _____ _____    ______ ____
ROOT
ATOM      5  N   UNL     1      12.436   8.583  20.011  0.00  0.00    -0.293 NA
ATOM     10  C   UNL     1      11.912   8.429  17.744  0.00  0.00    +0.090 C 
ATOM     11  C   UNL     1      13.249   7.445  19.538  0.00  0.00    +0.147 C 
ATOM     12  C   UNL     1      13.033   7.424  18.011  0.00  0.00    +0.052 C 
ATOM     13  C   UNL     1      11.281   8.652  19.109  0.00  0.00    +0.107 C 
ATOM     15  C   UNL     1      12.031   8.457  21.406  0.00  0.00    +0.105 C 
ENDROOT
BRANCH  10   6
ATOM      3  O   UNL     1      12.982   8.817  15.116  0.00  0.00    -0.253 OA
ATOM      6  N   UNL     1      12.424   9.662  17.194  0.00  0.00    -0.295 N 
ATOM      9  N   UNL     1      13.353  11.075  15.641  0.00  0.00    -0.269 N 
ATOM     16  C   UNL     1      12.932   9.766  15.895  0.00  0.00    +0.304 C 
ATOM     31  H   UNL     1      12.483  10.473  17.802  0.00  0.00    +0.151 HD
ATOM     32  H   UNL     1      13.239  11.745  16.398  0.00  0.00    +0.156 HD
BRANCH   9  19
ATOM      1 CL   UNL     1      15.736  13.227  10.662  0.00  0.00    -0.084 Cl
ATOM     19  C   UNL     1      13.921  11.589  14.453  0.00  0.00    +0.035 A 
ATOM     22  C   UNL     1      15.263  11.344  14.160  0.00  0.00    +0.025 A 
ATOM     23  C   UNL     1      13.141  12.340  13.574  0.00  0.00    +0.025 A 
ATOM     27  C   UNL     1      15.824  11.851  12.987  0.00  0.00    +0.022 A 
ATOM     28  C   UNL     1      13.702  12.846  12.402  0.00  0.00    +0.022 A 
ATOM     29  C   UNL     1      15.043  12.602  12.109  0.00  0.00    +0.041 A 
ENDBRANCH   9  19
ENDBRANCH  10   6
BRANCH  11  14
ATOM      2  O   UNL     1      15.167   8.789  20.233  0.00  0.00    -0.336 OA
ATOM      7  N   UNL     1      15.619   6.609  19.988  0.00  0.00    -0.190 NA
ATOM      8  N   UNL     1      16.524   8.635  20.544  0.00  0.00    -0.056 NA
ATOM     14  C   UNL     1      14.710   7.549  19.917  0.00  0.00    +0.245 A 
ATOM     17  C   UNL     1      16.715   7.322  20.377  0.00  0.00    +0.202 A 
BRANCH  17  18
ATOM     18  C   UNL     1      17.986   6.694  20.590  0.00  0.00    +0.023 A 
ATOM     20  C   UNL     1      18.383   5.629  19.781  0.00  0.00    +0.015 A 
ATOM     21  C   UNL     1      18.826   7.147  21.607  0.00  0.00    +0.015 A 
ATOM     24  C   UNL     1      19.619   5.017  19.989  0.00  0.00    +0.046 A 
ATOM     25  C   UNL     1      20.061   6.534  21.817  0.00  0.00    +0.046 A 
ATOM     26  C   UNL     1      20.457   5.469  21.007  0.00  0.00    +0.120 A 
BRANCH  26   4
ATOM      4  O   UNL     1      21.664   4.873  21.212  0.00  0.00    -0.495 OA
ATOM     30  C   UNL     1      21.682   3.446  21.264  0.00  0.00    +0.277 C 
ENDBRANCH  26   4
ENDBRANCH  17  18
ENDBRANCH  11  14
TORSDOF 5
ENDMDL
MODEL 3
REMARK VINA RESULT:      -7.7      3.912     10.454
REMARK  Name = 25338564
REMARK  7 active torsions:
REMARK  status: ('A' for Active; 'I' for Inactive)
REMARK    1  A    between atoms: O_4  and  C_26
REMARK    2  A    between atoms: O_4  and  C_30
REMARK    3  A    between atoms: N_5  and  C_15
REMARK    4  A    between atoms: N_6  and  C_10
REMARK    5  A    between atoms: N_9  and  C_19
REMARK    6  A    between atoms: C_11  and  C_14
REMARK    7  A    between atoms: C_17  and  C_18
REMARK                            x       y       z     vdW  Elec       q    Type
REMARK                         _______ _______ _______ _____ _____    ______ ____
ROOT
ATOM      5  N   UNL     1     -16.839   3.586  23.695  0.00  0.00    -0.293 NA
ATOM     10  C   UNL     1     -17.383   4.668  25.687  0.00  0.00    +0.090 C 
ATOM     11  C   UNL     1     -16.742   5.018  23.355  0.00  0.00    +0.147 C 
ATOM     12  C   UNL     1     -16.949   5.749  24.698  0.00  0.00    +0.052 C 
ATOM     13  C   UNL     1     -17.796   3.500  24.804  0.00  0.00    +0.107 C 
ATOM     15  C   UNL     1     -17.240   2.754  22.566  0.00  0.00    +0.105 C 
ENDROOT
BRANCH  10   6
ATOM      3  O   UNL     1     -17.642   3.628  28.343  0.00  0.00    -0.253 OA
ATOM      6  N   UNL     1     -16.309   4.299  26.577  0.00  0.00    -0.295 N 
ATOM      9  N   UNL     1     -15.301   3.531  28.491  0.00  0.00    -0.269 N 
ATOM     16  C   UNL     1     -16.522   3.797  27.865  0.00  0.00    +0.304 C 
ATOM     31  H   UNL     1     -15.354   4.480  26.282  0.00  0.00    +0.151 HD
ATOM     32  H   UNL     1     -14.460   3.727  27.954  0.00  0.00    +0.156 HD
BRANCH   9  19
ATOM      1 CL   UNL     1     -14.400   1.377  33.937  0.00  0.00    -0.084 Cl
ATOM     19  C   UNL     1     -15.086   3.016  29.791  0.00  0.00    +0.035 A 
ATOM     22  C   UNL     1     -15.035   3.882  30.884  0.00  0.00    +0.025 A 
ATOM     23  C   UNL     1     -14.924   1.644  29.980  0.00  0.00    +0.025 A 
ATOM     27  C   UNL     1     -14.823   3.375  32.166  0.00  0.00    +0.022 A 
ATOM     28  C   UNL     1     -14.713   1.137  31.262  0.00  0.00    +0.022 A 
ATOM     29  C   UNL     1     -14.661   2.002  32.355  0.00  0.00    +0.041 A 
ENDBRANCH   9  19
ENDBRANCH  10   6
BRANCH  11  14
ATOM      2  O   UNL     1     -14.343   4.675  23.048  0.00  0.00    -0.336 OA
ATOM      7  N   UNL     1     -15.200   6.318  21.790  0.00  0.00    -0.190 NA
ATOM      8  N   UNL     1     -13.275   5.196  22.306  0.00  0.00    -0.056 NA
ATOM     14  C   UNL     1     -15.438   5.392  22.685  0.00  0.00    +0.245 A 
ATOM     17  C   UNL     1     -13.860   6.160  21.589  0.00  0.00    +0.202 A 
BRANCH  17  18
ATOM     18  C   UNL     1     -13.135   6.981  20.663  0.00  0.00    +0.023 A 
ATOM     20  C   UNL     1     -11.744   7.059  20.739  0.00  0.00    +0.015 A 
ATOM     21  C   UNL     1     -13.821   7.703  19.687  0.00  0.00    +0.015 A 
ATOM     24  C   UNL     1     -11.040   7.859  19.840  0.00  0.00    +0.046 A 
ATOM     25  C   UNL     1     -13.118   8.504  18.788  0.00  0.00    +0.046 A 
ATOM     26  C   UNL     1     -11.726   8.582  18.865  0.00  0.00    +0.120 A 
BRANCH  26   4
ATOM      4  O   UNL     1     -11.040   9.363  17.986  0.00  0.00    -0.495 OA
ATOM     30  C   UNL     1     -10.415  10.534  18.510  0.00  0.00    +0.277 C 
ENDBRANCH  26   4
ENDBRANCH  17  18
ENDBRANCH  11  14
TORSDOF 5
ENDMDL
MODEL 4
REMARK VINA RESULT:      -7.5     37.025     38.346
REMARK  Name = 25338564
REMARK  7 active torsions:
REMARK  status: ('A' for Active; 'I' for Inactive)
REMARK    1  A    between atoms: O_4  and  C_26
REMARK    2  A    between atoms: O_4  and  C_30
REMARK    3  A    between atoms: N_5  and  C_15
REMARK    4  A    between atoms: N_6  and  C_10
REMARK    5  A    between atoms: N_9  and  C_19
REMARK    6  A    between atoms: C_11  and  C_14
REMARK    7  A    between atoms: C_17  and  C_18
REMARK                            x       y       z     vdW  Elec       q    Type
REMARK                         _______ _______ _______ _____ _____    ______ ____
ROOT
ATOM      5  N   UNL     1       7.276   6.878  -5.071  0.00  0.00    -0.293 NA
ATOM     10  C   UNL     1       5.044   6.497  -4.517  0.00  0.00    +0.090 C 
ATOM     11  C   UNL     1       7.297   6.737  -3.603  0.00  0.00    +0.147 C 
ATOM     12  C   UNL     1       5.855   6.333  -3.232  0.00  0.00    +0.052 C 
ATOM     13  C   UNL     1       5.930   7.352  -5.409  0.00  0.00    +0.107 C 
ATOM     15  C   UNL     1       8.310   7.772  -5.577  0.00  0.00    +0.105 C 
ENDROOT
BRANCH  10   6
ATOM      3  O   UNL     1       2.570   5.059  -4.393  0.00  0.00    -0.253 OA
ATOM      6  N   UNL     1       4.755   5.222  -5.130  0.00  0.00    -0.295 N 
ATOM      9  N   UNL     1       3.529   3.371  -5.711  0.00  0.00    -0.269 N 
ATOM     16  C   UNL     1       3.515   4.585  -5.019  0.00  0.00    +0.304 C 
ATOM     31  H   UNL     1       5.509   4.733  -5.602  0.00  0.00    +0.151 HD
ATOM     32  H   UNL     1       4.397   3.124  -6.181  0.00  0.00    +0.156 HD
BRANCH   9  19
ATOM      1 CL   UNL     1      -0.875  -0.553  -6.266  0.00  0.00    -0.084 Cl
ATOM     19  C   UNL     1       2.478   2.434  -5.843  0.00  0.00    +0.035 A 
ATOM     22  C   UNL     1       1.505   2.613  -6.826  0.00  0.00    +0.025 A 
ATOM     23  C   UNL     1       2.415   1.331  -4.991  0.00  0.00    +0.025 A 
ATOM     27  C   UNL     1       0.467   1.689  -6.957  0.00  0.00    +0.022 A 
ATOM     28  C   UNL     1       1.378   0.407  -5.122  0.00  0.00    +0.022 A 
ATOM     29  C   UNL     1       0.405   0.586  -6.104  0.00  0.00    +0.041 A 
ENDBRANCH   9  19
ENDBRANCH  10   6
BRANCH  11  14
ATOM      2  O   UNL     1       8.532   4.648  -3.883  0.00  0.00    -0.336 OA
ATOM      7  N   UNL     1       9.059   5.778  -2.023  0.00  0.00    -0.190 NA
ATOM      8  N   UNL     1       9.510   3.888  -3.229  0.00  0.00    -0.056 NA
ATOM     14  C   UNL     1       8.325   5.743  -3.107  0.00  0.00    +0.245 A 
ATOM     17  C   UNL     1       9.770   4.620  -2.142  0.00  0.00    +0.202 A 
BRANCH  17  18
ATOM     18  C   UNL     1      10.733   4.223  -1.156  0.00  0.00    +0.023 A 
ATOM     20  C   UNL     1      10.573   4.614   0.174  0.00  0.00    +0.015 A 
ATOM     21  C   UNL     1      11.830   3.446  -1.527  0.00  0.00    +0.015 A 
ATOM     24  C   UNL     1      11.511   4.229   1.132  0.00  0.00    +0.046 A 
ATOM     25  C   UNL     1      12.768   3.061  -0.569  0.00  0.00    +0.046 A 
ATOM     26  C   UNL     1      12.608   3.453   0.760  0.00  0.00    +0.120 A 
BRANCH  26   4
ATOM      4  O   UNL     1      13.524   3.077   1.695  0.00  0.00    -0.495 OA
ATOM     30  C   UNL     1      14.848   3.588   1.549  0.00  0.00    +0.277 C 
ENDBRANCH  26   4
ENDBRANCH  17  18
ENDBRANCH  11  14
TORSDOF 5
ENDMDL
MODEL 5
REMARK VINA RESULT:      -7.3      1.423      2.168
REMARK  Name = 25338564
REMARK  7 active torsions:
REMARK  status: ('A' for Active; 'I' for Inactive)
REMARK    1  A    between atoms: O_4  and  C_26
REMARK    2  A    between atoms: O_4  and  C_30
REMARK    3  A    between atoms: N_5  and  C_15
REMARK    4  A    between atoms: N_6  and  C_10
REMARK    5  A    between atoms: N_9  and  C_19
REMARK    6  A    between atoms: C_11  and  C_14
REMARK    7  A    between atoms: C_17  and  C_18
REMARK                            x       y       z     vdW  Elec       q    Type
REMARK                         _______ _______ _______ _____ _____    ______ ____
ROOT
ATOM      5  N   UNL     1     -18.180   3.724  25.172  0.00  0.00    -0.293 NA
ATOM     10  C   UNL     1     -16.977   3.367  23.207  0.00  0.00    +0.090 C 
ATOM     11  C   UNL     1     -17.726   2.325  25.287  0.00  0.00    +0.147 C 
ATOM     12  C   UNL     1     -16.801   2.117  24.070  0.00  0.00    +0.052 C 
ATOM     13  C   UNL     1     -18.252   4.006  23.735  0.00  0.00    +0.107 C 
ATOM     15  C   UNL     1     -19.453   3.970  25.839  0.00  0.00    +0.105 C 
ENDROOT
BRANCH  10   6
ATOM      3  O   UNL     1     -15.837   4.985  21.137  0.00  0.00    -0.253 OA
ATOM      6  N   UNL     1     -15.851   4.262  23.333  0.00  0.00    -0.295 N 
ATOM      9  N   UNL     1     -14.264   5.788  22.683  0.00  0.00    -0.269 N 
ATOM     16  C   UNL     1     -15.354   5.019  22.267  0.00  0.00    +0.304 C 
ATOM     31  H   UNL     1     -15.352   4.288  24.217  0.00  0.00    +0.151 HD
ATOM     32  H   UNL     1     -13.990   5.700  23.658  0.00  0.00    +0.156 HD
BRANCH   9  19
ATOM      1 CL   UNL     1     -11.010   9.536  19.447  0.00  0.00    -0.084 Cl
ATOM     19  C   UNL     1     -13.488   6.683  21.911  0.00  0.00    +0.035 A 
ATOM     22  C   UNL     1     -12.351   6.224  21.245  0.00  0.00    +0.025 A 
ATOM     23  C   UNL     1     -13.858   8.024  21.815  0.00  0.00    +0.025 A 
ATOM     27  C   UNL     1     -11.585   7.106  20.483  0.00  0.00    +0.022 A 
ATOM     28  C   UNL     1     -13.092   8.907  21.053  0.00  0.00    +0.022 A 
ATOM     29  C   UNL     1     -11.956   8.448  20.388  0.00  0.00    +0.041 A 
ENDBRANCH   9  19
ENDBRANCH  10   6
BRANCH  11  14
ATOM      2  O   UNL     1     -16.852   0.706  26.894  0.00  0.00    -0.336 OA
ATOM      7  N   UNL     1     -16.585   2.843  27.511  0.00  0.00    -0.190 NA
ATOM      8  N   UNL     1     -16.207   0.675  28.137  0.00  0.00    -0.056 NA
ATOM     14  C   UNL     1     -17.038   2.019  26.599  0.00  0.00    +0.245 A 
ATOM     17  C   UNL     1     -16.084   1.973  28.435  0.00  0.00    +0.202 A 
BRANCH  17  18
ATOM     18  C   UNL     1     -15.467   2.432  29.645  0.00  0.00    +0.023 A 
ATOM     20  C   UNL     1     -14.897   1.516  30.530  0.00  0.00    +0.015 A 
ATOM     21  C   UNL     1     -15.436   3.796  29.937  0.00  0.00    +0.015 A 
ATOM     24  C   UNL     1     -14.299   1.964  31.708  0.00  0.00    +0.046 A 
ATOM     25  C   UNL     1     -14.839   4.243  31.115  0.00  0.00    +0.046 A 
ATOM     26  C   UNL     1     -14.270   3.327  32.000  0.00  0.00    +0.120 A 
BRANCH  26   4
ATOM      4  O   UNL     1     -13.685   3.764  33.149  0.00  0.00    -0.495 OA
ATOM     30  C   UNL     1     -14.280   4.892  33.791  0.00  0.00    +0.277 C 
ENDBRANCH  26   4
ENDBRANCH  17  18
ENDBRANCH  11  14
TORSDOF 5
ENDMDL
MODEL 6
REMARK VINA RESULT:      -7.3     26.601     30.975
REMARK  Name = 25338564
REMARK  7 active torsions:
REMARK  status: ('A' for Active; 'I' for Inactive)
REMARK    1  A    between atoms: O_4  and  C_26
REMARK    2  A    between atoms: O_4  and  C_30
REMARK    3  A    between atoms: N_5  and  C_15
REMARK    4  A    between atoms: N_6  and  C_10
REMARK    5  A    between atoms: N_9  and  C_19
REMARK    6  A    between atoms: C_11  and  C_14
REMARK    7  A    between atoms: C_17  and  C_18
REMARK                            x       y       z     vdW  Elec       q    Type
REMARK                         _______ _______ _______ _____ _____    ______ ____
ROOT
ATOM      5  N   UNL     1       4.715  10.375   2.970  0.00  0.00    -0.293 NA
ATOM     10  C   UNL     1       4.730  12.357   4.198  0.00  0.00    +0.090 C 
ATOM     11  C   UNL     1       6.149  10.704   3.090  0.00  0.00    +0.147 C 
ATOM     12  C   UNL     1       6.187  11.928   4.028  0.00  0.00    +0.052 C 
ATOM     13  C   UNL     1       4.001  11.653   3.063  0.00  0.00    +0.107 C 
ATOM     15  C   UNL     1       4.392   9.661   1.741  0.00  0.00    +0.105 C 
ENDROOT
BRANCH  10   6
ATOM      3  O   UNL     1       2.896  13.837   5.825  0.00  0.00    -0.253 OA
ATOM      6  N   UNL     1       4.206  11.963   5.483  0.00  0.00    -0.295 N 
ATOM      9  N   UNL     1       2.979  12.115   7.418  0.00  0.00    -0.269 N 
ATOM     16  C   UNL     1       3.311  12.749   6.217  0.00  0.00    +0.304 C 
ATOM     31  H   UNL     1       4.558  11.111   5.907  0.00  0.00    +0.151 HD
ATOM     32  H   UNL     1       3.411  11.211   7.590  0.00  0.00    +0.156 HD
BRANCH   9  19
ATOM      1 CL   UNL     1      -0.670  14.051  11.665  0.00  0.00    -0.084 Cl
ATOM     19  C   UNL     1       2.109  12.577   8.431  0.00  0.00    +0.035 A 
ATOM     22  C   UNL     1       0.730  12.404   8.300  0.00  0.00    +0.025 A 
ATOM     23  C   UNL     1       2.627  13.206   9.563  0.00  0.00    +0.025 A 
ATOM     27  C   UNL     1      -0.129  12.859   9.300  0.00  0.00    +0.022 A 
ATOM     28  C   UNL     1       1.768  13.662  10.564  0.00  0.00    +0.022 A 
ATOM     29  C   UNL     1       0.390  13.489  10.431  0.00  0.00    +0.041 A 
ENDBRANCH   9  19
ENDBRANCH  10   6
BRANCH  11  14
ATOM      2  O   UNL     1       7.615   8.799   2.659  0.00  0.00    -0.336 OA
ATOM      7  N   UNL     1       7.214   9.170   4.831  0.00  0.00    -0.190 NA
ATOM      8  N   UNL     1       8.322   7.813   3.361  0.00  0.00    -0.056 NA
ATOM     14  C   UNL     1       6.991   9.555   3.599  0.00  0.00    +0.245 A 
ATOM     17  C   UNL     1       8.035   8.099   4.635  0.00  0.00    +0.202 A 
BRANCH  17  18
ATOM     18  C   UNL     1       8.553   7.335   5.733  0.00  0.00    +0.023 A 
ATOM     20  C   UNL     1       8.507   7.853   7.027  0.00  0.00    +0.015 A 
ATOM     21  C   UNL     1       9.104   6.074   5.505  0.00  0.00    +0.015 A 
ATOM     24  C   UNL     1       9.012   7.111   8.094  0.00  0.00    +0.046 A 
ATOM     25  C   UNL     1       9.611   5.332   6.572  0.00  0.00    +0.046 A 
ATOM     26  C   UNL     1       9.564   5.851   7.866  0.00  0.00    +0.120 A 
BRANCH  26   4
ATOM      4  O   UNL     1      10.058   5.125   8.907  0.00  0.00    -0.495 OA
ATOM     30  C   UNL     1       9.121   4.675   9.886  0.00  0.00    +0.277 C 
ENDBRANCH  26   4
ENDBRANCH  17  18
ENDBRANCH  11  14
TORSDOF 5
ENDMDL
MODEL 7
REMARK VINA RESULT:      -7.3     20.166     22.514
REMARK  Name = 25338564
REMARK  7 active torsions:
REMARK  status: ('A' for Active; 'I' for Inactive)
REMARK    1  A    between atoms: O_4  and  C_26
REMARK    2  A    between atoms: O_4  and  C_30
REMARK    3  A    between atoms: N_5  and  C_15
REMARK    4  A    between atoms: N_6  and  C_10
REMARK    5  A    between atoms: N_9  and  C_19
REMARK    6  A    between atoms: C_11  and  C_14
REMARK    7  A    between atoms: C_17  and  C_18
REMARK                            x       y       z     vdW  Elec       q    Type
REMARK                         _______ _______ _______ _____ _____    ______ ____
ROOT
ATOM      5  N   UNL     1      -3.445 -12.118  11.760  0.00  0.00    -0.293 NA
ATOM     10  C   UNL     1      -3.284 -10.265  10.354  0.00  0.00    +0.090 C 
ATOM     11  C   UNL     1      -2.485 -11.235  12.450  0.00  0.00    +0.147 C 
ATOM     12  C   UNL     1      -2.481  -9.939  11.614  0.00  0.00    +0.052 C 
ATOM     13  C   UNL     1      -3.344 -11.784  10.335  0.00  0.00    +0.107 C 
ATOM     15  C   UNL     1      -3.201 -13.534  12.005  0.00  0.00    +0.105 C 
ENDROOT
BRANCH  10   6
ATOM      3  O   UNL     1      -4.919  -9.543   8.117  0.00  0.00    -0.253 OA
ATOM      6  N   UNL     1      -4.606  -9.687  10.403  0.00  0.00    -0.295 N 
ATOM      9  N   UNL     1      -6.578  -8.820   9.611  0.00  0.00    -0.269 N 
ATOM     16  C   UNL     1      -5.339  -9.362   9.257  0.00  0.00    +0.304 C 
ATOM     31  H   UNL     1      -4.991  -9.439  11.309  0.00  0.00    +0.151 HD
ATOM     32  H   UNL     1      -6.773  -8.739  10.606  0.00  0.00    +0.156 HD
BRANCH   9  19
ATOM      1 CL   UNL     1     -10.886  -6.929   6.009  0.00  0.00    -0.084 Cl
ATOM     19  C   UNL     1      -7.606  -8.368   8.752  0.00  0.00    +0.035 A 
ATOM     22  C   UNL     1      -8.565  -9.265   8.280  0.00  0.00    +0.025 A 
ATOM     23  C   UNL     1      -7.662  -7.026   8.376  0.00  0.00    +0.025 A 
ATOM     27  C   UNL     1      -9.579  -8.820   7.432  0.00  0.00    +0.022 A 
ATOM     28  C   UNL     1      -8.676  -6.581   7.528  0.00  0.00    +0.022 A 
ATOM     29  C   UNL     1      -9.634  -7.478   7.056  0.00  0.00    +0.041 A 
ENDBRANCH   9  19
ENDBRANCH  10   6
BRANCH  11  14
ATOM      2  O   UNL     1      -1.813 -10.569  14.702  0.00  0.00    -0.336 OA
ATOM      7  N   UNL     1      -3.976 -11.123  14.519  0.00  0.00    -0.190 NA
ATOM      8  N   UNL     1      -2.365 -10.412  15.980  0.00  0.00    -0.056 NA
ATOM     14  C   UNL     1      -2.828 -10.989  13.903  0.00  0.00    +0.245 A 
ATOM     17  C   UNL     1      -3.643 -10.757  15.791  0.00  0.00    +0.202 A 
BRANCH  17  18
ATOM     18  C   UNL     1      -4.610 -10.747  16.849  0.00  0.00    +0.023 A 
ATOM     20  C   UNL     1      -4.349 -11.424  18.041  0.00  0.00    +0.015 A 
ATOM     21  C   UNL     1      -5.814 -10.061  16.687  0.00  0.00    +0.015 A 
ATOM     24  C   UNL     1      -5.291 -11.415  19.069  0.00  0.00    +0.046 A 
ATOM     25  C   UNL     1      -6.756 -10.053  17.714  0.00  0.00    +0.046 A 
ATOM     26  C   UNL     1      -6.494 -10.730  18.906  0.00  0.00    +0.120 A 
BRANCH  26   4
ATOM      4  O   UNL     1      -7.414 -10.721  19.910  0.00  0.00    -0.495 OA
ATOM     30  C   UNL     1      -8.729 -11.174  19.589  0.00  0.00    +0.277 C 
ENDBRANCH  26   4
ENDBRANCH  17  18
ENDBRANCH  11  14
TORSDOF 5
ENDMDL
MODEL 8
REMARK VINA RESULT:      -7.1      5.379      8.043
REMARK  Name = 25338564
REMARK  7 active torsions:
REMARK  status: ('A' for Active; 'I' for Inactive)
REMARK    1  A    between atoms: O_4  and  C_26
REMARK    2  A    between atoms: O_4  and  C_30
REMARK    3  A    between atoms: N_5  and  C_15
REMARK    4  A    between atoms: N_6  and  C_10
REMARK    5  A    between atoms: N_9  and  C_19
REMARK    6  A    between atoms: C_11  and  C_14
REMARK    7  A    between atoms: C_17  and  C_18
REMARK                            x       y       z     vdW  Elec       q    Type
REMARK                         _______ _______ _______ _____ _____    ______ ____
ROOT
ATOM      5  N   UNL     1     -12.334   8.571  34.475  0.00  0.00    -0.293 NA
ATOM     10  C   UNL     1     -13.292   9.988  32.891  0.00  0.00    +0.090 C 
ATOM     11  C   UNL     1     -13.743   8.136  34.420  0.00  0.00    +0.147 C 
ATOM     12  C   UNL     1     -14.357   8.958  33.269  0.00  0.00    +0.052 C 
ATOM     13  C   UNL     1     -12.333   9.981  34.072  0.00  0.00    +0.107 C 
ATOM     15  C   UNL     1     -11.726   8.380  35.787  0.00  0.00    +0.105 C 
ENDROOT
BRANCH  10   6
ATOM      3  O   UNL     1     -13.565  11.277  30.348  0.00  0.00    -0.253 OA
ATOM      6  N   UNL     1     -12.618   9.630  31.665  0.00  0.00    -0.295 N 
ATOM      9  N   UNL     1     -12.029   9.746  29.450  0.00  0.00    -0.269 N 
ATOM     16  C   UNL     1     -12.809  10.315  30.461  0.00  0.00    +0.304 C 
ATOM     31  H   UNL     1     -12.033   8.800  31.661  0.00  0.00    +0.151 HD
ATOM     32  H   UNL     1     -11.453   8.950  29.711  0.00  0.00    +0.156 HD
BRANCH   9  19
ATOM      1 CL   UNL     1     -11.643  11.415  23.778  0.00  0.00    -0.084 Cl
ATOM     19  C   UNL     1     -11.937  10.145  28.096  0.00  0.00    +0.035 A 
ATOM     22  C   UNL     1     -10.688  10.255  27.485  0.00  0.00    +0.025 A 
ATOM     23  C   UNL     1     -13.095  10.428  27.372  0.00  0.00    +0.025 A 
ATOM     27  C   UNL     1     -10.597  10.647  26.149  0.00  0.00    +0.022 A 
ATOM     28  C   UNL     1     -13.004  10.820  26.036  0.00  0.00    +0.022 A 
ATOM     29  C   UNL     1     -11.756  10.930  25.426  0.00  0.00    +0.041 A 
ENDBRANCH   9  19
ENDBRANCH  10   6
BRANCH  11  14
ATOM      2  O   UNL     1     -13.938   5.884  35.346  0.00  0.00    -0.336 OA
ATOM      7  N   UNL     1     -14.024   5.963  33.109  0.00  0.00    -0.190 NA
ATOM      8  N   UNL     1     -14.094   4.560  34.915  0.00  0.00    -0.056 NA
ATOM     14  C   UNL     1     -13.907   6.645  34.221  0.00  0.00    +0.245 A 
ATOM     17  C   UNL     1     -14.137   4.689  33.585  0.00  0.00    +0.202 A 
BRANCH  17  18
ATOM     18  C   UNL     1     -14.292   3.567  32.705  0.00  0.00    +0.023 A 
ATOM     20  C   UNL     1     -14.662   2.324  33.217  0.00  0.00    +0.015 A 
ATOM     21  C   UNL     1     -14.071   3.720  31.336  0.00  0.00    +0.015 A 
ATOM     24  C   UNL     1     -14.810   1.233  32.361  0.00  0.00    +0.046 A 
ATOM     25  C   UNL     1     -14.218   2.630  30.480  0.00  0.00    +0.046 A 
ATOM     26  C   UNL     1     -14.588   1.385  30.993  0.00  0.00    +0.120 A 
BRANCH  26   4
ATOM      4  O   UNL     1     -14.733   0.321  30.156  0.00  0.00    -0.495 OA
ATOM     30  C   UNL     1     -13.558  -0.431  29.853  0.00  0.00    +0.277 C 
ENDBRANCH  26   4
ENDBRANCH  17  18
ENDBRANCH  11  14
TORSDOF 5
ENDMDL
MODEL 9
REMARK VINA RESULT:      -7.1     20.100     22.613
REMARK  Name = 25338564
REMARK  7 active torsions:
REMARK  status: ('A' for Active; 'I' for Inactive)
REMARK    1  A    between atoms: O_4  and  C_26
REMARK    2  A    between atoms: O_4  and  C_30
REMARK    3  A    between atoms: N_5  and  C_15
REMARK    4  A    between atoms: N_6  and  C_10
REMARK    5  A    between atoms: N_9  and  C_19
REMARK    6  A    between atoms: C_11  and  C_14
REMARK    7  A    between atoms: C_17  and  C_18
REMARK                            x       y       z     vdW  Elec       q    Type
REMARK                         _______ _______ _______ _____ _____    ______ ____
ROOT
ATOM      5  N   UNL     1      -4.114 -11.440  10.387  0.00  0.00    -0.293 NA
ATOM     10  C   UNL     1      -4.202  -9.414   9.236  0.00  0.00    +0.090 C 
ATOM     11  C   UNL     1      -3.011 -10.653  10.974  0.00  0.00    +0.147 C 
ATOM     12  C   UNL     1      -3.149  -9.257  10.334  0.00  0.00    +0.052 C 
ATOM     13  C   UNL     1      -4.300 -10.918   9.029  0.00  0.00    +0.107 C 
ATOM     15  C   UNL     1      -3.857 -12.875  10.388  0.00  0.00    +0.105 C 
ENDROOT
BRANCH  10   6
ATOM      3  O   UNL     1      -6.500  -9.037   7.571  0.00  0.00    -0.253 OA
ATOM      6  N   UNL     1      -5.471  -8.854   9.633  0.00  0.00    -0.295 N 
ATOM      9  N   UNL     1      -7.640  -8.135   9.414  0.00  0.00    -0.269 N 
ATOM     16  C   UNL     1      -6.548  -8.703   8.753  0.00  0.00    +0.304 C 
ATOM     31  H   UNL     1      -5.563  -8.487  10.575  0.00  0.00    +0.151 HD
ATOM     32  H   UNL     1      -7.514  -7.917  10.400  0.00  0.00    +0.156 HD
BRANCH   9  19
ATOM      1 CL   UNL     1     -12.968  -6.825   7.176  0.00  0.00    -0.084 Cl
ATOM     19  C   UNL     1      -8.912  -7.823   8.880  0.00  0.00    +0.035 A 
ATOM     22  C   UNL     1      -9.118  -6.601   8.239  0.00  0.00    +0.025 A 
ATOM     23  C   UNL     1      -9.960  -8.736   8.995  0.00  0.00    +0.025 A 
ATOM     27  C   UNL     1     -10.372  -6.292   7.711  0.00  0.00    +0.022 A 
ATOM     28  C   UNL     1     -11.214  -8.427   8.467  0.00  0.00    +0.022 A 
ATOM     29  C   UNL     1     -11.420  -7.206   7.826  0.00  0.00    +0.041 A 
ENDBRANCH   9  19
ENDBRANCH  10   6
BRANCH  11  14
ATOM      2  O   UNL     1      -1.843 -10.497  13.113  0.00  0.00    -0.336 OA
ATOM      7  N   UNL     1      -4.070 -10.654  13.297  0.00  0.00    -0.190 NA
ATOM      8  N   UNL     1      -2.124 -10.473  14.486  0.00  0.00    -0.056 NA
ATOM     14  C   UNL     1      -3.043 -10.606  12.486  0.00  0.00    +0.245 A 
ATOM     17  C   UNL     1      -3.457 -10.569  14.513  0.00  0.00    +0.202 A 
BRANCH  17  18
ATOM     18  C   UNL     1      -4.205 -10.583  15.737  0.00  0.00    +0.023 A 
ATOM     20  C   UNL     1      -3.671 -11.187  16.875  0.00  0.00    +0.015 A 
ATOM     21  C   UNL     1      -5.467  -9.991  15.788  0.00  0.00    +0.015 A 
ATOM     24  C   UNL     1      -4.400 -11.202  18.064  0.00  0.00    +0.046 A 
ATOM     25  C   UNL     1      -6.196 -10.007  16.976  0.00  0.00    +0.046 A 
ATOM     26  C   UNL     1      -5.662 -10.612  18.115  0.00  0.00    +0.120 A 
BRANCH  26   4
ATOM      4  O   UNL     1      -6.374 -10.626  19.275  0.00  0.00    -0.495 OA
ATOM     30  C   UNL     1      -6.895 -11.884  19.703  0.00  0.00    +0.277 C 
ENDBRANCH  26   4
ENDBRANCH  17  18
ENDBRANCH  11  14
TORSDOF 5
ENDMDL
MODEL 10
REMARK VINA RESULT:      -6.8      3.674      9.667
REMARK  Name = 25338564
REMARK  7 active torsions:
REMARK  status: ('A' for Active; 'I' for Inactive)
REMARK    1  A    between atoms: O_4  and  C_26
REMARK    2  A    between atoms: O_4  and  C_30
REMARK    3  A    between atoms: N_5  and  C_15
REMARK    4  A    between atoms: N_6  and  C_10
REMARK    5  A    between atoms: N_9  and  C_19
REMARK    6  A    between atoms: C_11  and  C_14
REMARK    7  A    between atoms: C_17  and  C_18
REMARK                            x       y       z     vdW  Elec       q    Type
REMARK                         _______ _______ _______ _____ _____    ______ ____
ROOT
ATOM      5  N   UNL     1     -17.884   1.925  23.513  0.00  0.00    -0.293 NA
ATOM     10  C   UNL     1     -18.700   1.786  25.693  0.00  0.00    +0.090 C 
ATOM     11  C   UNL     1     -18.393   3.283  23.785  0.00  0.00    +0.147 C 
ATOM     12  C   UNL     1     -18.798   3.253  25.273  0.00  0.00    +0.052 C 
ATOM     13  C   UNL     1     -18.658   1.026  24.376  0.00  0.00    +0.107 C 
ATOM     15  C   UNL     1     -17.982   1.547  22.108  0.00  0.00    +0.105 C 
ENDROOT
BRANCH  10   6
ATOM      3  O   UNL     1     -18.461   2.014  28.537  0.00  0.00    -0.253 OA
ATOM      6  N   UNL     1     -17.517   1.536  26.482  0.00  0.00    -0.295 N 
ATOM      9  N   UNL     1     -16.211   1.367  28.362  0.00  0.00    -0.269 N 
ATOM     16  C   UNL     1     -17.485   1.673  27.873  0.00  0.00    +0.304 C 
ATOM     31  H   UNL     1     -16.651   1.322  25.997  0.00  0.00    +0.151 HD
ATOM     32  H   UNL     1     -15.512   1.099  27.674  0.00  0.00    +0.156 HD
BRANCH   9  19
ATOM      1 CL   UNL     1     -14.361   1.430  33.990  0.00  0.00    -0.084 Cl
ATOM     19  C   UNL     1     -15.770   1.383  29.705  0.00  0.00    +0.035 A 
ATOM     22  C   UNL     1     -15.373   0.196  30.322  0.00  0.00    +0.025 A 
ATOM     23  C   UNL     1     -15.731   2.584  30.413  0.00  0.00    +0.025 A 
ATOM     27  C   UNL     1     -14.937   0.211  31.647  0.00  0.00    +0.022 A 
ATOM     28  C   UNL     1     -15.295   2.599  31.738  0.00  0.00    +0.022 A 
ATOM     29  C   UNL     1     -14.899   1.412  32.355  0.00  0.00    +0.041 A 
ENDBRANCH   9  19
ENDBRANCH  10   6
BRANCH  11  14
ATOM      2  O   UNL     1     -17.581   5.564  24.105  0.00  0.00    -0.336 OA
ATOM      7  N   UNL     1     -16.354   4.349  22.680  0.00  0.00    -0.190 NA
ATOM      8  N   UNL     1     -16.548   6.403  23.667  0.00  0.00    -0.056 NA
ATOM     14  C   UNL     1     -17.393   4.375  23.476  0.00  0.00    +0.245 A 
ATOM     17  C   UNL     1     -15.867   5.615  22.830  0.00  0.00    +0.202 A 
BRANCH  17  18
ATOM     18  C   UNL     1     -14.697   6.060  22.130  0.00  0.00    +0.023 A 
ATOM     20  C   UNL     1     -14.744   7.223  21.361  0.00  0.00    +0.015 A 
ATOM     21  C   UNL     1     -13.513   5.328  22.216  0.00  0.00    +0.015 A 
ATOM     24  C   UNL     1     -13.607   7.655  20.679  0.00  0.00    +0.046 A 
ATOM     25  C   UNL     1     -12.376   5.759  21.533  0.00  0.00    +0.046 A 
ATOM     26  C   UNL     1     -12.423   6.923  20.764  0.00  0.00    +0.120 A 
BRANCH  26   4
ATOM      4  O   UNL     1     -11.313   7.344  20.099  0.00  0.00    -0.495 OA
ATOM     30  C   UNL     1     -11.369   7.337  18.673  0.00  0.00    +0.277 C 
ENDBRANCH  26   4
ENDBRANCH  17  18
ENDBRANCH  11  14
TORSDOF 5
ENDMDL
