MODEL 1
REMARK VINA RESULT:      -7.5      0.000      0.000
REMARK  Name = 71694054
REMARK  9 active torsions:
REMARK  status: ('A' for Active; 'I' for Inactive)
REMARK    1  A    between atoms: O_4  and  C_11
REMARK    2  A    between atoms: O_5  and  C_13
REMARK    3  A    between atoms: O_6  and  C_26
REMARK    4  A    between atoms: O_6  and  C_27
REMARK    5  A    between atoms: N_7  and  C_9
REMARK    6  A    between atoms: N_7  and  C_15
REMARK    7  A    between atoms: C_10  and  C_14
REMARK    8  A    between atoms: C_15  and  C_18
REMARK    9  A    between atoms: C_20  and  C_23
REMARK                            x       y       z     vdW  Elec       q    Type
REMARK                         _______ _______ _______ _____ _____    ______ ____
ROOT
ATOM      9  C   UNL     1      13.195   8.644  18.672  0.00  0.00    +0.093 C 
ATOM     10  C   UNL     1      11.790   8.524  19.339  0.00  0.00    +0.042 C 
ATOM     11  C   UNL     1      12.919   9.123  17.237  0.00  0.00    +0.160 C 
ATOM     12  C   UNL     1      10.773   8.924  18.252  0.00  0.00    +0.043 C 
ATOM     13  C   UNL     1      11.504   8.631  16.951  0.00  0.00    +0.145 C 
ENDROOT
BRANCH  10  14
ATOM      8  N   UNL     1      10.784   9.471  22.871  0.00  0.00    -0.251 NA
ATOM     14  C   UNL     1      11.643   9.323  20.616  0.00  0.00    -0.025 A 
ATOM     16  C   UNL     1      12.196  10.593  20.735  0.00  0.00    +0.007 A 
ATOM     17  C   UNL     1      10.953   8.812  21.703  0.00  0.00    +0.115 A 
ATOM     19  C   UNL     1      12.045  11.303  21.920  0.00  0.00    +0.032 A 
ATOM     20  C   UNL     1      11.336  10.704  22.950  0.00  0.00    +0.144 A 
BRANCH  20  23
ATOM      1  F   UNL     1      10.072  12.269  24.243  0.00  0.00    -0.164 F 
ATOM      2  F   UNL     1      12.217  12.228  24.569  0.00  0.00    -0.164 F 
ATOM      3  F   UNL     1      10.977  10.597  25.298  0.00  0.00    -0.164 F 
ATOM     23  C   UNL     1      11.155  11.436  24.237  0.00  0.00    +0.434 C 
ENDBRANCH  20  23
ENDBRANCH  10  14
BRANCH  11   4
ATOM      4  O   UNL     1      12.970  10.549  17.223  0.00  0.00    -0.388 OA
ATOM     29  H   UNL     1      12.165  10.874  17.662  0.00  0.00    +0.210 HD
ENDBRANCH  11   4
BRANCH  13   5
ATOM      5  O   UNL     1      10.905   9.301  15.859  0.00  0.00    -0.389 OA
ATOM     30  H   UNL     1       9.950   9.344  16.032  0.00  0.00    +0.210 HD
ENDBRANCH  13   5
BRANCH   9   7
ATOM      7  N   UNL     1      13.837   7.327  18.642  0.00  0.00    -0.306 NA
ATOM     28  H   UNL     1      14.680   7.379  18.069  0.00  0.00    +0.123 HD
BRANCH   7  15
ATOM     15  C   UNL     1      14.212   6.902  19.982  0.00  0.00    +0.116 C 
BRANCH  15  18
ATOM     18  C   UNL     1      15.688   6.625  20.092  0.00  0.00    -0.033 A 
ATOM     21  C   UNL     1      16.381   6.094  19.004  0.00  0.00    +0.008 A 
ATOM     22  C   UNL     1      16.362   6.901  21.281  0.00  0.00    +0.008 A 
ATOM     24  C   UNL     1      17.748   5.839  19.106  0.00  0.00    +0.046 A 
ATOM     25  C   UNL     1      17.729   6.646  21.384  0.00  0.00    +0.046 A 
ATOM     26  C   UNL     1      18.423   6.115  20.296  0.00  0.00    +0.120 A 
BRANCH  26   6
ATOM      6  O   UNL     1      19.757   5.867  20.395  0.00  0.00    -0.495 OA
ATOM     27  C   UNL     1      20.382   6.166  21.642  0.00  0.00    +0.277 C 
ENDBRANCH  26   6
ENDBRANCH  15  18
ENDBRANCH   7  15
ENDBRANCH   9   7
TORSDOF 8
ENDMDL
MODEL 2
REMARK VINA RESULT:      -7.3      4.201      5.288
REMARK  Name = 71694054
REMARK  9 active torsions:
REMARK  status: ('A' for Active; 'I' for Inactive)
REMARK    1  A    between atoms: O_4  and  C_11
REMARK    2  A    between atoms: O_5  and  C_13
REMARK    3  A    between atoms: O_6  and  C_26
REMARK    4  A    between atoms: O_6  and  C_27
REMARK    5  A    between atoms: N_7  and  C_9
REMARK    6  A    between atoms: N_7  and  C_15
REMARK    7  A    between atoms: C_10  and  C_14
REMARK    8  A    between atoms: C_15  and  C_18
REMARK    9  A    between atoms: C_20  and  C_23
REMARK                            x       y       z     vdW  Elec       q    Type
REMARK                         _______ _______ _______ _____ _____    ______ ____
ROOT
ATOM      9  C   UNL     1      13.457   7.356  20.935  0.00  0.00    +0.093 C 
ATOM     10  C   UNL     1      12.973   8.807  20.629  0.00  0.00    +0.042 C 
ATOM     11  C   UNL     1      12.180   6.571  21.281  0.00  0.00    +0.160 C 
ATOM     12  C   UNL     1      11.445   8.792  20.828  0.00  0.00    +0.043 C 
ATOM     13  C   UNL     1      11.220   7.640  21.796  0.00  0.00    +0.145 C 
ENDROOT
BRANCH  10  14
ATOM      8  N   UNL     1      14.162   8.843  17.027  0.00  0.00    -0.251 NA
ATOM     14  C   UNL     1      13.392   9.322  19.268  0.00  0.00    -0.025 A 
ATOM     16  C   UNL     1      13.405  10.684  18.990  0.00  0.00    +0.007 A 
ATOM     17  C   UNL     1      13.776   8.451  18.262  0.00  0.00    +0.115 A 
ATOM     19  C   UNL     1      13.795  11.127  17.731  0.00  0.00    +0.032 A 
ATOM     20  C   UNL     1      14.161  10.175  16.793  0.00  0.00    +0.144 A 
BRANCH  20  23
ATOM      1  F   UNL     1      15.190   9.630  14.704  0.00  0.00    -0.164 F 
ATOM      2  F   UNL     1      15.477  11.649  15.444  0.00  0.00    -0.164 F 
ATOM      3  F   UNL     1      13.537  11.043  14.669  0.00  0.00    -0.164 F 
ATOM     23  C   UNL     1      14.585  10.614  15.431  0.00  0.00    +0.434 C 
ENDBRANCH  20  23
ENDBRANCH  10  14
BRANCH  11   4
ATOM      4  O   UNL     1      11.680   5.978  20.083  0.00  0.00    -0.388 OA
ATOM     29  H   UNL     1      11.608   6.683  19.417  0.00  0.00    +0.210 HD
ENDBRANCH  11   4
BRANCH  13   5
ATOM      5  O   UNL     1       9.873   7.211  21.785  0.00  0.00    -0.389 OA
ATOM     30  H   UNL     1       9.789   6.531  21.096  0.00  0.00    +0.210 HD
ENDBRANCH  13   5
BRANCH   9   7
ATOM      7  N   UNL     1      14.358   7.373  22.090  0.00  0.00    -0.306 NA
ATOM     28  H   UNL     1      14.876   6.494  22.123  0.00  0.00    +0.123 HD
BRANCH   7  15
ATOM     15  C   UNL     1      15.310   8.469  21.989  0.00  0.00    +0.116 C 
BRANCH  15  18
ATOM     18  C   UNL     1      16.679   7.989  21.584  0.00  0.00    -0.033 A 
ATOM     21  C   UNL     1      16.850   6.690  21.108  0.00  0.00    +0.008 A 
ATOM     22  C   UNL     1      17.775   8.846  21.683  0.00  0.00    +0.008 A 
ATOM     24  C   UNL     1      18.117   6.246  20.732  0.00  0.00    +0.046 A 
ATOM     25  C   UNL     1      19.043   8.403  21.308  0.00  0.00    +0.046 A 
ATOM     26  C   UNL     1      19.214   7.102  20.832  0.00  0.00    +0.120 A 
BRANCH  26   6
ATOM      6  O   UNL     1      20.451   6.669  20.464  0.00  0.00    -0.495 OA
ATOM     27  C   UNL     1      20.726   5.278  20.622  0.00  0.00    +0.277 C 
ENDBRANCH  26   6
ENDBRANCH  15  18
ENDBRANCH   7  15
ENDBRANCH   9   7
TORSDOF 8
ENDMDL
MODEL 3
REMARK VINA RESULT:      -7.1      2.170      2.755
REMARK  Name = 71694054
REMARK  9 active torsions:
REMARK  status: ('A' for Active; 'I' for Inactive)
REMARK    1  A    between atoms: O_4  and  C_11
REMARK    2  A    between atoms: O_5  and  C_13
REMARK    3  A    between atoms: O_6  and  C_26
REMARK    4  A    between atoms: O_6  and  C_27
REMARK    5  A    between atoms: N_7  and  C_9
REMARK    6  A    between atoms: N_7  and  C_15
REMARK    7  A    between atoms: C_10  and  C_14
REMARK    8  A    between atoms: C_15  and  C_18
REMARK    9  A    between atoms: C_20  and  C_23
REMARK                            x       y       z     vdW  Elec       q    Type
REMARK                         _______ _______ _______ _____ _____    ______ ____
ROOT
ATOM      9  C   UNL     1      13.174   8.451  20.548  0.00  0.00    +0.093 C 
ATOM     10  C   UNL     1      12.521   8.696  21.944  0.00  0.00    +0.042 C 
ATOM     11  C   UNL     1      12.453   7.220  19.976  0.00  0.00    +0.160 C 
ATOM     12  C   UNL     1      11.467   7.584  22.115  0.00  0.00    +0.043 C 
ATOM     13  C   UNL     1      11.973   6.467  21.214  0.00  0.00    +0.145 C 
ENDROOT
BRANCH  10  14
ATOM      8  N   UNL     1      10.709  11.649  23.488  0.00  0.00    -0.251 NA
ATOM     14  C   UNL     1      11.954  10.088  22.125  0.00  0.00    -0.025 A 
ATOM     16  C   UNL     1      12.130  11.065  21.152  0.00  0.00    +0.007 A 
ATOM     17  C   UNL     1      11.242  10.427  23.264  0.00  0.00    +0.115 A 
ATOM     19  C   UNL     1      11.597  12.335  21.346  0.00  0.00    +0.032 A 
ATOM     20  C   UNL     1      10.901  12.574  22.520  0.00  0.00    +0.144 A 
BRANCH  20  23
ATOM      1  F   UNL     1      11.228  14.938  22.673  0.00  0.00    -0.164 F 
ATOM      2  F   UNL     1       9.750  14.062  23.997  0.00  0.00    -0.164 F 
ATOM      3  F   UNL     1       9.332  14.238  21.871  0.00  0.00    -0.164 F 
ATOM     23  C   UNL     1      10.317  13.925  22.762  0.00  0.00    +0.434 C 
ENDBRANCH  20  23
ENDBRANCH  10  14
BRANCH  11   4
ATOM      4  O   UNL     1      11.345   7.670  19.198  0.00  0.00    -0.388 OA
ATOM     29  H   UNL     1      10.948   8.426  19.665  0.00  0.00    +0.210 HD
ENDBRANCH  11   4
BRANCH  13   5
ATOM      5  O   UNL     1      10.951   5.536  20.922  0.00  0.00    -0.389 OA
ATOM     30  H   UNL     1      10.226   5.692  21.550  0.00  0.00    +0.210 HD
ENDBRANCH  13   5
BRANCH   9   7
ATOM      7  N   UNL     1      14.599   8.159  20.719  0.00  0.00    -0.306 NA
ATOM     28  H   UNL     1      14.782   7.946  21.700  0.00  0.00    +0.123 HD
BRANCH   7  15
ATOM     15  C   UNL     1      14.995   7.014  19.913  0.00  0.00    +0.116 C 
BRANCH  15  18
ATOM     18  C   UNL     1      16.453   6.681  20.089  0.00  0.00    -0.033 A 
ATOM     21  C   UNL     1      17.094   5.849  19.171  0.00  0.00    +0.008 A 
ATOM     22  C   UNL     1      17.163   7.205  21.169  0.00  0.00    +0.008 A 
ATOM     24  C   UNL     1      18.444   5.542  19.332  0.00  0.00    +0.046 A 
ATOM     25  C   UNL     1      18.513   6.898  21.332  0.00  0.00    +0.046 A 
ATOM     26  C   UNL     1      19.155   6.066  20.413  0.00  0.00    +0.120 A 
BRANCH  26   6
ATOM      6  O   UNL     1      20.473   5.766  20.572  0.00  0.00    -0.495 OA
ATOM     27  C   UNL     1      20.945   5.599  21.908  0.00  0.00    +0.277 C 
ENDBRANCH  26   6
ENDBRANCH  15  18
ENDBRANCH   7  15
ENDBRANCH   9   7
TORSDOF 8
ENDMDL
MODEL 4
REMARK VINA RESULT:      -6.8     14.002     17.359
REMARK  Name = 71694054
REMARK  9 active torsions:
REMARK  status: ('A' for Active; 'I' for Inactive)
REMARK    1  A    between atoms: O_4  and  C_11
REMARK    2  A    between atoms: O_5  and  C_13
REMARK    3  A    between atoms: O_6  and  C_26
REMARK    4  A    between atoms: O_6  and  C_27
REMARK    5  A    between atoms: N_7  and  C_9
REMARK    6  A    between atoms: N_7  and  C_15
REMARK    7  A    between atoms: C_10  and  C_14
REMARK    8  A    between atoms: C_15  and  C_18
REMARK    9  A    between atoms: C_20  and  C_23
REMARK                            x       y       z     vdW  Elec       q    Type
REMARK                         _______ _______ _______ _____ _____    ______ ____
ROOT
ATOM      9  C   UNL     1      10.202   6.163   1.846  0.00  0.00    +0.093 C 
ATOM     10  C   UNL     1      11.387   5.989   2.847  0.00  0.00    +0.042 C 
ATOM     11  C   UNL     1      10.433   5.099   0.761  0.00  0.00    +0.160 C 
ATOM     12  C   UNL     1      12.250   4.845   2.280  0.00  0.00    +0.043 C 
ATOM     13  C   UNL     1      11.940   4.863   0.791  0.00  0.00    +0.145 C 
ENDROOT
BRANCH  10  14
ATOM      8  N   UNL     1      11.241   6.259   6.627  0.00  0.00    -0.251 NA
ATOM     14  C   UNL     1      10.955   5.758   4.279  0.00  0.00    -0.025 A 
ATOM     16  C   UNL     1       9.927   4.874   4.585  0.00  0.00    +0.007 A 
ATOM     17  C   UNL     1      11.575   6.419   5.327  0.00  0.00    +0.115 A 
ATOM     19  C   UNL     1       9.553   4.682   5.910  0.00  0.00    +0.032 A 
ATOM     20  C   UNL     1      10.235   5.392   6.886  0.00  0.00    +0.144 A 
BRANCH  20  23
ATOM      1  F   UNL     1       9.547   3.923   8.643  0.00  0.00    -0.164 F 
ATOM      2  F   UNL     1       8.775   5.949   8.696  0.00  0.00    -0.164 F 
ATOM      3  F   UNL     1      10.862   5.571   9.172  0.00  0.00    -0.164 F 
ATOM     23  C   UNL     1       9.860   5.212   8.318  0.00  0.00    +0.434 C 
ENDBRANCH  20  23
ENDBRANCH  10  14
BRANCH  11   4
ATOM      4  O   UNL     1       9.729   3.916   1.136  0.00  0.00    -0.388 OA
ATOM     29  H   UNL     1      10.317   3.160   0.965  0.00  0.00    +0.210 HD
ENDBRANCH  11   4
BRANCH  13   5
ATOM      5  O   UNL     1      12.313   3.650   0.170  0.00  0.00    -0.389 OA
ATOM     30  H   UNL     1      12.581   3.033   0.872  0.00  0.00    +0.210 HD
ENDBRANCH  13   5
BRANCH   9   7
ATOM      7  N   UNL     1      10.256   7.501   1.252  0.00  0.00    -0.306 NA
ATOM     28  H   UNL     1      10.267   7.415   0.235  0.00  0.00    +0.123 HD
BRANCH   7  15
ATOM     15  C   UNL     1       9.095   8.288   1.639  0.00  0.00    +0.116 C 
BRANCH  15  18
ATOM     18  C   UNL     1       9.083   8.583   3.115  0.00  0.00    -0.033 A 
ATOM     21  C   UNL     1       8.096   8.029   3.930  0.00  0.00    +0.008 A 
ATOM     22  C   UNL     1      10.061   9.410   3.668  0.00  0.00    +0.008 A 
ATOM     24  C   UNL     1       8.086   8.302   5.297  0.00  0.00    +0.046 A 
ATOM     25  C   UNL     1      10.051   9.684   5.036  0.00  0.00    +0.046 A 
ATOM     26  C   UNL     1       9.064   9.129   5.851  0.00  0.00    +0.120 A 
BRANCH  26   6
ATOM      6  O   UNL     1       9.055   9.395   7.186  0.00  0.00    -0.495 OA
ATOM     27  C   UNL     1      10.318   9.431   7.849  0.00  0.00    +0.277 C 
ENDBRANCH  26   6
ENDBRANCH  15  18
ENDBRANCH   7  15
ENDBRANCH   9   7
TORSDOF 8
ENDMDL
MODEL 5
REMARK VINA RESULT:      -6.8     18.247     21.204
REMARK  Name = 71694054
REMARK  9 active torsions:
REMARK  status: ('A' for Active; 'I' for Inactive)
REMARK    1  A    between atoms: O_4  and  C_11
REMARK    2  A    between atoms: O_5  and  C_13
REMARK    3  A    between atoms: O_6  and  C_26
REMARK    4  A    between atoms: O_6  and  C_27
REMARK    5  A    between atoms: N_7  and  C_9
REMARK    6  A    between atoms: N_7  and  C_15
REMARK    7  A    between atoms: C_10  and  C_14
REMARK    8  A    between atoms: C_15  and  C_18
REMARK    9  A    between atoms: C_20  and  C_23
REMARK                            x       y       z     vdW  Elec       q    Type
REMARK                         _______ _______ _______ _____ _____    ______ ____
ROOT
ATOM      9  C   UNL     1      12.841   5.145   1.158  0.00  0.00    +0.093 C 
ATOM     10  C   UNL     1      13.210   3.820   0.422  0.00  0.00    +0.042 C 
ATOM     11  C   UNL     1      14.112   6.009   1.093  0.00  0.00    +0.160 C 
ATOM     12  C   UNL     1      14.679   3.978  -0.017  0.00  0.00    +0.043 C 
ATOM     13  C   UNL     1      15.242   4.991   0.969  0.00  0.00    +0.145 C 
ENDROOT
BRANCH  10  14
ATOM      8  N   UNL     1      10.195   3.860  -1.878  0.00  0.00    -0.251 NA
ATOM     14  C   UNL     1      12.281   3.469  -0.720  0.00  0.00    -0.025 A 
ATOM     16  C   UNL     1      12.614   2.480  -1.638  0.00  0.00    +0.007 A 
ATOM     17  C   UNL     1      11.071   4.124  -0.882  0.00  0.00    +0.115 A 
ATOM     19  C   UNL     1      11.739   2.179  -2.676  0.00  0.00    +0.032 A 
ATOM     20  C   UNL     1      10.553   2.891  -2.752  0.00  0.00    +0.144 A 
BRANCH  20  23
ATOM      1  F   UNL     1       8.952   1.398  -3.713  0.00  0.00    -0.164 F 
ATOM      2  F   UNL     1      10.172   2.548  -5.088  0.00  0.00    -0.164 F 
ATOM      3  F   UNL     1       8.601   3.531  -3.950  0.00  0.00    -0.164 F 
ATOM     23  C   UNL     1       9.591   2.596  -3.853  0.00  0.00    +0.434 C 
ENDBRANCH  20  23
ENDBRANCH  10  14
BRANCH  11   4
ATOM      4  O   UNL     1      14.038   6.827  -0.074  0.00  0.00    -0.388 OA
ATOM     29  H   UNL     1      13.462   7.582   0.134  0.00  0.00    +0.210 HD
ENDBRANCH  11   4
BRANCH  13   5
ATOM      5  O   UNL     1      16.441   5.567   0.491  0.00  0.00    -0.389 OA
ATOM     30  H   UNL     1      16.950   5.865   1.263  0.00  0.00    +0.210 HD
ENDBRANCH  13   5
BRANCH   9   7
ATOM      7  N   UNL     1      12.509   4.854   2.555  0.00  0.00    -0.306 NA
ATOM     28  H   UNL     1      13.131   5.385   3.165  0.00  0.00    +0.123 HD
BRANCH   7  15
ATOM     15  C   UNL     1      11.134   5.230   2.851  0.00  0.00    +0.116 C 
BRANCH  15  18
ATOM     18  C   UNL     1      10.921   5.465   4.323  0.00  0.00    -0.033 A 
ATOM     21  C   UNL     1      11.649   6.454   4.984  0.00  0.00    +0.008 A 
ATOM     22  C   UNL     1       9.994   4.694   5.025  0.00  0.00    +0.008 A 
ATOM     24  C   UNL     1      11.451   6.673   6.347  0.00  0.00    +0.046 A 
ATOM     25  C   UNL     1       9.796   4.912   6.388  0.00  0.00    +0.046 A 
ATOM     26  C   UNL     1      10.524   5.901   7.050  0.00  0.00    +0.120 A 
BRANCH  26   6
ATOM      6  O   UNL     1      10.330   6.114   8.380  0.00  0.00    -0.495 OA
ATOM     27  C   UNL     1       9.633   5.102   9.104  0.00  0.00    +0.277 C 
ENDBRANCH  26   6
ENDBRANCH  15  18
ENDBRANCH   7  15
ENDBRANCH   9   7
TORSDOF 8
ENDMDL
MODEL 6
REMARK VINA RESULT:      -6.7     25.305     27.837
REMARK  Name = 71694054
REMARK  9 active torsions:
REMARK  status: ('A' for Active; 'I' for Inactive)
REMARK    1  A    between atoms: O_4  and  C_11
REMARK    2  A    between atoms: O_5  and  C_13
REMARK    3  A    between atoms: O_6  and  C_26
REMARK    4  A    between atoms: O_6  and  C_27
REMARK    5  A    between atoms: N_7  and  C_9
REMARK    6  A    between atoms: N_7  and  C_15
REMARK    7  A    between atoms: C_10  and  C_14
REMARK    8  A    between atoms: C_15  and  C_18
REMARK    9  A    between atoms: C_20  and  C_23
REMARK                            x       y       z     vdW  Elec       q    Type
REMARK                         _______ _______ _______ _____ _____    ______ ____
ROOT
ATOM      9  C   UNL     1     -14.516   6.808  22.936  0.00  0.00    +0.093 C 
ATOM     10  C   UNL     1     -14.862   6.641  21.424  0.00  0.00    +0.042 C 
ATOM     11  C   UNL     1     -14.696   5.407  23.546  0.00  0.00    +0.160 C 
ATOM     12  C   UNL     1     -15.240   5.159  21.239  0.00  0.00    +0.043 C 
ATOM     13  C   UNL     1     -15.706   4.732  22.623  0.00  0.00    +0.145 C 
ENDROOT
BRANCH  10  14
ATOM      8  N   UNL     1     -13.136   8.147  18.400  0.00  0.00    -0.251 NA
ATOM     14  C   UNL     1     -13.765   7.099  20.486  0.00  0.00    -0.025 A 
ATOM     16  C   UNL     1     -12.425   6.912  20.805  0.00  0.00    +0.007 A 
ATOM     17  C   UNL     1     -14.066   7.716  19.283  0.00  0.00    +0.115 A 
ATOM     19  C   UNL     1     -11.440   7.342  19.924  0.00  0.00    +0.032 A 
ATOM     20  C   UNL     1     -11.843   7.949  18.745  0.00  0.00    +0.144 A 
BRANCH  20  23
ATOM      1  F   UNL     1     -10.223   7.415  17.069  0.00  0.00    -0.164 F 
ATOM      2  F   UNL     1      -9.782   9.100  18.363  0.00  0.00    -0.164 F 
ATOM      3  F   UNL     1     -11.325   9.276  16.842  0.00  0.00    -0.164 F 
ATOM     23  C   UNL     1     -10.813   8.424  17.776  0.00  0.00    +0.434 C 
ENDBRANCH  20  23
ENDBRANCH  10  14
BRANCH  11   4
ATOM      4  O   UNL     1     -13.439   4.733  23.499  0.00  0.00    -0.388 OA
ATOM     29  H   UNL     1     -12.811   5.250  24.032  0.00  0.00    +0.210 HD
ENDBRANCH  11   4
BRANCH  13   5
ATOM      5  O   UNL     1     -15.707   3.325  22.756  0.00  0.00    -0.389 OA
ATOM     30  H   UNL     1     -16.419   2.978  22.191  0.00  0.00    +0.210 HD
ENDBRANCH  13   5
BRANCH   9   7
ATOM      7  N   UNL     1     -15.458   7.744  23.554  0.00  0.00    -0.306 NA
ATOM     28  H   UNL     1     -15.871   7.308  24.378  0.00  0.00    +0.123 HD
BRANCH   7  15
ATOM     15  C   UNL     1     -14.782   8.966  23.965  0.00  0.00    +0.116 C 
BRANCH  15  18
ATOM     18  C   UNL     1     -14.310   9.771  22.783  0.00  0.00    -0.033 A 
ATOM     21  C   UNL     1     -15.233  10.262  21.860  0.00  0.00    +0.008 A 
ATOM     22  C   UNL     1     -12.950  10.028  22.613  0.00  0.00    +0.008 A 
ATOM     24  C   UNL     1     -14.797  11.009  20.766  0.00  0.00    +0.046 A 
ATOM     25  C   UNL     1     -12.512  10.774  21.519  0.00  0.00    +0.046 A 
ATOM     26  C   UNL     1     -13.436  11.265  20.596  0.00  0.00    +0.120 A 
BRANCH  26   6
ATOM      6  O   UNL     1     -13.008  11.994  19.529  0.00  0.00    -0.495 OA
ATOM     27  C   UNL     1     -11.652  11.817  19.122  0.00  0.00    +0.277 C 
ENDBRANCH  26   6
ENDBRANCH  15  18
ENDBRANCH   7  15
ENDBRANCH   9   7
TORSDOF 8
ENDMDL
MODEL 7
REMARK VINA RESULT:      -6.6     26.722     29.206
REMARK  Name = 71694054
REMARK  9 active torsions:
REMARK  status: ('A' for Active; 'I' for Inactive)
REMARK    1  A    between atoms: O_4  and  C_11
REMARK    2  A    between atoms: O_5  and  C_13
REMARK    3  A    between atoms: O_6  and  C_26
REMARK    4  A    between atoms: O_6  and  C_27
REMARK    5  A    between atoms: N_7  and  C_9
REMARK    6  A    between atoms: N_7  and  C_15
REMARK    7  A    between atoms: C_10  and  C_14
REMARK    8  A    between atoms: C_15  and  C_18
REMARK    9  A    between atoms: C_20  and  C_23
REMARK                            x       y       z     vdW  Elec       q    Type
REMARK                         _______ _______ _______ _____ _____    ______ ____
ROOT
ATOM      9  C   UNL     1      -7.127 -10.161  18.393  0.00  0.00    +0.093 C 
ATOM     10  C   UNL     1      -6.829 -11.179  17.248  0.00  0.00    +0.042 C 
ATOM     11  C   UNL     1      -7.473 -11.023  19.618  0.00  0.00    +0.160 C 
ATOM     12  C   UNL     1      -7.034 -12.576  17.865  0.00  0.00    +0.043 C 
ATOM     13  C   UNL     1      -7.996 -12.324  19.016  0.00  0.00    +0.145 C 
ENDROOT
BRANCH  10  14
ATOM      8  N   UNL     1      -4.167 -10.589  14.612  0.00  0.00    -0.251 NA
ATOM     14  C   UNL     1      -5.469 -11.003  16.606  0.00  0.00    -0.025 A 
ATOM     16  C   UNL     1      -4.304 -11.089  17.359  0.00  0.00    +0.007 A 
ATOM     17  C   UNL     1      -5.348 -10.755  15.248  0.00  0.00    +0.115 A 
ATOM     19  C   UNL     1      -3.069 -10.924  16.740  0.00  0.00    +0.032 A 
ATOM     20  C   UNL     1      -3.055 -10.678  15.376  0.00  0.00    +0.144 A 
BRANCH  20  23
ATOM      1  F   UNL     1      -0.999 -11.636  14.617  0.00  0.00    -0.164 F 
ATOM      2  F   UNL     1      -0.939  -9.569  15.272  0.00  0.00    -0.164 F 
ATOM      3  F   UNL     1      -1.896 -10.082  13.388  0.00  0.00    -0.164 F 
ATOM     23  C   UNL     1      -1.748 -10.496  14.680  0.00  0.00    +0.434 C 
ENDBRANCH  20  23
ENDBRANCH  10  14
BRANCH  11   4
ATOM      4  O   UNL     1      -6.274 -11.255  20.356  0.00  0.00    -0.388 OA
ATOM     29  H   UNL     1      -5.858 -10.390  20.516  0.00  0.00    +0.210 HD
ENDBRANCH  11   4
BRANCH  13   5
ATOM      5  O   UNL     1      -7.988 -13.392  19.940  0.00  0.00    -0.389 OA
ATOM     30  H   UNL     1      -7.060 -13.634  20.099  0.00  0.00    +0.210 HD
ENDBRANCH  13   5
BRANCH   9   7
ATOM      7  N   UNL     1      -8.278  -9.333  18.025  0.00  0.00    -0.306 NA
ATOM     28  H   UNL     1      -8.050  -8.352  18.187  0.00  0.00    +0.123 HD
BRANCH   7  15
ATOM     15  C   UNL     1      -8.614  -9.506  16.619  0.00  0.00    +0.116 C 
BRANCH  15  18
ATOM     18  C   UNL     1      -9.697  -8.557  16.180  0.00  0.00    -0.033 A 
ATOM     21  C   UNL     1     -10.115  -7.533  17.030  0.00  0.00    +0.008 A 
ATOM     22  C   UNL     1     -10.281  -8.700  14.921  0.00  0.00    +0.008 A 
ATOM     24  C   UNL     1     -11.117  -6.653  16.622  0.00  0.00    +0.046 A 
ATOM     25  C   UNL     1     -11.284  -7.821  14.513  0.00  0.00    +0.046 A 
ATOM     26  C   UNL     1     -11.702  -6.797  15.364  0.00  0.00    +0.120 A 
BRANCH  26   6
ATOM      6  O   UNL     1     -12.680  -5.938  14.965  0.00  0.00    -0.495 OA
ATOM     27  C   UNL     1     -12.426  -5.165  13.793  0.00  0.00    +0.277 C 
ENDBRANCH  26   6
ENDBRANCH  15  18
ENDBRANCH   7  15
ENDBRANCH   9   7
TORSDOF 8
ENDMDL
MODEL 8
REMARK VINA RESULT:      -6.6     27.211     30.088
REMARK  Name = 71694054
REMARK  9 active torsions:
REMARK  status: ('A' for Active; 'I' for Inactive)
REMARK    1  A    between atoms: O_4  and  C_11
REMARK    2  A    between atoms: O_5  and  C_13
REMARK    3  A    between atoms: O_6  and  C_26
REMARK    4  A    between atoms: O_6  and  C_27
REMARK    5  A    between atoms: N_7  and  C_9
REMARK    6  A    between atoms: N_7  and  C_15
REMARK    7  A    between atoms: C_10  and  C_14
REMARK    8  A    between atoms: C_15  and  C_18
REMARK    9  A    between atoms: C_20  and  C_23
REMARK                            x       y       z     vdW  Elec       q    Type
REMARK                         _______ _______ _______ _____ _____    ______ ____
ROOT
ATOM      9  C   UNL     1     -15.789   3.624  24.619  0.00  0.00    +0.093 C 
ATOM     10  C   UNL     1     -16.121   5.048  24.073  0.00  0.00    +0.042 C 
ATOM     11  C   UNL     1     -16.971   2.741  24.187  0.00  0.00    +0.160 C 
ATOM     12  C   UNL     1     -17.486   4.919  23.368  0.00  0.00    +0.043 C 
ATOM     13  C   UNL     1     -18.132   3.723  24.050  0.00  0.00    +0.145 C 
ENDROOT
BRANCH  10  14
ATOM      8  N   UNL     1     -14.188   7.537  21.964  0.00  0.00    -0.251 NA
ATOM     14  C   UNL     1     -15.044   5.635  23.187  0.00  0.00    -0.025 A 
ATOM     16  C   UNL     1     -13.956   4.872  22.779  0.00  0.00    +0.007 A 
ATOM     17  C   UNL     1     -15.113   6.950  22.756  0.00  0.00    +0.115 A 
ATOM     19  C   UNL     1     -12.983   5.440  21.964  0.00  0.00    +0.032 A 
ATOM     20  C   UNL     1     -13.143   6.764  21.587  0.00  0.00    +0.144 A 
BRANCH  20  23
ATOM      1  F   UNL     1     -10.834   7.098  21.063  0.00  0.00    -0.164 F 
ATOM      2  F   UNL     1     -12.173   8.770  20.719  0.00  0.00    -0.164 F 
ATOM      3  F   UNL     1     -12.240   7.039  19.405  0.00  0.00    -0.164 F 
ATOM     23  C   UNL     1     -12.118   7.405  20.714  0.00  0.00    +0.434 C 
ENDBRANCH  20  23
ENDBRANCH  10  14
BRANCH  11   4
ATOM      4  O   UNL     1     -16.655   2.155  22.925  0.00  0.00    -0.388 OA
ATOM     29  H   UNL     1     -15.700   1.967  22.922  0.00  0.00    +0.210 HD
ENDBRANCH  11   4
BRANCH  13   5
ATOM      5  O   UNL     1     -19.196   3.201  23.280  0.00  0.00    -0.389 OA
ATOM     30  H   UNL     1     -19.877   2.887  23.899  0.00  0.00    +0.210 HD
ENDBRANCH  13   5
BRANCH   9   7
ATOM      7  N   UNL     1     -15.708   3.667  26.081  0.00  0.00    -0.306 NA
ATOM     28  H   UNL     1     -16.094   4.551  26.412  0.00  0.00    +0.123 HD
BRANCH   7  15
ATOM     15  C   UNL     1     -16.467   2.577  26.676  0.00  0.00    +0.116 C 
BRANCH  15  18
ATOM     18  C   UNL     1     -15.974   2.238  28.057  0.00  0.00    -0.033 A 
ATOM     21  C   UNL     1     -15.332   3.207  28.827  0.00  0.00    +0.008 A 
ATOM     22  C   UNL     1     -16.162   0.953  28.568  0.00  0.00    +0.008 A 
ATOM     24  C   UNL     1     -14.878   2.893  30.108  0.00  0.00    +0.046 A 
ATOM     25  C   UNL     1     -15.707   0.638  29.848  0.00  0.00    +0.046 A 
ATOM     26  C   UNL     1     -15.064   1.608  30.619  0.00  0.00    +0.120 A 
BRANCH  26   6
ATOM      6  O   UNL     1     -14.621   1.301  31.868  0.00  0.00    -0.495 OA
ATOM     27  C   UNL     1     -14.901   2.240  32.905  0.00  0.00    +0.277 C 
ENDBRANCH  26   6
ENDBRANCH  15  18
ENDBRANCH   7  15
ENDBRANCH   9   7
TORSDOF 8
ENDMDL
MODEL 9
REMARK VINA RESULT:      -6.5     15.523     19.145
REMARK  Name = 71694054
REMARK  9 active torsions:
REMARK  status: ('A' for Active; 'I' for Inactive)
REMARK    1  A    between atoms: O_4  and  C_11
REMARK    2  A    between atoms: O_5  and  C_13
REMARK    3  A    between atoms: O_6  and  C_26
REMARK    4  A    between atoms: O_6  and  C_27
REMARK    5  A    between atoms: N_7  and  C_9
REMARK    6  A    between atoms: N_7  and  C_15
REMARK    7  A    between atoms: C_10  and  C_14
REMARK    8  A    between atoms: C_15  and  C_18
REMARK    9  A    between atoms: C_20  and  C_23
REMARK                            x       y       z     vdW  Elec       q    Type
REMARK                         _______ _______ _______ _____ _____    ______ ____
ROOT
ATOM      9  C   UNL     1      10.430   6.566   6.088  0.00  0.00    +0.093 C 
ATOM     10  C   UNL     1      10.041   5.327   5.222  0.00  0.00    +0.042 C 
ATOM     11  C   UNL     1      10.670   6.009   7.501  0.00  0.00    +0.160 C 
ATOM     12  C   UNL     1      10.060   4.121   6.181  0.00  0.00    +0.043 C 
ATOM     13  C   UNL     1       9.817   4.745   7.547  0.00  0.00    +0.145 C 
ENDROOT
BRANCH  10  14
ATOM      8  N   UNL     1      11.625   3.709   2.179  0.00  0.00    -0.251 NA
ATOM     14  C   UNL     1      10.913   5.131   4.000  0.00  0.00    -0.025 A 
ATOM     16  C   UNL     1      11.778   6.130   3.568  0.00  0.00    +0.007 A 
ATOM     17  C   UNL     1      10.874   3.950   3.277  0.00  0.00    +0.115 A 
ATOM     19  C   UNL     1      12.566   5.921   2.442  0.00  0.00    +0.032 A 
ATOM     20  C   UNL     1      12.454   4.704   1.788  0.00  0.00    +0.144 A 
BRANCH  20  23
ATOM      1  F   UNL     1      13.247   3.146   0.157  0.00  0.00    -0.164 F 
ATOM      2  F   UNL     1      14.609   4.726   0.751  0.00  0.00    -0.164 F 
ATOM      3  F   UNL     1      12.891   5.188  -0.498  0.00  0.00    -0.164 F 
ATOM     23  C   UNL     1      13.284   4.445   0.576  0.00  0.00    +0.434 C 
ENDBRANCH  20  23
ENDBRANCH  10  14
BRANCH  11   4
ATOM      4  O   UNL     1      12.055   5.689   7.628  0.00  0.00    -0.388 OA
ATOM     29  H   UNL     1      12.447   5.732   6.738  0.00  0.00    +0.210 HD
ENDBRANCH  11   4
BRANCH  13   5
ATOM      5  O   UNL     1      10.198   3.870   8.590  0.00  0.00    -0.389 OA
ATOM     30  H   UNL     1       9.440   3.786   9.193  0.00  0.00    +0.210 HD
ENDBRANCH  13   5
BRANCH   9   7
ATOM      7  N   UNL     1       9.317   7.518   6.110  0.00  0.00    -0.306 NA
ATOM     28  H   UNL     1       9.656   8.435   5.820  0.00  0.00    +0.123 HD
BRANCH   7  15
ATOM     15  C   UNL     1       8.261   7.103   5.199  0.00  0.00    +0.116 C 
BRANCH  15  18
ATOM     18  C   UNL     1       8.068   8.088   4.077  0.00  0.00    -0.033 A 
ATOM     21  C   UNL     1       8.657   7.855   2.835  0.00  0.00    +0.008 A 
ATOM     22  C   UNL     1       7.297   9.233   4.280  0.00  0.00    +0.008 A 
ATOM     24  C   UNL     1       8.477   8.767   1.795  0.00  0.00    +0.046 A 
ATOM     25  C   UNL     1       7.117  10.146   3.241  0.00  0.00    +0.046 A 
ATOM     26  C   UNL     1       7.707   9.913   1.998  0.00  0.00    +0.120 A 
BRANCH  26   6
ATOM      6  O   UNL     1       7.530  10.803   0.984  0.00  0.00    -0.495 OA
ATOM     27  C   UNL     1       7.065  10.285  -0.262  0.00  0.00    +0.277 C 
ENDBRANCH  26   6
ENDBRANCH  15  18
ENDBRANCH   7  15
ENDBRANCH   9   7
TORSDOF 8
ENDMDL
MODEL 10
REMARK VINA RESULT:      -6.4     26.881     28.550
REMARK  Name = 71694054
REMARK  9 active torsions:
REMARK  status: ('A' for Active; 'I' for Inactive)
REMARK    1  A    between atoms: O_4  and  C_11
REMARK    2  A    between atoms: O_5  and  C_13
REMARK    3  A    between atoms: O_6  and  C_26
REMARK    4  A    between atoms: O_6  and  C_27
REMARK    5  A    between atoms: N_7  and  C_9
REMARK    6  A    between atoms: N_7  and  C_15
REMARK    7  A    between atoms: C_10  and  C_14
REMARK    8  A    between atoms: C_15  and  C_18
REMARK    9  A    between atoms: C_20  and  C_23
REMARK                            x       y       z     vdW  Elec       q    Type
REMARK                         _______ _______ _______ _____ _____    ______ ____
ROOT
ATOM      9  C   UNL     1      -2.527 -12.464  14.242  0.00  0.00    +0.093 C 
ATOM     10  C   UNL     1      -3.995 -12.472  13.714  0.00  0.00    +0.042 C 
ATOM     11  C   UNL     1      -2.040 -13.915  14.096  0.00  0.00    +0.160 C 
ATOM     12  C   UNL     1      -4.287 -13.929  13.305  0.00  0.00    +0.043 C 
ATOM     13  C   UNL     1      -3.321 -14.741  14.155  0.00  0.00    +0.145 C 
ENDROOT
BRANCH  10  14
ATOM      8  N   UNL     1      -3.829 -10.755  10.336  0.00  0.00    -0.251 NA
ATOM     14  C   UNL     1      -4.257 -11.477  12.603  0.00  0.00    -0.025 A 
ATOM     16  C   UNL     1      -5.121 -10.405  12.789  0.00  0.00    +0.007 A 
ATOM     17  C   UNL     1      -3.641 -11.607  11.369  0.00  0.00    +0.115 A 
ATOM     19  C   UNL     1      -5.341  -9.507  11.751  0.00  0.00    +0.032 A 
ATOM     20  C   UNL     1      -4.677  -9.724  10.554  0.00  0.00    +0.144 A 
BRANCH  20  23
ATOM      1  F   UNL     1      -3.748  -8.496   8.724  0.00  0.00    -0.164 F 
ATOM      2  F   UNL     1      -5.387  -7.569   9.800  0.00  0.00    -0.164 F 
ATOM      3  F   UNL     1      -5.769  -9.264   8.493  0.00  0.00    -0.164 F 
ATOM     23  C   UNL     1      -4.889  -8.781   9.417  0.00  0.00    +0.434 C 
ENDBRANCH  20  23
ENDBRANCH  10  14
BRANCH  11   4
ATOM      4  O   UNL     1      -1.409 -14.050  12.823  0.00  0.00    -0.388 OA
ATOM     29  H   UNL     1      -1.464 -14.988  12.568  0.00  0.00    +0.210 HD
ENDBRANCH  11   4
BRANCH  13   5
ATOM      5  O   UNL     1      -3.151 -16.046  13.640  0.00  0.00    -0.389 OA
ATOM     30  H   UNL     1      -3.226 -16.666  14.385  0.00  0.00    +0.210 HD
ENDBRANCH  13   5
BRANCH   9   7
ATOM      7  N   UNL     1      -2.517 -12.074  15.654  0.00  0.00    -0.306 NA
ATOM     28  H   UNL     1      -1.552 -12.046  15.986  0.00  0.00    +0.123 HD
BRANCH   7  15
ATOM     15  C   UNL     1      -3.108 -10.757  15.834  0.00  0.00    +0.116 C 
BRANCH  15  18
ATOM     18  C   UNL     1      -4.188 -10.765  16.883  0.00  0.00    -0.033 A 
ATOM     21  C   UNL     1      -3.994 -11.456  18.079  0.00  0.00    +0.008 A 
ATOM     22  C   UNL     1      -5.382 -10.079  16.661  0.00  0.00    +0.008 A 
ATOM     24  C   UNL     1      -4.993 -11.462  19.052  0.00  0.00    +0.046 A 
ATOM     25  C   UNL     1      -6.382 -10.085  17.632  0.00  0.00    +0.046 A 
ATOM     26  C   UNL     1      -6.187 -10.777  18.829  0.00  0.00    +0.120 A 
BRANCH  26   6
ATOM      6  O   UNL     1      -7.163 -10.782  19.778  0.00  0.00    -0.495 OA
ATOM     27  C   UNL     1      -8.433 -11.312  19.401  0.00  0.00    +0.277 C 
ENDBRANCH  26   6
ENDBRANCH  15  18
ENDBRANCH   7  15
ENDBRANCH   9   7
TORSDOF 8
ENDMDL
