MODEL 1
REMARK VINA RESULT:      -7.2      0.000      0.000
REMARK  Name = 75367034
REMARK  10 active torsions:
REMARK  status: ('A' for Active; 'I' for Inactive)
REMARK    1  A    between atoms: O_2  and  C_10
REMARK    2  A    between atoms: O_4  and  C_26
REMARK    3  A    between atoms: N_5  and  C_21
REMARK    4  A    between atoms: N_6  and  C_14
REMARK    5  A    between atoms: N_6  and  C_24
REMARK    6  A    between atoms: C_8  and  C_13
REMARK    7  A    between atoms: C_9  and  C_14
REMARK    8  A    between atoms: C_13  and  C_20
REMARK    9  A    between atoms: C_21  and  C_22
REMARK   10  A    between atoms: C_24  and  C_25
REMARK                            x       y       z     vdW  Elec       q    Type
REMARK                         _______ _______ _______ _____ _____    ______ ____
ROOT
ATOM      1  O   UNL     1     -16.184   2.139  25.073  0.00  0.00    -0.369 OA
ATOM      8  C   UNL     1     -17.368   1.987  25.859  0.00  0.00    +0.125 C 
ATOM      9  C   UNL     1     -16.253   3.146  24.054  0.00  0.00    +0.161 C 
ATOM     10  C   UNL     1     -17.444   2.910  23.117  0.00  0.00    +0.145 C 
ATOM     11  C   UNL     1     -18.562   1.635  24.973  0.00  0.00    +0.034 C 
ATOM     12  C   UNL     1     -18.747   2.681  23.878  0.00  0.00    +0.036 C 
ENDROOT
BRANCH  10   2
ATOM      2  O   UNL     1     -17.188   1.744  22.330  0.00  0.00    -0.389 OA
ATOM     32  H   UNL     1     -16.260   1.782  22.041  0.00  0.00    +0.210 HD
ENDBRANCH  10   2
BRANCH   8  13
ATOM     13  C   UNL     1     -17.104   0.885  26.878  0.00  0.00    +0.090 C 
BRANCH  13  20
ATOM      3  O   UNL     1     -15.136   1.299  29.868  0.00  0.00    -0.358 OA
ATOM      7  N   UNL     1     -15.852   0.523  28.965  0.00  0.00    -0.083 NA
ATOM     20  C   UNL     1     -16.281   1.382  28.036  0.00  0.00    +0.086 A 
ATOM     22  C   UNL     1     -15.153   2.594  29.460  0.00  0.00    +0.151 A 
ATOM     23  C   UNL     1     -15.870   2.701  28.298  0.00  0.00    +0.072 A 
BRANCH  22  21
ATOM     21  C   UNL     1     -14.439   3.558  30.305  0.00  0.00    +0.161 C 
BRANCH  21   5
ATOM      5  N   UNL     1     -14.918   3.579  31.688  0.00  0.00    -0.295 NA
ATOM     15  C   UNL     1     -13.918   4.200  32.568  0.00  0.00    +0.085 C 
ATOM     16  C   UNL     1     -16.208   4.276  31.774  0.00  0.00    +0.085 C 
ATOM     17  C   UNL     1     -14.382   4.186  34.025  0.00  0.00    +0.015 C 
ATOM     18  C   UNL     1     -16.747   4.265  33.204  0.00  0.00    +0.015 C 
ATOM     19  C   UNL     1     -15.740   4.862  34.181  0.00  0.00    +0.002 C 
ENDBRANCH  21   5
ENDBRANCH  22  21
ENDBRANCH  13  20
ENDBRANCH   8  13
BRANCH   9  14
ATOM     14  C   UNL     1     -16.241   4.546  24.663  0.00  0.00    +0.115 C 
BRANCH  14   6
ATOM      6  N   UNL     1     -15.107   5.316  24.172  0.00  0.00    -0.309 NA
ATOM     31  H   UNL     1     -14.758   5.914  24.921  0.00  0.00    +0.122 HD
BRANCH   6  24
ATOM     24  C   UNL     1     -15.486   6.130  23.025  0.00  0.00    +0.120 C 
BRANCH  24  25
ATOM     25  C   UNL     1     -14.283   6.631  22.272  0.00  0.00    +0.008 A 
ATOM     26  C   UNL     1     -13.324   5.743  21.786  0.00  0.00    +0.121 A 
ATOM     27  C   UNL     1     -14.132   8.002  22.061  0.00  0.00    +0.008 A 
ATOM     28  C   UNL     1     -12.215   6.223  21.090  0.00  0.00    +0.046 A 
ATOM     29  C   UNL     1     -13.022   8.483  21.365  0.00  0.00    +0.001 A 
ATOM     30  C   UNL     1     -12.064   7.593  20.880  0.00  0.00    +0.004 A 
BRANCH  26   4
ATOM      4  O   UNL     1     -13.454   4.400  21.983  0.00  0.00    -0.506 OA
ATOM     33  H   UNL     1     -12.961   3.928  21.292  0.00  0.00    +0.292 HD
ENDBRANCH  26   4
ENDBRANCH  24  25
ENDBRANCH   6  24
ENDBRANCH  14   6
ENDBRANCH   9  14
TORSDOF 10
ENDMDL
MODEL 2
REMARK VINA RESULT:      -6.9     18.464     21.477
REMARK  Name = 75367034
REMARK  10 active torsions:
REMARK  status: ('A' for Active; 'I' for Inactive)
REMARK    1  A    between atoms: O_2  and  C_10
REMARK    2  A    between atoms: O_4  and  C_26
REMARK    3  A    between atoms: N_5  and  C_21
REMARK    4  A    between atoms: N_6  and  C_14
REMARK    5  A    between atoms: N_6  and  C_24
REMARK    6  A    between atoms: C_8  and  C_13
REMARK    7  A    between atoms: C_9  and  C_14
REMARK    8  A    between atoms: C_13  and  C_20
REMARK    9  A    between atoms: C_21  and  C_22
REMARK   10  A    between atoms: C_24  and  C_25
REMARK                            x       y       z     vdW  Elec       q    Type
REMARK                         _______ _______ _______ _____ _____    ______ ____
ROOT
ATOM      1  O   UNL     1      -6.625 -11.430  16.888  0.00  0.00    -0.369 OA
ATOM      8  C   UNL     1      -5.287 -11.175  17.324  0.00  0.00    +0.125 C 
ATOM      9  C   UNL     1      -7.626 -10.576  17.459  0.00  0.00    +0.161 C 
ATOM     10  C   UNL     1      -7.588 -10.620  18.991  0.00  0.00    +0.145 C 
ATOM     11  C   UNL     1      -5.179 -11.324  18.841  0.00  0.00    +0.034 C 
ATOM     12  C   UNL     1      -6.181 -10.414  19.545  0.00  0.00    +0.036 C 
ENDROOT
BRANCH  10   2
ATOM      2  O   UNL     1      -8.043 -11.903  19.427  0.00  0.00    -0.389 OA
ATOM     32  H   UNL     1      -8.398 -11.800  20.327  0.00  0.00    +0.210 HD
ENDBRANCH  10   2
BRANCH   8  13
ATOM     13  C   UNL     1      -4.376 -12.170  16.615  0.00  0.00    +0.090 C 
BRANCH  13  20
ATOM      3  O   UNL     1      -1.994 -10.232  14.728  0.00  0.00    -0.358 OA
ATOM      7  N   UNL     1      -2.561 -10.659  15.923  0.00  0.00    -0.083 NA
ATOM     20  C   UNL     1      -3.535 -11.500  15.561  0.00  0.00    +0.086 A 
ATOM     22  C   UNL     1      -2.637 -10.824  13.690  0.00  0.00    +0.151 A 
ATOM     23  C   UNL     1      -3.627 -11.641  14.165  0.00  0.00    +0.072 A 
BRANCH  22  21
ATOM     21  C   UNL     1      -2.161 -10.482  12.344  0.00  0.00    +0.161 C 
BRANCH  21   5
ATOM      5  N   UNL     1      -3.240 -10.377  11.360  0.00  0.00    -0.295 NA
ATOM     15  C   UNL     1      -2.963  -9.293  10.408  0.00  0.00    +0.085 C 
ATOM     16  C   UNL     1      -3.429 -11.659  10.666  0.00  0.00    +0.085 C 
ATOM     17  C   UNL     1      -4.105  -9.137   9.403  0.00  0.00    +0.015 C 
ATOM     18  C   UNL     1      -4.585 -11.581   9.669  0.00  0.00    +0.015 C 
ATOM     19  C   UNL     1      -4.382 -10.446   8.671  0.00  0.00    +0.002 C 
ENDBRANCH  21   5
ENDBRANCH  22  21
ENDBRANCH  13  20
ENDBRANCH   8  13
BRANCH   9  14
ATOM     14  C   UNL     1      -7.525  -9.159  16.900  0.00  0.00    +0.115 C 
BRANCH  14   6
ATOM      6  N   UNL     1      -8.774  -8.759  16.269  0.00  0.00    -0.309 NA
ATOM     31  H   UNL     1      -8.569  -8.161  15.469  0.00  0.00    +0.122 HD
BRANCH   6  24
ATOM     24  C   UNL     1      -9.630  -8.050  17.211  0.00  0.00    +0.120 C 
BRANCH  24  25
ATOM     25  C   UNL     1     -10.884  -7.539  16.552  0.00  0.00    +0.008 A 
ATOM     26  C   UNL     1     -10.846  -6.424  15.715  0.00  0.00    +0.121 A 
ATOM     27  C   UNL     1     -12.093  -8.193  16.786  0.00  0.00    +0.008 A 
ATOM     28  C   UNL     1     -12.016  -5.963  15.112  0.00  0.00    +0.046 A 
ATOM     29  C   UNL     1     -13.264  -7.732  16.183  0.00  0.00    +0.001 A 
ATOM     30  C   UNL     1     -13.225  -6.616  15.347  0.00  0.00    +0.004 A 
BRANCH  26   4
ATOM      4  O   UNL     1      -9.673  -5.771  15.476  0.00  0.00    -0.506 OA
ATOM     33  H   UNL     1      -9.692  -5.403  14.577  0.00  0.00    +0.292 HD
ENDBRANCH  26   4
ENDBRANCH  24  25
ENDBRANCH   6  24
ENDBRANCH  14   6
ENDBRANCH   9  14
TORSDOF 10
ENDMDL
MODEL 3
REMARK VINA RESULT:      -6.7     19.888     22.288
REMARK  Name = 75367034
REMARK  10 active torsions:
REMARK  status: ('A' for Active; 'I' for Inactive)
REMARK    1  A    between atoms: O_2  and  C_10
REMARK    2  A    between atoms: O_4  and  C_26
REMARK    3  A    between atoms: N_5  and  C_21
REMARK    4  A    between atoms: N_6  and  C_14
REMARK    5  A    between atoms: N_6  and  C_24
REMARK    6  A    between atoms: C_8  and  C_13
REMARK    7  A    between atoms: C_9  and  C_14
REMARK    8  A    between atoms: C_13  and  C_20
REMARK    9  A    between atoms: C_21  and  C_22
REMARK   10  A    between atoms: C_24  and  C_25
REMARK                            x       y       z     vdW  Elec       q    Type
REMARK                         _______ _______ _______ _____ _____    ______ ____
ROOT
ATOM      1  O   UNL     1      -4.552  -9.154  11.142  0.00  0.00    -0.369 OA
ATOM      8  C   UNL     1      -4.063 -10.484  10.948  0.00  0.00    +0.125 C 
ATOM      9  C   UNL     1      -5.919  -8.945  10.760  0.00  0.00    +0.161 C 
ATOM     10  C   UNL     1      -6.159  -9.353   9.302  0.00  0.00    +0.145 C 
ATOM     11  C   UNL     1      -4.177 -10.890   9.479  0.00  0.00    +0.034 C 
ATOM     12  C   UNL     1      -5.614 -10.744   8.990  0.00  0.00    +0.036 C 
ENDROOT
BRANCH  10   2
ATOM      2  O   UNL     1      -5.492  -8.423   8.446  0.00  0.00    -0.389 OA
ATOM     32  H   UNL     1      -5.609  -7.535   8.827  0.00  0.00    +0.210 HD
ENDBRANCH  10   2
BRANCH   8  13
ATOM     13  C   UNL     1      -2.611 -10.509  11.408  0.00  0.00    +0.090 C 
BRANCH  13  20
ATOM      3  O   UNL     1      -1.913 -12.311  14.450  0.00  0.00    -0.358 OA
ATOM      7  N   UNL     1      -1.851 -12.157  13.070  0.00  0.00    -0.083 NA
ATOM     20  C   UNL     1      -2.483 -11.006  12.823  0.00  0.00    +0.086 A 
ATOM     22  C   UNL     1      -2.575 -11.256  14.990  0.00  0.00    +0.151 A 
ATOM     23  C   UNL     1      -2.961 -10.396  13.997  0.00  0.00    +0.072 A 
BRANCH  22  21
ATOM     21  C   UNL     1      -2.733 -11.258  16.449  0.00  0.00    +0.161 C 
BRANCH  21   5
ATOM      5  N   UNL     1      -4.109 -11.505  16.881  0.00  0.00    -0.295 NA
ATOM     15  C   UNL     1      -4.609 -12.762  16.307  0.00  0.00    +0.085 C 
ATOM     16  C   UNL     1      -4.193 -11.519  18.348  0.00  0.00    +0.085 C 
ATOM     17  C   UNL     1      -6.064 -13.011  16.709  0.00  0.00    +0.015 C 
ATOM     18  C   UNL     1      -5.634 -11.727  18.816  0.00  0.00    +0.015 C 
ATOM     19  C   UNL     1      -6.231 -12.999  18.224  0.00  0.00    +0.002 C 
ENDBRANCH  21   5
ENDBRANCH  22  21
ENDBRANCH  13  20
ENDBRANCH   8  13
BRANCH   9  14
ATOM     14  C   UNL     1      -6.873  -9.627  11.737  0.00  0.00    +0.115 C 
BRANCH  14   6
ATOM      6  N   UNL     1      -6.542  -9.286  13.112  0.00  0.00    -0.309 NA
ATOM     31  H   UNL     1      -5.606  -8.882  13.141  0.00  0.00    +0.122 HD
BRANCH   6  24
ATOM     24  C   UNL     1      -6.601 -10.461  13.971  0.00  0.00    +0.120 C 
BRANCH  24  25
ATOM     25  C   UNL     1      -7.442 -10.217  15.196  0.00  0.00    +0.008 A 
ATOM     26  C   UNL     1      -6.947  -9.469  16.263  0.00  0.00    +0.121 A 
ATOM     27  C   UNL     1      -8.730 -10.750  15.256  0.00  0.00    +0.008 A 
ATOM     28  C   UNL     1      -7.739  -9.252  17.391  0.00  0.00    +0.046 A 
ATOM     29  C   UNL     1      -9.522 -10.534  16.384  0.00  0.00    +0.001 A 
ATOM     30  C   UNL     1      -9.026  -9.785  17.452  0.00  0.00    +0.004 A 
BRANCH  26   4
ATOM      4  O   UNL     1      -5.691  -8.942  16.222  0.00  0.00    -0.506 OA
ATOM     33  H   UNL     1      -5.710  -8.113  15.714  0.00  0.00    +0.292 HD
ENDBRANCH  26   4
ENDBRANCH  24  25
ENDBRANCH   6  24
ENDBRANCH  14   6
ENDBRANCH   9  14
TORSDOF 10
ENDMDL
MODEL 4
REMARK VINA RESULT:      -6.6     18.849     22.092
REMARK  Name = 75367034
REMARK  10 active torsions:
REMARK  status: ('A' for Active; 'I' for Inactive)
REMARK    1  A    between atoms: O_2  and  C_10
REMARK    2  A    between atoms: O_4  and  C_26
REMARK    3  A    between atoms: N_5  and  C_21
REMARK    4  A    between atoms: N_6  and  C_14
REMARK    5  A    between atoms: N_6  and  C_24
REMARK    6  A    between atoms: C_8  and  C_13
REMARK    7  A    between atoms: C_9  and  C_14
REMARK    8  A    between atoms: C_13  and  C_20
REMARK    9  A    between atoms: C_21  and  C_22
REMARK   10  A    between atoms: C_24  and  C_25
REMARK                            x       y       z     vdW  Elec       q    Type
REMARK                         _______ _______ _______ _____ _____    ______ ____
ROOT
ATOM      1  O   UNL     1      -6.638 -12.113  17.223  0.00  0.00    -0.369 OA
ATOM      8  C   UNL     1      -5.228 -11.878  17.259  0.00  0.00    +0.125 C 
ATOM      9  C   UNL     1      -7.407 -11.357  18.169  0.00  0.00    +0.161 C 
ATOM     10  C   UNL     1      -6.904 -11.579  19.601  0.00  0.00    +0.145 C 
ATOM     11  C   UNL     1      -4.664 -12.201  18.642  0.00  0.00    +0.034 C 
ATOM     12  C   UNL     1      -5.392 -11.404  19.720  0.00  0.00    +0.036 C 
ENDROOT
BRANCH  10   2
ATOM      2  O   UNL     1      -7.220 -12.915  19.999  0.00  0.00    -0.389 OA
ATOM     32  H   UNL     1      -8.186 -13.016  19.949  0.00  0.00    +0.210 HD
ENDBRANCH  10   2
BRANCH   8  13
ATOM     13  C   UNL     1      -4.590 -12.760  16.193  0.00  0.00    +0.090 C 
BRANCH  13  20
ATOM      3  O   UNL     1      -2.564 -10.369  14.413  0.00  0.00    -0.358 OA
ATOM      7  N   UNL     1      -3.137 -10.873  15.575  0.00  0.00    -0.083 NA
ATOM     20  C   UNL     1      -3.828 -11.947  15.181  0.00  0.00    +0.086 A 
ATOM     22  C   UNL     1      -2.923 -11.149  13.362  0.00  0.00    +0.151 A 
ATOM     23  C   UNL     1      -3.728 -12.168  13.796  0.00  0.00    +0.072 A 
BRANCH  22  21
ATOM     21  C   UNL     1      -2.401 -10.757  12.047  0.00  0.00    +0.161 C 
BRANCH  21   5
ATOM      5  N   UNL     1      -3.452 -10.432  11.082  0.00  0.00    -0.295 NA
ATOM     15  C   UNL     1      -3.068  -9.264  10.278  0.00  0.00    +0.085 C 
ATOM     16  C   UNL     1      -3.743 -11.593  10.228  0.00  0.00    +0.085 C 
ATOM     17  C   UNL     1      -4.177  -8.880   9.298  0.00  0.00    +0.015 C 
ATOM     18  C   UNL     1      -4.874 -11.286   9.246  0.00  0.00    +0.015 C 
ATOM     19  C   UNL     1      -4.557 -10.055   8.403  0.00  0.00    +0.002 C 
ENDBRANCH  21   5
ENDBRANCH  22  21
ENDBRANCH  13  20
ENDBRANCH   8  13
BRANCH   9  14
ATOM     14  C   UNL     1      -7.464  -9.882  17.778  0.00  0.00    +0.115 C 
BRANCH  14   6
ATOM      6  N   UNL     1      -8.788  -9.331  18.021  0.00  0.00    -0.309 NA
ATOM     31  H   UNL     1      -8.869  -9.072  19.003  0.00  0.00    +0.122 HD
BRANCH   6  24
ATOM     24  C   UNL     1      -9.826 -10.295  17.677  0.00  0.00    +0.120 C 
BRANCH  24  25
ATOM     25  C   UNL     1     -11.088 -10.064  18.464  0.00  0.00    +0.008 A 
ATOM     26  C   UNL     1     -11.072 -10.079  19.858  0.00  0.00    +0.121 A 
ATOM     27  C   UNL     1     -12.283  -9.833  17.784  0.00  0.00    +0.008 A 
ATOM     28  C   UNL     1     -12.251  -9.863  20.573  0.00  0.00    +0.046 A 
ATOM     29  C   UNL     1     -13.463  -9.617  18.498  0.00  0.00    +0.001 A 
ATOM     30  C   UNL     1     -13.446  -9.633  19.893  0.00  0.00    +0.004 A 
BRANCH  26   4
ATOM      4  O   UNL     1      -9.914 -10.305  20.540  0.00  0.00    -0.506 OA
ATOM     33  H   UNL     1      -9.342 -10.887  20.012  0.00  0.00    +0.292 HD
ENDBRANCH  26   4
ENDBRANCH  24  25
ENDBRANCH   6  24
ENDBRANCH  14   6
ENDBRANCH   9  14
TORSDOF 10
ENDMDL
MODEL 5
REMARK VINA RESULT:      -6.6     17.554     19.634
REMARK  Name = 75367034
REMARK  10 active torsions:
REMARK  status: ('A' for Active; 'I' for Inactive)
REMARK    1  A    between atoms: O_2  and  C_10
REMARK    2  A    between atoms: O_4  and  C_26
REMARK    3  A    between atoms: N_5  and  C_21
REMARK    4  A    between atoms: N_6  and  C_14
REMARK    5  A    between atoms: N_6  and  C_24
REMARK    6  A    between atoms: C_8  and  C_13
REMARK    7  A    between atoms: C_9  and  C_14
REMARK    8  A    between atoms: C_13  and  C_20
REMARK    9  A    between atoms: C_21  and  C_22
REMARK   10  A    between atoms: C_24  and  C_25
REMARK                            x       y       z     vdW  Elec       q    Type
REMARK                         _______ _______ _______ _____ _____    ______ ____
ROOT
ATOM      1  O   UNL     1      -4.647 -10.333  15.710  0.00  0.00    -0.369 OA
ATOM      8  C   UNL     1      -4.559 -11.668  16.216  0.00  0.00    +0.125 C 
ATOM      9  C   UNL     1      -4.868 -10.231  14.296  0.00  0.00    +0.161 C 
ATOM     10  C   UNL     1      -3.793 -10.990  13.508  0.00  0.00    +0.145 C 
ATOM     11  C   UNL     1      -3.419 -12.426  15.537  0.00  0.00    +0.034 C 
ATOM     12  C   UNL     1      -3.591 -12.413  14.022  0.00  0.00    +0.036 C 
ENDROOT
BRANCH  10   2
ATOM      2  O   UNL     1      -2.549 -10.298  13.641  0.00  0.00    -0.389 OA
ATOM     32  H   UNL     1      -1.842 -10.910  13.373  0.00  0.00    +0.210 HD
ENDBRANCH  10   2
BRANCH   8  13
ATOM     13  C   UNL     1      -4.328 -11.573  17.720  0.00  0.00    +0.090 C 
BRANCH  13  20
ATOM      3  O   UNL     1      -7.082 -10.699  19.873  0.00  0.00    -0.358 OA
ATOM      7  N   UNL     1      -5.801 -10.499  19.372  0.00  0.00    -0.083 NA
ATOM     20  C   UNL     1      -5.625 -11.476  18.477  0.00  0.00    +0.086 A 
ATOM     22  C   UNL     1      -7.636 -11.781  19.270  0.00  0.00    +0.151 A 
ATOM     23  C   UNL     1      -6.749 -12.313  18.372  0.00  0.00    +0.072 A 
BRANCH  22  21
ATOM     21  C   UNL     1      -8.999 -12.137  19.684  0.00  0.00    +0.161 C 
BRANCH  21   5
ATOM      5  N   UNL     1     -10.026 -11.291  19.076  0.00  0.00    -0.295 NA
ATOM     15  C   UNL     1     -10.748 -12.030  18.031  0.00  0.00    +0.085 C 
ATOM     16  C   UNL     1     -10.948 -10.784  20.102  0.00  0.00    +0.085 C 
ATOM     17  C   UNL     1     -11.794 -11.144  17.352  0.00  0.00    +0.015 C 
ATOM     18  C   UNL     1     -11.999  -9.858  19.491  0.00  0.00    +0.015 C 
ATOM     19  C   UNL     1     -12.763 -10.551  18.368  0.00  0.00    +0.002 C 
ENDBRANCH  21   5
ENDBRANCH  22  21
ENDBRANCH  13  20
ENDBRANCH   8  13
BRANCH   9  14
ATOM     14  C   UNL     1      -6.288 -10.654  13.929  0.00  0.00    +0.115 C 
BRANCH  14   6
ATOM      6  N   UNL     1      -7.253  -9.646  14.342  0.00  0.00    -0.309 NA
ATOM     31  H   UNL     1      -6.755  -8.835  14.708  0.00  0.00    +0.122 HD
BRANCH   6  24
ATOM     24  C   UNL     1      -8.155 -10.172  15.358  0.00  0.00    +0.120 C 
BRANCH  24  25
ATOM     25  C   UNL     1      -9.192  -9.159  15.764  0.00  0.00    +0.008 A 
ATOM     26  C   UNL     1      -9.153  -8.565  17.025  0.00  0.00    +0.121 A 
ATOM     27  C   UNL     1     -10.201  -8.816  14.864  0.00  0.00    +0.008 A 
ATOM     28  C   UNL     1     -10.121  -7.628  17.386  0.00  0.00    +0.046 A 
ATOM     29  C   UNL     1     -11.170  -7.879  15.225  0.00  0.00    +0.001 A 
ATOM     30  C   UNL     1     -11.130  -7.285  16.486  0.00  0.00    +0.004 A 
BRANCH  26   4
ATOM      4  O   UNL     1      -8.176  -8.888  17.918  0.00  0.00    -0.506 OA
ATOM     33  H   UNL     1      -8.531  -8.812  18.820  0.00  0.00    +0.292 HD
ENDBRANCH  26   4
ENDBRANCH  24  25
ENDBRANCH   6  24
ENDBRANCH  14   6
ENDBRANCH   9  14
TORSDOF 10
ENDMDL
MODEL 6
REMARK VINA RESULT:      -6.6     16.542     19.523
REMARK  Name = 75367034
REMARK  10 active torsions:
REMARK  status: ('A' for Active; 'I' for Inactive)
REMARK    1  A    between atoms: O_2  and  C_10
REMARK    2  A    between atoms: O_4  and  C_26
REMARK    3  A    between atoms: N_5  and  C_21
REMARK    4  A    between atoms: N_6  and  C_14
REMARK    5  A    between atoms: N_6  and  C_24
REMARK    6  A    between atoms: C_8  and  C_13
REMARK    7  A    between atoms: C_9  and  C_14
REMARK    8  A    between atoms: C_13  and  C_20
REMARK    9  A    between atoms: C_21  and  C_22
REMARK   10  A    between atoms: C_24  and  C_25
REMARK                            x       y       z     vdW  Elec       q    Type
REMARK                         _______ _______ _______ _____ _____    ______ ____
ROOT
ATOM      1  O   UNL     1      -6.735 -11.725  17.438  0.00  0.00    -0.369 OA
ATOM      8  C   UNL     1      -6.142 -10.548  16.883  0.00  0.00    +0.125 C 
ATOM      9  C   UNL     1      -6.079 -12.248  18.602  0.00  0.00    +0.161 C 
ATOM     10  C   UNL     1      -4.595 -12.521  18.330  0.00  0.00    +0.145 C 
ATOM     11  C   UNL     1      -4.689 -10.812  16.489  0.00  0.00    +0.034 C 
ATOM     12  C   UNL     1      -3.893 -11.331  17.682  0.00  0.00    +0.036 C 
ENDROOT
BRANCH  10   2
ATOM      2  O   UNL     1      -4.486 -13.631  17.436  0.00  0.00    -0.389 OA
ATOM     32  H   UNL     1      -5.388 -13.900  17.190  0.00  0.00    +0.210 HD
ENDBRANCH  10   2
BRANCH   8  13
ATOM     13  C   UNL     1      -6.970 -10.147  15.669  0.00  0.00    +0.090 C 
BRANCH  13  20
ATOM      3  O   UNL     1      -9.483  -8.159  17.318  0.00  0.00    -0.358 OA
ATOM      7  N   UNL     1      -8.271  -8.839  17.296  0.00  0.00    -0.083 NA
ATOM     20  C   UNL     1      -8.177  -9.338  16.061  0.00  0.00    +0.086 A 
ATOM     22  C   UNL     1     -10.079  -8.267  16.103  0.00  0.00    +0.151 A 
ATOM     23  C   UNL     1      -9.289  -9.009  15.266  0.00  0.00    +0.072 A 
BRANCH  22  21
ATOM     21  C   UNL     1     -11.378  -7.601  15.949  0.00  0.00    +0.161 C 
BRANCH  21   5
ATOM      5  N   UNL     1     -11.573  -7.019  14.620  0.00  0.00    -0.295 NA
ATOM     15  C   UNL     1     -12.510  -7.835  13.835  0.00  0.00    +0.085 C 
ATOM     16  C   UNL     1     -12.043  -5.630  14.732  0.00  0.00    +0.085 C 
ATOM     17  C   UNL     1     -12.687  -7.267  12.426  0.00  0.00    +0.015 C 
ATOM     18  C   UNL     1     -12.206  -4.990  13.353  0.00  0.00    +0.015 C 
ATOM     19  C   UNL     1     -13.138  -5.811  12.468  0.00  0.00    +0.002 C 
ENDBRANCH  21   5
ENDBRANCH  22  21
ENDBRANCH  13  20
ENDBRANCH   8  13
BRANCH   9  14
ATOM     14  C   UNL     1      -6.308 -11.347  19.813  0.00  0.00    +0.115 C 
BRANCH  14   6
ATOM      6  N   UNL     1      -7.656 -10.798  19.805  0.00  0.00    -0.309 NA
ATOM     31  H   UNL     1      -7.798 -10.243  20.649  0.00  0.00    +0.122 HD
BRANCH   6  24
ATOM     24  C   UNL     1      -8.652 -11.859  19.737  0.00  0.00    +0.120 C 
BRANCH  24  25
ATOM     25  C   UNL     1      -9.937 -11.382  19.113  0.00  0.00    +0.008 A 
ATOM     26  C   UNL     1     -10.730 -10.431  19.753  0.00  0.00    +0.121 A 
ATOM     27  C   UNL     1     -10.330 -11.902  17.880  0.00  0.00    +0.008 A 
ATOM     28  C   UNL     1     -11.918 -10.000  19.161  0.00  0.00    +0.046 A 
ATOM     29  C   UNL     1     -11.518 -11.472  17.288  0.00  0.00    +0.001 A 
ATOM     30  C   UNL     1     -12.312 -10.520  17.929  0.00  0.00    +0.004 A 
BRANCH  26   4
ATOM      4  O   UNL     1     -10.362  -9.913  20.958  0.00  0.00    -0.506 OA
ATOM     33  H   UNL     1     -11.133  -9.906  21.551  0.00  0.00    +0.292 HD
ENDBRANCH  26   4
ENDBRANCH  24  25
ENDBRANCH   6  24
ENDBRANCH  14   6
ENDBRANCH   9  14
TORSDOF 10
ENDMDL
MODEL 7
REMARK VINA RESULT:      -6.6     18.596     21.104
REMARK  Name = 75367034
REMARK  10 active torsions:
REMARK  status: ('A' for Active; 'I' for Inactive)
REMARK    1  A    between atoms: O_2  and  C_10
REMARK    2  A    between atoms: O_4  and  C_26
REMARK    3  A    between atoms: N_5  and  C_21
REMARK    4  A    between atoms: N_6  and  C_14
REMARK    5  A    between atoms: N_6  and  C_24
REMARK    6  A    between atoms: C_8  and  C_13
REMARK    7  A    between atoms: C_9  and  C_14
REMARK    8  A    between atoms: C_13  and  C_20
REMARK    9  A    between atoms: C_21  and  C_22
REMARK   10  A    between atoms: C_24  and  C_25
REMARK                            x       y       z     vdW  Elec       q    Type
REMARK                         _______ _______ _______ _____ _____    ______ ____
ROOT
ATOM      1  O   UNL     1      -3.987 -11.866  14.444  0.00  0.00    -0.369 OA
ATOM      8  C   UNL     1      -4.411 -10.660  13.803  0.00  0.00    +0.125 C 
ATOM      9  C   UNL     1      -2.582 -11.951  14.717  0.00  0.00    +0.161 C 
ATOM     10  C   UNL     1      -1.754 -11.750  13.441  0.00  0.00    +0.145 C 
ATOM     11  C   UNL     1      -3.692 -10.480  12.467  0.00  0.00    +0.034 C 
ATOM     12  C   UNL     1      -2.180 -10.510  12.660  0.00  0.00    +0.036 C 
ENDROOT
BRANCH  10   2
ATOM      2  O   UNL     1      -1.935 -12.884  12.590  0.00  0.00    -0.389 OA
ATOM     32  H   UNL     1      -2.612 -12.652  11.931  0.00  0.00    +0.210 HD
ENDBRANCH  10   2
BRANCH   8  13
ATOM     13  C   UNL     1      -5.918 -10.754  13.601  0.00  0.00    +0.090 C 
BRANCH  13  20
ATOM      3  O   UNL     1      -6.995  -9.186  16.662  0.00  0.00    -0.358 OA
ATOM      7  N   UNL     1      -6.014  -9.566  15.753  0.00  0.00    -0.083 NA
ATOM     20  C   UNL     1      -6.674 -10.198  14.778  0.00  0.00    +0.086 A 
ATOM     22  C   UNL     1      -8.207  -9.596  16.211  0.00  0.00    +0.151 A 
ATOM     23  C   UNL     1      -8.059 -10.247  15.015  0.00  0.00    +0.072 A 
BRANCH  22  21
ATOM     21  C   UNL     1      -9.364  -9.275  17.056  0.00  0.00    +0.161 C 
BRANCH  21   5
ATOM      5  N   UNL     1     -10.428  -8.576  16.334  0.00  0.00    -0.295 NA
ATOM     15  C   UNL     1     -11.690  -8.649  17.084  0.00  0.00    +0.085 C 
ATOM     16  C   UNL     1     -10.043  -7.182  16.075  0.00  0.00    +0.085 C 
ATOM     17  C   UNL     1     -12.825  -7.964  16.321  0.00  0.00    +0.015 C 
ATOM     18  C   UNL     1     -11.124  -6.449  15.279  0.00  0.00    +0.015 C 
ATOM     19  C   UNL     1     -12.475  -6.519  15.984  0.00  0.00    +0.002 C 
ENDBRANCH  21   5
ENDBRANCH  22  21
ENDBRANCH  13  20
ENDBRANCH   8  13
BRANCH   9  14
ATOM     14  C   UNL     1      -2.182 -11.002  15.844  0.00  0.00    +0.115 C 
BRANCH  14   6
ATOM      6  N   UNL     1      -3.338 -10.629  16.644  0.00  0.00    -0.309 NA
ATOM     31  H   UNL     1      -3.243  -9.658  16.939  0.00  0.00    +0.122 HD
BRANCH   6  24
ATOM     24  C   UNL     1      -3.465 -11.491  17.812  0.00  0.00    +0.120 C 
BRANCH  24  25
ATOM     25  C   UNL     1      -4.904 -11.699  18.201  0.00  0.00    +0.008 A 
ATOM     26  C   UNL     1      -5.704 -12.610  17.513  0.00  0.00    +0.121 A 
ATOM     27  C   UNL     1      -5.435 -10.969  19.265  0.00  0.00    +0.008 A 
ATOM     28  C   UNL     1      -7.036 -12.792  17.886  0.00  0.00    +0.046 A 
ATOM     29  C   UNL     1      -6.768 -11.150  19.638  0.00  0.00    +0.001 A 
ATOM     30  C   UNL     1      -7.568 -12.061  18.948  0.00  0.00    +0.004 A 
BRANCH  26   4
ATOM      4  O   UNL     1      -5.202 -13.331  16.471  0.00  0.00    -0.506 OA
ATOM     33  H   UNL     1      -4.325 -12.985  16.238  0.00  0.00    +0.292 HD
ENDBRANCH  26   4
ENDBRANCH  24  25
ENDBRANCH   6  24
ENDBRANCH  14   6
ENDBRANCH   9  14
TORSDOF 10
ENDMDL
MODEL 8
REMARK VINA RESULT:      -6.5     28.185     32.011
REMARK  Name = 75367034
REMARK  10 active torsions:
REMARK  status: ('A' for Active; 'I' for Inactive)
REMARK    1  A    between atoms: O_2  and  C_10
REMARK    2  A    between atoms: O_4  and  C_26
REMARK    3  A    between atoms: N_5  and  C_21
REMARK    4  A    between atoms: N_6  and  C_14
REMARK    5  A    between atoms: N_6  and  C_24
REMARK    6  A    between atoms: C_8  and  C_13
REMARK    7  A    between atoms: C_9  and  C_14
REMARK    8  A    between atoms: C_13  and  C_20
REMARK    9  A    between atoms: C_21  and  C_22
REMARK   10  A    between atoms: C_24  and  C_25
REMARK                            x       y       z     vdW  Elec       q    Type
REMARK                         _______ _______ _______ _____ _____    ______ ____
ROOT
ATOM      1  O   UNL     1      13.457   8.682  19.560  0.00  0.00    -0.369 OA
ATOM      8  C   UNL     1      13.807   7.354  19.958  0.00  0.00    +0.125 C 
ATOM      9  C   UNL     1      12.520   9.348  20.417  0.00  0.00    +0.161 C 
ATOM     10  C   UNL     1      11.236   8.526  20.585  0.00  0.00    +0.145 C 
ATOM     11  C   UNL     1      12.565   6.466  20.025  0.00  0.00    +0.034 C 
ATOM     12  C   UNL     1      11.520   7.073  20.955  0.00  0.00    +0.036 C 
ENDROOT
BRANCH  10   2
ATOM      2  O   UNL     1      10.521   8.528  19.347  0.00  0.00    -0.389 OA
ATOM     32  H   UNL     1      10.412   7.602  19.068  0.00  0.00    +0.210 HD
ENDBRANCH  10   2
BRANCH   8  13
ATOM     13  C   UNL     1      14.803   6.817  18.937  0.00  0.00    +0.090 C 
BRANCH  13  20
ATOM      3  O   UNL     1      18.255   6.143  19.723  0.00  0.00    -0.358 OA
ATOM      7  N   UNL     1      17.088   5.905  19.008  0.00  0.00    -0.083 NA
ATOM     20  C   UNL     1      16.203   6.784  19.489  0.00  0.00    +0.086 A 
ATOM     22  C   UNL     1      18.042   7.151  20.607  0.00  0.00    +0.151 A 
ATOM     23  C   UNL     1      16.751   7.594  20.499  0.00  0.00    +0.072 A 
BRANCH  22  21
ATOM     21  C   UNL     1      19.181   7.535  21.450  0.00  0.00    +0.161 C 
BRANCH  21   5
ATOM      5  N   UNL     1      20.330   6.640  21.310  0.00  0.00    -0.295 NA
ATOM     15  C   UNL     1      21.463   7.350  20.702  0.00  0.00    +0.085 C 
ATOM     16  C   UNL     1      20.698   6.070  22.614  0.00  0.00    +0.085 C 
ATOM     17  C   UNL     1      22.658   6.415  20.504  0.00  0.00    +0.015 C 
ATOM     18  C   UNL     1      21.867   5.093  22.479  0.00  0.00    +0.015 C 
ATOM     19  C   UNL     1      23.069   5.756  21.816  0.00  0.00    +0.002 C 
ENDBRANCH  21   5
ENDBRANCH  22  21
ENDBRANCH  13  20
ENDBRANCH   8  13
BRANCH   9  14
ATOM     14  C   UNL     1      13.164   9.727  21.748  0.00  0.00    +0.115 C 
BRANCH  14   6
ATOM      6  N   UNL     1      12.987  11.144  22.026  0.00  0.00    -0.309 NA
ATOM     31  H   UNL     1      13.882  11.621  21.921  0.00  0.00    +0.122 HD
BRANCH   6  24
ATOM     24  C   UNL     1      12.471  11.352  23.373  0.00  0.00    +0.120 C 
BRANCH  24  25
ATOM     25  C   UNL     1      11.468  12.473  23.421  0.00  0.00    +0.008 A 
ATOM     26  C   UNL     1      10.898  12.868  24.631  0.00  0.00    +0.121 A 
ATOM     27  C   UNL     1      11.110  13.120  22.238  0.00  0.00    +0.008 A 
ATOM     28  C   UNL     1       9.969  13.909  24.659  0.00  0.00    +0.046 A 
ATOM     29  C   UNL     1      10.181  14.161  22.266  0.00  0.00    +0.001 A 
ATOM     30  C   UNL     1       9.611  14.555  23.476  0.00  0.00    +0.004 A 
BRANCH  26   4
ATOM      4  O   UNL     1      11.234  12.247  25.796  0.00  0.00    -0.506 OA
ATOM     33  H   UNL     1      12.092  11.804  25.684  0.00  0.00    +0.292 HD
ENDBRANCH  26   4
ENDBRANCH  24  25
ENDBRANCH   6  24
ENDBRANCH  14   6
ENDBRANCH   9  14
TORSDOF 10
ENDMDL
MODEL 9
REMARK VINA RESULT:      -6.4     19.937     22.752
REMARK  Name = 75367034
REMARK  10 active torsions:
REMARK  status: ('A' for Active; 'I' for Inactive)
REMARK    1  A    between atoms: O_2  and  C_10
REMARK    2  A    between atoms: O_4  and  C_26
REMARK    3  A    between atoms: N_5  and  C_21
REMARK    4  A    between atoms: N_6  and  C_14
REMARK    5  A    between atoms: N_6  and  C_24
REMARK    6  A    between atoms: C_8  and  C_13
REMARK    7  A    between atoms: C_9  and  C_14
REMARK    8  A    between atoms: C_13  and  C_20
REMARK    9  A    between atoms: C_21  and  C_22
REMARK   10  A    between atoms: C_24  and  C_25
REMARK                            x       y       z     vdW  Elec       q    Type
REMARK                         _______ _______ _______ _____ _____    ______ ____
ROOT
ATOM      1  O   UNL     1      -6.730 -11.113  17.343  0.00  0.00    -0.369 OA
ATOM      8  C   UNL     1      -7.990 -11.783  17.247  0.00  0.00    +0.125 C 
ATOM      9  C   UNL     1      -5.856 -11.603  18.369  0.00  0.00    +0.161 C 
ATOM     10  C   UNL     1      -6.539 -11.574  19.743  0.00  0.00    +0.145 C 
ATOM     11  C   UNL     1      -8.757 -11.678  18.565  0.00  0.00    +0.034 C 
ATOM     12  C   UNL     1      -7.921 -12.220  19.719  0.00  0.00    +0.036 C 
ENDROOT
BRANCH  10   2
ATOM      2  O   UNL     1      -6.701 -10.213  20.149  0.00  0.00    -0.389 OA
ATOM     32  H   UNL     1      -6.398 -10.143  21.071  0.00  0.00    +0.210 HD
ENDBRANCH  10   2
BRANCH   8  13
ATOM     13  C   UNL     1      -8.770 -11.131  16.111  0.00  0.00    +0.090 C 
BRANCH  13  20
ATOM      3  O   UNL     1      -6.593  -9.912  13.512  0.00  0.00    -0.358 OA
ATOM      7  N   UNL     1      -7.284  -9.762  14.707  0.00  0.00    -0.083 NA
ATOM     20  C   UNL     1      -7.912 -10.927  14.892  0.00  0.00    +0.086 A 
ATOM     22  C   UNL     1      -6.821 -11.154  13.014  0.00  0.00    +0.151 A 
ATOM     23  C   UNL     1      -7.656 -11.842  13.855  0.00  0.00    +0.072 A 
BRANCH  22  21
ATOM     21  C   UNL     1      -6.162 -11.484  11.745  0.00  0.00    +0.161 C 
BRANCH  21   5
ATOM      5  N   UNL     1      -5.435 -10.356  11.163  0.00  0.00    -0.295 NA
ATOM     15  C   UNL     1      -4.208 -10.822  10.501  0.00  0.00    +0.085 C 
ATOM     16  C   UNL     1      -6.295  -9.618  10.227  0.00  0.00    +0.085 C 
ATOM     17  C   UNL     1      -3.411  -9.649   9.929  0.00  0.00    +0.015 C 
ATOM     18  C   UNL     1      -5.567  -8.406   9.645  0.00  0.00    +0.015 C 
ATOM     19  C   UNL     1      -4.259  -8.814   8.976  0.00  0.00    +0.002 C 
ENDBRANCH  21   5
ENDBRANCH  22  21
ENDBRANCH  13  20
ENDBRANCH   8  13
BRANCH   9  14
ATOM     14  C   UNL     1      -5.298 -12.977  18.008  0.00  0.00    +0.115 C 
BRANCH  14   6
ATOM      6  N   UNL     1      -4.145 -12.855  17.129  0.00  0.00    -0.309 NA
ATOM     31  H   UNL     1      -3.756 -11.916  17.215  0.00  0.00    +0.122 HD
BRANCH   6  24
ATOM     24  C   UNL     1      -4.515 -13.112  15.744  0.00  0.00    +0.120 C 
BRANCH  24  25
ATOM     25  C   UNL     1      -3.578 -12.435  14.779  0.00  0.00    +0.008 A 
ATOM     26  C   UNL     1      -3.540 -11.045  14.678  0.00  0.00    +0.121 A 
ATOM     27  C   UNL     1      -2.742 -13.215  13.980  0.00  0.00    +0.008 A 
ATOM     28  C   UNL     1      -2.666 -10.433  13.779  0.00  0.00    +0.046 A 
ATOM     29  C   UNL     1      -1.867 -12.603  13.080  0.00  0.00    +0.001 A 
ATOM     30  C   UNL     1      -1.830 -11.213  12.980  0.00  0.00    +0.004 A 
BRANCH  26   4
ATOM      4  O   UNL     1      -4.351 -10.267  15.450  0.00  0.00    -0.506 OA
ATOM     33  H   UNL     1      -4.285  -9.345  15.150  0.00  0.00    +0.292 HD
ENDBRANCH  26   4
ENDBRANCH  24  25
ENDBRANCH   6  24
ENDBRANCH  14   6
ENDBRANCH   9  14
TORSDOF 10
ENDMDL
MODEL 10
REMARK VINA RESULT:      -6.4     32.603     37.496
REMARK  Name = 75367034
REMARK  10 active torsions:
REMARK  status: ('A' for Active; 'I' for Inactive)
REMARK    1  A    between atoms: O_2  and  C_10
REMARK    2  A    between atoms: O_4  and  C_26
REMARK    3  A    between atoms: N_5  and  C_21
REMARK    4  A    between atoms: N_6  and  C_14
REMARK    5  A    between atoms: N_6  and  C_24
REMARK    6  A    between atoms: C_8  and  C_13
REMARK    7  A    between atoms: C_9  and  C_14
REMARK    8  A    between atoms: C_13  and  C_20
REMARK    9  A    between atoms: C_21  and  C_22
REMARK   10  A    between atoms: C_24  and  C_25
REMARK                            x       y       z     vdW  Elec       q    Type
REMARK                         _______ _______ _______ _____ _____    ______ ____
ROOT
ATOM      1  O   UNL     1      12.016   6.237   5.600  0.00  0.00    -0.369 OA
ATOM      8  C   UNL     1      11.775   7.429   6.353  0.00  0.00    +0.125 C 
ATOM      9  C   UNL     1      10.868   5.692   4.937  0.00  0.00    +0.161 C 
ATOM     10  C   UNL     1       9.725   5.431   5.926  0.00  0.00    +0.145 C 
ATOM     11  C   UNL     1      10.721   7.180   7.431  0.00  0.00    +0.034 C 
ATOM     12  C   UNL     1       9.436   6.638   6.814  0.00  0.00    +0.036 C 
ENDROOT
BRANCH  10   2
ATOM      2  O   UNL     1      10.090   4.342   6.777  0.00  0.00    -0.389 OA
ATOM     32  H   UNL     1       9.290   4.057   7.251  0.00  0.00    +0.210 HD
ENDBRANCH  10   2
BRANCH   8  13
ATOM     13  C   UNL     1      13.099   7.854   6.976  0.00  0.00    +0.090 C 
BRANCH  13  20
ATOM      3  O   UNL     1      14.861   9.003   4.050  0.00  0.00    -0.358 OA
ATOM      7  N   UNL     1      13.697   8.763   4.769  0.00  0.00    -0.083 NA
ATOM     20  C   UNL     1      14.108   8.241   5.928  0.00  0.00    +0.086 A 
ATOM     22  C   UNL     1      15.933   8.623   4.791  0.00  0.00    +0.151 A 
ATOM     23  C   UNL     1      15.508   8.129   5.996  0.00  0.00    +0.072 A 
BRANCH  22  21
ATOM     21  C   UNL     1      17.254   8.808   4.178  0.00  0.00    +0.161 C 
BRANCH  21   5
ATOM      5  N   UNL     1      18.336   8.185   4.941  0.00  0.00    -0.295 NA
ATOM     15  C   UNL     1      19.438   7.800   4.048  0.00  0.00    +0.085 C 
ATOM     16  C   UNL     1      18.803   9.088   6.002  0.00  0.00    +0.085 C 
ATOM     17  C   UNL     1      20.557   7.102   4.822  0.00  0.00    +0.015 C 
ATOM     18  C   UNL     1      19.901   8.433   6.840  0.00  0.00    +0.015 C 
ATOM     19  C   UNL     1      21.064   7.971   5.968  0.00  0.00    +0.002 C 
ENDBRANCH  21   5
ENDBRANCH  22  21
ENDBRANCH  13  20
ENDBRANCH   8  13
BRANCH   9  14
ATOM     14  C   UNL     1      10.448   6.564   3.756  0.00  0.00    +0.115 C 
BRANCH  14   6
ATOM      6  N   UNL     1      10.694   5.882   2.495  0.00  0.00    -0.309 NA
ATOM     31  H   UNL     1       9.802   5.679   2.044  0.00  0.00    +0.122 HD
BRANCH   6  24
ATOM     24  C   UNL     1      11.435   4.646   2.704  0.00  0.00    +0.120 C 
BRANCH  24  25
ATOM     25  C   UNL     1      12.633   4.549   1.797  0.00  0.00    +0.008 A 
ATOM     26  C   UNL     1      13.757   5.346   2.014  0.00  0.00    +0.121 A 
ATOM     27  C   UNL     1      12.610   3.650   0.731  0.00  0.00    +0.008 A 
ATOM     28  C   UNL     1      14.859   5.244   1.164  0.00  0.00    +0.046 A 
ATOM     29  C   UNL     1      13.713   3.549  -0.119  0.00  0.00    +0.001 A 
ATOM     30  C   UNL     1      14.836   4.346   0.098  0.00  0.00    +0.004 A 
BRANCH  26   4
ATOM      4  O   UNL     1      13.796   6.231   3.050  0.00  0.00    -0.506 OA
ATOM     33  H   UNL     1      12.993   6.126   3.588  0.00  0.00    +0.292 HD
ENDBRANCH  26   4
ENDBRANCH  24  25
ENDBRANCH   6  24
ENDBRANCH  14   6
ENDBRANCH   9  14
TORSDOF 10
ENDMDL
