MODEL 1
REMARK VINA RESULT:      -7.9      0.000      0.000
REMARK  Name = 11884096
REMARK  9 active torsions:
REMARK  status: ('A' for Active; 'I' for Inactive)
REMARK    1  A    between atoms: O_6  and  C_15
REMARK    2  A    between atoms: O_6  and  C_19
REMARK    3  A    between atoms: N_9  and  C_14
REMARK    4  A    between atoms: N_10  and  C_20
REMARK    5  A    between atoms: N_11  and  C_21
REMARK    6  A    between atoms: C_26  and  C_27
REMARK    7  A    between atoms: C_27  and  C_32
REMARK    8  A    between atoms: C_27  and  C_33
REMARK    9  A    between atoms: C_30  and  C_35
REMARK                            x       y       z     vdW  Elec       q    Type
REMARK                         _______ _______ _______ _____ _____    ______ ____
ROOT
ATOM      4  O   UNL     1      -9.715  -9.228  15.326  0.00  0.00    -0.368 OA
ATOM      5  O   UNL     1     -10.649  -8.870  18.225  0.00  0.00    -0.368 OA
ATOM     12  C   UNL     1     -10.338  -7.909  17.195  0.00  0.00    +0.173 C 
ATOM     13  C   UNL     1      -9.166  -8.464  16.413  0.00  0.00    +0.192 C 
ATOM     14  C   UNL     1     -11.458  -7.856  16.181  0.00  0.00    +0.131 C 
ATOM     15  C   UNL     1      -8.485  -9.349  17.430  0.00  0.00    +0.235 C 
ATOM     16  C   UNL     1     -11.138  -9.042  15.287  0.00  0.00    +0.185 C 
ATOM     17  C   UNL     1      -9.659  -9.909  18.202  0.00  0.00    +0.207 C 
ENDROOT
BRANCH  14   9
ATOM      7  O   UNL     1     -13.238  -7.088  14.072  0.00  0.00    -0.252 OA
ATOM      9  N   UNL     1     -11.435  -6.619  15.440  0.00  0.00    -0.292 N 
ATOM     10  N   UNL     1     -12.080  -5.056  13.885  0.00  0.00    -0.269 N 
ATOM     18  C   UNL     1     -12.345  -6.319  14.419  0.00  0.00    +0.304 C 
ATOM     36  H   UNL     1     -10.767  -5.903  15.714  0.00  0.00    +0.151 HD
ATOM     37  H   UNL     1     -11.297  -4.545  14.287  0.00  0.00    +0.156 HD
BRANCH  10  20
ATOM     20  C   UNL     1     -12.768  -4.392  12.843  0.00  0.00    +0.035 A 
ATOM     24  C   UNL     1     -12.181  -4.275  11.582  0.00  0.00    +0.035 A 
ATOM     25  C   UNL     1     -14.032  -3.851  13.076  0.00  0.00    +0.023 A 
ATOM     30  C   UNL     1     -12.859  -3.618  10.556  0.00  0.00    +0.057 A 
ATOM     31  C   UNL     1     -14.710  -3.194  12.048  0.00  0.00    +0.002 A 
ATOM     34  C   UNL     1     -14.124  -3.078  10.789  0.00  0.00    +0.012 A 
BRANCH  30  35
ATOM      1  F   UNL     1     -10.955  -3.007   9.243  0.00  0.00    -0.166 F 
ATOM      2  F   UNL     1     -12.907  -2.654   8.366  0.00  0.00    -0.166 F 
ATOM      3  F   UNL     1     -12.153  -4.685   8.551  0.00  0.00    -0.166 F 
ATOM     35  C   UNL     1     -12.232  -3.491   9.209  0.00  0.00    +0.417 C 
ENDBRANCH  30  35
ENDBRANCH  10  20
ENDBRANCH  14   9
BRANCH  15   6
ATOM      6  O   UNL     1      -7.694 -10.364  16.854  0.00  0.00    -0.442 OA
BRANCH   6  19
ATOM      8  O   UNL     1      -5.713  -9.273  16.520  0.00  0.00    -0.226 OA
ATOM     11  N   UNL     1      -6.775 -10.449  14.798  0.00  0.00    -0.251 N 
ATOM     19  C   UNL     1      -6.626  -9.960  16.081  0.00  0.00    +0.405 C 
ATOM     38  H   UNL     1      -7.608 -11.005  14.621  0.00  0.00    +0.158 HD
BRANCH  11  21
ATOM     21  C   UNL     1      -5.912 -10.270  13.692  0.00  0.00    +0.036 A 
ATOM     22  C   UNL     1      -6.314  -9.483  12.612  0.00  0.00    +0.024 A 
ATOM     23  C   UNL     1      -4.658 -10.879  13.681  0.00  0.00    +0.024 A 
ATOM     26  C   UNL     1      -4.209  -9.916  11.511  0.00  0.00    -0.045 A 
ATOM     28  C   UNL     1      -5.463  -9.306  11.523  0.00  0.00    +0.006 A 
ATOM     29  C   UNL     1      -3.805 -10.702  12.591  0.00  0.00    +0.006 A 
BRANCH  26  27
ATOM     27  C   UNL     1      -3.297  -9.728  10.345  0.00  0.00    +0.013 C 
ATOM     32  C   UNL     1      -3.927  -8.858   9.241  0.00  0.00    +0.012 C 
ATOM     33  C   UNL     1      -1.931  -9.145  10.755  0.00  0.00    +0.012 C 
ENDBRANCH  26  27
ENDBRANCH  11  21
ENDBRANCH   6  19
ENDBRANCH  15   6
TORSDOF 7
ENDMDL
MODEL 2
REMARK VINA RESULT:      -7.8      4.666     10.612
REMARK  Name = 11884096
REMARK  9 active torsions:
REMARK  status: ('A' for Active; 'I' for Inactive)
REMARK    1  A    between atoms: O_6  and  C_15
REMARK    2  A    between atoms: O_6  and  C_19
REMARK    3  A    between atoms: N_9  and  C_14
REMARK    4  A    between atoms: N_10  and  C_20
REMARK    5  A    between atoms: N_11  and  C_21
REMARK    6  A    between atoms: C_26  and  C_27
REMARK    7  A    between atoms: C_27  and  C_32
REMARK    8  A    between atoms: C_27  and  C_33
REMARK    9  A    between atoms: C_30  and  C_35
REMARK                            x       y       z     vdW  Elec       q    Type
REMARK                         _______ _______ _______ _____ _____    ______ ____
ROOT
ATOM      4  O   UNL     1     -11.303  -5.795  15.831  0.00  0.00    -0.368 OA
ATOM      5  O   UNL     1     -12.785  -8.230  14.700  0.00  0.00    -0.368 OA
ATOM     12  C   UNL     1     -11.390  -7.862  14.673  0.00  0.00    +0.173 C 
ATOM     13  C   UNL     1     -11.334  -6.357  14.508  0.00  0.00    +0.192 C 
ATOM     14  C   UNL     1     -10.765  -8.101  16.028  0.00  0.00    +0.131 C 
ATOM     15  C   UNL     1     -12.636  -6.057  13.804  0.00  0.00    +0.235 C 
ATOM     16  C   UNL     1     -11.165  -6.851  16.793  0.00  0.00    +0.185 C 
ATOM     17  C   UNL     1     -13.577  -7.063  14.430  0.00  0.00    +0.207 C 
ENDROOT
BRANCH  14   9
ATOM      7  O   UNL     1      -9.103  -9.997  17.389  0.00  0.00    -0.252 OA
ATOM      9  N   UNL     1      -9.331  -8.219  15.928  0.00  0.00    -0.292 N 
ATOM     10  N   UNL     1      -7.229  -9.053  16.337  0.00  0.00    -0.269 N 
ATOM     18  C   UNL     1      -8.590  -9.178  16.631  0.00  0.00    +0.304 C 
ATOM     36  H   UNL     1      -8.841  -7.621  15.270  0.00  0.00    +0.151 HD
ATOM     37  H   UNL     1      -6.968  -8.316  15.686  0.00  0.00    +0.156 HD
BRANCH  10  20
ATOM     20  C   UNL     1      -6.158  -9.827  16.840  0.00  0.00    +0.035 A 
ATOM     24  C   UNL     1      -5.023 -10.041  16.057  0.00  0.00    +0.035 A 
ATOM     25  C   UNL     1      -6.237 -10.379  18.119  0.00  0.00    +0.023 A 
ATOM     30  C   UNL     1      -3.969 -10.807  16.554  0.00  0.00    +0.057 A 
ATOM     31  C   UNL     1      -5.182 -11.145  18.615  0.00  0.00    +0.002 A 
ATOM     34  C   UNL     1      -4.048 -11.359  17.832  0.00  0.00    +0.012 A 
BRANCH  30  35
ATOM      1  F   UNL     1      -1.583 -10.834  16.384  0.00  0.00    -0.166 F 
ATOM      2  F   UNL     1      -2.686 -10.228  14.618  0.00  0.00    -0.166 F 
ATOM      3  F   UNL     1      -2.686 -12.313  15.234  0.00  0.00    -0.166 F 
ATOM     35  C   UNL     1      -2.756 -11.038  15.716  0.00  0.00    +0.417 C 
ENDBRANCH  30  35
ENDBRANCH  10  20
ENDBRANCH  14   9
BRANCH  15   6
ATOM      6  O   UNL     1     -13.081  -4.731  13.982  0.00  0.00    -0.442 OA
BRANCH   6  19
ATOM      8  O   UNL     1     -12.005  -3.147  12.733  0.00  0.00    -0.226 OA
ATOM     11  N   UNL     1     -14.077  -4.023  12.088  0.00  0.00    -0.251 N 
ATOM     19  C   UNL     1     -12.968  -3.885  12.899  0.00  0.00    +0.405 C 
ATOM     38  H   UNL     1     -14.778  -4.693  12.393  0.00  0.00    +0.158 HD
BRANCH  11  21
ATOM     21  C   UNL     1     -14.363  -3.345  10.880  0.00  0.00    +0.036 A 
ATOM     22  C   UNL     1     -13.621  -3.624   9.731  0.00  0.00    +0.024 A 
ATOM     23  C   UNL     1     -15.385  -2.399  10.837  0.00  0.00    +0.024 A 
ATOM     26  C   UNL     1     -14.926  -2.009   8.497  0.00  0.00    -0.045 A 
ATOM     28  C   UNL     1     -13.904  -2.956   8.540  0.00  0.00    +0.006 A 
ATOM     29  C   UNL     1     -15.668  -1.730   9.645  0.00  0.00    +0.006 A 
BRANCH  26  27
ATOM     27  C   UNL     1     -15.228  -1.293   7.223  0.00  0.00    +0.013 C 
ATOM     32  C   UNL     1     -16.434  -0.343   7.354  0.00  0.00    +0.012 C 
ATOM     33  C   UNL     1     -14.011  -0.520   6.680  0.00  0.00    +0.012 C 
ENDBRANCH  26  27
ENDBRANCH  11  21
ENDBRANCH   6  19
ENDBRANCH  15   6
TORSDOF 7
ENDMDL
MODEL 3
REMARK VINA RESULT:      -7.4      5.240     10.939
REMARK  Name = 11884096
REMARK  9 active torsions:
REMARK  status: ('A' for Active; 'I' for Inactive)
REMARK    1  A    between atoms: O_6  and  C_15
REMARK    2  A    between atoms: O_6  and  C_19
REMARK    3  A    between atoms: N_9  and  C_14
REMARK    4  A    between atoms: N_10  and  C_20
REMARK    5  A    between atoms: N_11  and  C_21
REMARK    6  A    between atoms: C_26  and  C_27
REMARK    7  A    between atoms: C_27  and  C_32
REMARK    8  A    between atoms: C_27  and  C_33
REMARK    9  A    between atoms: C_30  and  C_35
REMARK                            x       y       z     vdW  Elec       q    Type
REMARK                         _______ _______ _______ _____ _____    ______ ____
ROOT
ATOM      4  O   UNL     1     -11.309  -6.185  16.164  0.00  0.00    -0.368 OA
ATOM      5  O   UNL     1     -12.497  -8.754  14.984  0.00  0.00    -0.368 OA
ATOM     12  C   UNL     1     -11.155  -8.224  14.963  0.00  0.00    +0.173 C 
ATOM     13  C   UNL     1     -11.278  -6.720  14.830  0.00  0.00    +0.192 C 
ATOM     14  C   UNL     1     -10.501  -8.415  16.313  0.00  0.00    +0.131 C 
ATOM     15  C   UNL     1     -12.609  -6.562  14.133  0.00  0.00    +0.235 C 
ATOM     16  C   UNL     1     -11.044  -7.237  17.103  0.00  0.00    +0.185 C 
ATOM     17  C   UNL     1     -13.422  -7.684  14.740  0.00  0.00    +0.207 C 
ENDROOT
BRANCH  14   9
ATOM      7  O   UNL     1      -8.674 -10.592  16.673  0.00  0.00    -0.252 OA
ATOM      9  N   UNL     1      -9.064  -8.361  16.209  0.00  0.00    -0.292 N 
ATOM     10  N   UNL     1      -6.896  -9.123  16.238  0.00  0.00    -0.269 N 
ATOM     18  C   UNL     1      -8.239  -9.476  16.401  0.00  0.00    +0.304 C 
ATOM     36  H   UNL     1      -8.632  -7.488  15.921  0.00  0.00    +0.151 HD
ATOM     37  H   UNL     1      -6.704  -8.149  16.014  0.00  0.00    +0.156 HD
BRANCH  10  20
ATOM     20  C   UNL     1      -5.760  -9.957  16.349  0.00  0.00    +0.035 A 
ATOM     24  C   UNL     1      -5.451 -10.558  17.570  0.00  0.00    +0.035 A 
ATOM     25  C   UNL     1      -4.945 -10.177  15.238  0.00  0.00    +0.023 A 
ATOM     30  C   UNL     1      -4.328 -11.378  17.679  0.00  0.00    +0.057 A 
ATOM     31  C   UNL     1      -3.822 -10.998  15.348  0.00  0.00    +0.002 A 
ATOM     34  C   UNL     1      -3.514 -11.598  16.568  0.00  0.00    +0.012 A 
BRANCH  30  35
ATOM      1  F   UNL     1      -4.147 -13.376  18.982  0.00  0.00    -0.166 F 
ATOM      2  F   UNL     1      -4.766 -11.577  20.023  0.00  0.00    -0.166 F 
ATOM      3  F   UNL     1      -2.705 -11.794  19.366  0.00  0.00    -0.166 F 
ATOM     35  C   UNL     1      -3.997 -12.019  18.984  0.00  0.00    +0.417 C 
ENDBRANCH  30  35
ENDBRANCH  10  20
ENDBRANCH  14   9
BRANCH  15   6
ATOM      6  O   UNL     1     -13.206  -5.301  14.339  0.00  0.00    -0.442 OA
BRANCH   6  19
ATOM      8  O   UNL     1     -15.294  -5.215  13.410  0.00  0.00    -0.226 OA
ATOM     11  N   UNL     1     -13.484  -4.061  12.477  0.00  0.00    -0.251 N 
ATOM     19  C   UNL     1     -14.116  -4.881  13.392  0.00  0.00    +0.405 C 
ATOM     38  H   UNL     1     -12.491  -3.897  12.629  0.00  0.00    +0.158 HD
BRANCH  11  21
ATOM     21  C   UNL     1     -14.045  -3.418  11.350  0.00  0.00    +0.036 A 
ATOM     22  C   UNL     1     -15.151  -2.582  11.502  0.00  0.00    +0.024 A 
ATOM     23  C   UNL     1     -13.493  -3.620  10.086  0.00  0.00    +0.024 A 
ATOM     26  C   UNL     1     -15.153  -2.149   9.126  0.00  0.00    -0.045 A 
ATOM     28  C   UNL     1     -15.704  -1.947  10.391  0.00  0.00    +0.006 A 
ATOM     29  C   UNL     1     -14.046  -2.985   8.973  0.00  0.00    +0.006 A 
BRANCH  26  27
ATOM     27  C   UNL     1     -15.744  -1.472   7.936  0.00  0.00    +0.013 C 
ATOM     32  C   UNL     1     -16.830  -0.449   8.321  0.00  0.00    +0.012 C 
ATOM     33  C   UNL     1     -14.677  -0.795   7.054  0.00  0.00    +0.012 C 
ENDBRANCH  26  27
ENDBRANCH  11  21
ENDBRANCH   6  19
ENDBRANCH  15   6
TORSDOF 7
ENDMDL
MODEL 4
REMARK VINA RESULT:      -7.4      5.793     10.423
REMARK  Name = 11884096
REMARK  9 active torsions:
REMARK  status: ('A' for Active; 'I' for Inactive)
REMARK    1  A    between atoms: O_6  and  C_15
REMARK    2  A    between atoms: O_6  and  C_19
REMARK    3  A    between atoms: N_9  and  C_14
REMARK    4  A    between atoms: N_10  and  C_20
REMARK    5  A    between atoms: N_11  and  C_21
REMARK    6  A    between atoms: C_26  and  C_27
REMARK    7  A    between atoms: C_27  and  C_32
REMARK    8  A    between atoms: C_27  and  C_33
REMARK    9  A    between atoms: C_30  and  C_35
REMARK                            x       y       z     vdW  Elec       q    Type
REMARK                         _______ _______ _______ _____ _____    ______ ____
ROOT
ATOM      4  O   UNL     1      -7.186 -10.209   9.945  0.00  0.00    -0.368 OA
ATOM      5  O   UNL     1      -4.313 -10.448   8.898  0.00  0.00    -0.368 OA
ATOM     12  C   UNL     1      -4.865  -9.728  10.020  0.00  0.00    +0.173 C 
ATOM     13  C   UNL     1      -6.219  -9.207   9.586  0.00  0.00    +0.192 C 
ATOM     14  C   UNL     1      -5.189 -10.688  11.143  0.00  0.00    +0.131 C 
ATOM     15  C   UNL     1      -6.061  -9.094   8.089  0.00  0.00    +0.235 C 
ATOM     16  C   UNL     1      -6.543 -11.232  10.720  0.00  0.00    +0.185 C 
ATOM     17  C   UNL     1      -5.185 -10.286   7.770  0.00  0.00    +0.207 C 
ENDROOT
BRANCH  14   9
ATOM      7  O   UNL     1      -5.809 -11.854  13.685  0.00  0.00    -0.252 OA
ATOM      9  N   UNL     1      -5.271 -10.002  12.409  0.00  0.00    -0.292 N 
ATOM     10  N   UNL     1      -5.588  -9.734  14.669  0.00  0.00    -0.269 N 
ATOM     18  C   UNL     1      -5.582 -10.649  13.612  0.00  0.00    +0.304 C 
ATOM     36  H   UNL     1      -5.030  -9.016  12.442  0.00  0.00    +0.151 HD
ATOM     37  H   UNL     1      -5.380  -8.766  14.436  0.00  0.00    +0.156 HD
BRANCH  10  20
ATOM     20  C   UNL     1      -5.855  -9.987  16.034  0.00  0.00    +0.035 A 
ATOM     24  C   UNL     1      -4.974 -10.766  16.786  0.00  0.00    +0.035 A 
ATOM     25  C   UNL     1      -7.001  -9.461  16.630  0.00  0.00    +0.023 A 
ATOM     30  C   UNL     1      -5.240 -11.017  18.131  0.00  0.00    +0.057 A 
ATOM     31  C   UNL     1      -7.267  -9.712  17.976  0.00  0.00    +0.002 A 
ATOM     34  C   UNL     1      -6.386 -10.490  18.727  0.00  0.00    +0.012 A 
BRANCH  30  35
ATOM      1  F   UNL     1      -2.985 -11.542  18.731  0.00  0.00    -0.166 F 
ATOM      2  F   UNL     1      -4.395 -13.188  18.675  0.00  0.00    -0.166 F 
ATOM      3  F   UNL     1      -4.502 -11.724  20.278  0.00  0.00    -0.166 F 
ATOM     35  C   UNL     1      -4.299 -11.851  18.934  0.00  0.00    +0.417 C 
ENDBRANCH  30  35
ENDBRANCH  10  20
ENDBRANCH  14   9
BRANCH  15   6
ATOM      6  O   UNL     1      -7.284  -9.131   7.388  0.00  0.00    -0.442 OA
BRANCH   6  19
ATOM      8  O   UNL     1      -7.955  -7.212   6.340  0.00  0.00    -0.226 OA
ATOM     11  N   UNL     1      -8.720  -7.778   8.479  0.00  0.00    -0.251 N 
ATOM     19  C   UNL     1      -7.996  -7.952   7.315  0.00  0.00    +0.405 C 
ATOM     38  H   UNL     1      -8.625  -8.506   9.182  0.00  0.00    +0.158 HD
BRANCH  11  21
ATOM     21  C   UNL     1      -9.579  -6.707   8.818  0.00  0.00    +0.036 A 
ATOM     22  C   UNL     1      -9.209  -5.395   8.521  0.00  0.00    +0.024 A 
ATOM     23  C   UNL     1     -10.796  -6.963   9.448  0.00  0.00    +0.024 A 
ATOM     26  C   UNL     1     -11.274  -4.594   9.486  0.00  0.00    -0.045 A 
ATOM     28  C   UNL     1     -10.057  -4.339   8.854  0.00  0.00    +0.006 A 
ATOM     29  C   UNL     1     -11.645  -5.906   9.782  0.00  0.00    +0.006 A 
BRANCH  26  27
ATOM     27  C   UNL     1     -12.181  -3.465   9.844  0.00  0.00    +0.013 C 
ATOM     32  C   UNL     1     -13.391  -3.360   8.896  0.00  0.00    +0.012 C 
ATOM     33  C   UNL     1     -12.665  -3.541  11.304  0.00  0.00    +0.012 C 
ENDBRANCH  26  27
ENDBRANCH  11  21
ENDBRANCH   6  19
ENDBRANCH  15   6
TORSDOF 7
ENDMDL
MODEL 5
REMARK VINA RESULT:      -7.3     25.358     28.374
REMARK  Name = 11884096
REMARK  9 active torsions:
REMARK  status: ('A' for Active; 'I' for Inactive)
REMARK    1  A    between atoms: O_6  and  C_15
REMARK    2  A    between atoms: O_6  and  C_19
REMARK    3  A    between atoms: N_9  and  C_14
REMARK    4  A    between atoms: N_10  and  C_20
REMARK    5  A    between atoms: N_11  and  C_21
REMARK    6  A    between atoms: C_26  and  C_27
REMARK    7  A    between atoms: C_27  and  C_32
REMARK    8  A    between atoms: C_27  and  C_33
REMARK    9  A    between atoms: C_30  and  C_35
REMARK                            x       y       z     vdW  Elec       q    Type
REMARK                         _______ _______ _______ _____ _____    ______ ____
ROOT
ATOM      4  O   UNL     1      -8.390  11.274  33.849  0.00  0.00    -0.368 OA
ATOM      5  O   UNL     1     -10.079   9.953  36.041  0.00  0.00    -0.368 OA
ATOM     12  C   UNL     1      -8.851   9.544  35.403  0.00  0.00    +0.173 C 
ATOM     13  C   UNL     1      -8.952   9.955  33.949  0.00  0.00    +0.192 C 
ATOM     14  C   UNL     1      -7.695  10.363  35.931  0.00  0.00    +0.131 C 
ATOM     15  C   UNL     1     -10.444   9.963  33.715  0.00  0.00    +0.235 C 
ATOM     16  C   UNL     1      -7.799  11.635  35.105  0.00  0.00    +0.185 C 
ATOM     17  C   UNL     1     -10.972  10.465  35.041  0.00  0.00    +0.207 C 
ENDROOT
BRANCH  14   9
ATOM      7  O   UNL     1      -5.351  10.541  37.568  0.00  0.00    -0.252 OA
ATOM      9  N   UNL     1      -6.437   9.695  35.710  0.00  0.00    -0.292 N 
ATOM     10  N   UNL     1      -4.259   9.073  36.098  0.00  0.00    -0.269 N 
ATOM     18  C   UNL     1      -5.334   9.836  36.562  0.00  0.00    +0.304 C 
ATOM     36  H   UNL     1      -6.365   9.040  34.937  0.00  0.00    +0.151 HD
ATOM     37  H   UNL     1      -4.411   8.543  35.243  0.00  0.00    +0.156 HD
BRANCH  10  20
ATOM     20  C   UNL     1      -2.973   8.946  36.671  0.00  0.00    +0.035 A 
ATOM     24  C   UNL     1      -2.689   7.877  37.522  0.00  0.00    +0.035 A 
ATOM     25  C   UNL     1      -1.987   9.892  36.389  0.00  0.00    +0.023 A 
ATOM     30  C   UNL     1      -1.421   7.755  38.088  0.00  0.00    +0.057 A 
ATOM     31  C   UNL     1      -0.718   9.769  36.956  0.00  0.00    +0.002 A 
ATOM     34  C   UNL     1      -0.436   8.700  37.806  0.00  0.00    +0.012 A 
BRANCH  30  35
ATOM      1  F   UNL     1      -0.747   6.999  40.256  0.00  0.00    -0.166 F 
ATOM      2  F   UNL     1      -0.102   5.814  38.558  0.00  0.00    -0.166 F 
ATOM      3  F   UNL     1      -2.187   5.781  39.172  0.00  0.00    -0.166 F 
ATOM     35  C   UNL     1      -1.118   6.613  39.000  0.00  0.00    +0.417 C 
ENDBRANCH  30  35
ENDBRANCH  10  20
ENDBRANCH  14   9
BRANCH  15   6
ATOM      6  O   UNL     1     -10.842  10.784  32.640  0.00  0.00    -0.442 OA
BRANCH   6  19
ATOM      8  O   UNL     1     -11.464   8.939  31.440  0.00  0.00    -0.226 OA
ATOM     11  N   UNL     1     -11.409  11.072  30.477  0.00  0.00    -0.251 N 
ATOM     19  C   UNL     1     -11.264  10.146  31.492  0.00  0.00    +0.405 C 
ATOM     38  H   UNL     1     -11.194  12.038  30.714  0.00  0.00    +0.158 HD
BRANCH  11  21
ATOM     21  C   UNL     1     -11.820  10.845  29.144  0.00  0.00    +0.036 A 
ATOM     22  C   UNL     1     -13.178  10.741  28.840  0.00  0.00    +0.024 A 
ATOM     23  C   UNL     1     -10.868  10.727  28.132  0.00  0.00    +0.024 A 
ATOM     26  C   UNL     1     -12.632  10.398  26.512  0.00  0.00    -0.045 A 
ATOM     28  C   UNL     1     -13.583  10.519  27.525  0.00  0.00    +0.006 A 
ATOM     29  C   UNL     1     -11.274  10.503  26.815  0.00  0.00    +0.006 A 
BRANCH  26  27
ATOM     27  C   UNL     1     -13.064  10.159  25.105  0.00  0.00    +0.013 C 
ATOM     32  C   UNL     1     -14.583  10.333  24.919  0.00  0.00    +0.012 C 
ATOM     33  C   UNL     1     -12.309  11.048  24.098  0.00  0.00    +0.012 C 
ENDBRANCH  26  27
ENDBRANCH  11  21
ENDBRANCH   6  19
ENDBRANCH  15   6
TORSDOF 7
ENDMDL
MODEL 6
REMARK VINA RESULT:      -7.3     21.103     23.727
REMARK  Name = 11884096
REMARK  9 active torsions:
REMARK  status: ('A' for Active; 'I' for Inactive)
REMARK    1  A    between atoms: O_6  and  C_15
REMARK    2  A    between atoms: O_6  and  C_19
REMARK    3  A    between atoms: N_9  and  C_14
REMARK    4  A    between atoms: N_10  and  C_20
REMARK    5  A    between atoms: N_11  and  C_21
REMARK    6  A    between atoms: C_26  and  C_27
REMARK    7  A    between atoms: C_27  and  C_32
REMARK    8  A    between atoms: C_27  and  C_33
REMARK    9  A    between atoms: C_30  and  C_35
REMARK                            x       y       z     vdW  Elec       q    Type
REMARK                         _______ _______ _______ _____ _____    ______ ____
ROOT
ATOM      4  O   UNL     1       4.729  11.315   3.590  0.00  0.00    -0.368 OA
ATOM      5  O   UNL     1       5.557  11.348   0.638  0.00  0.00    -0.368 OA
ATOM     12  C   UNL     1       4.640  10.503   1.364  0.00  0.00    +0.173 C 
ATOM     13  C   UNL     1       5.241  10.278   2.736  0.00  0.00    +0.192 C 
ATOM     14  C   UNL     1       3.359  11.253   1.649  0.00  0.00    +0.131 C 
ATOM     15  C   UNL     1       6.720  10.447   2.477  0.00  0.00    +0.235 C 
ATOM     16  C   UNL     1       3.726  12.059   2.884  0.00  0.00    +0.185 C 
ATOM     17  C   UNL     1       6.737  11.541   1.432  0.00  0.00    +0.207 C 
ENDROOT
BRANCH  14   9
ATOM      7  O   UNL     1       0.689  11.959   2.410  0.00  0.00    -0.252 OA
ATOM      9  N   UNL     1       2.271  10.346   1.918  0.00  0.00    -0.292 N 
ATOM     10  N   UNL     1       0.146   9.677   2.481  0.00  0.00    -0.269 N 
ATOM     18  C   UNL     1       0.989  10.774   2.286  0.00  0.00    +0.304 C 
ATOM     36  H   UNL     1       2.421   9.352   1.771  0.00  0.00    +0.151 HD
ATOM     37  H   UNL     1       0.555   8.756   2.338  0.00  0.00    +0.156 HD
BRANCH  10  20
ATOM     20  C   UNL     1      -1.217   9.685   2.858  0.00  0.00    +0.035 A 
ATOM     24  C   UNL     1      -1.593   9.245   4.128  0.00  0.00    +0.035 A 
ATOM     25  C   UNL     1      -2.186  10.132   1.960  0.00  0.00    +0.023 A 
ATOM     30  C   UNL     1      -2.937   9.252   4.498  0.00  0.00    +0.057 A 
ATOM     31  C   UNL     1      -3.531  10.138   2.331  0.00  0.00    +0.002 A 
ATOM     34  C   UNL     1      -3.906   9.698   3.600  0.00  0.00    +0.012 A 
BRANCH  30  35
ATOM      1  F   UNL     1      -3.430   7.420   5.955  0.00  0.00    -0.166 F 
ATOM      2  F   UNL     1      -4.557   9.248   6.259  0.00  0.00    -0.166 F 
ATOM      3  F   UNL     1      -2.460   9.160   6.826  0.00  0.00    -0.166 F 
ATOM     35  C   UNL     1      -3.340   8.778   5.854  0.00  0.00    +0.417 C 
ENDBRANCH  30  35
ENDBRANCH  10  20
ENDBRANCH  14   9
BRANCH  15   6
ATOM      6  O   UNL     1       7.457  10.798   3.626  0.00  0.00    -0.442 OA
BRANCH   6  19
ATOM      8  O   UNL     1       9.430   9.642   3.663  0.00  0.00    -0.226 OA
ATOM     11  N   UNL     1       7.718   9.203   5.198  0.00  0.00    -0.251 N 
ATOM     19  C   UNL     1       8.316   9.844   4.130  0.00  0.00    +0.405 C 
ATOM     38  H   UNL     1       6.780   9.512   5.441  0.00  0.00    +0.158 HD
BRANCH  11  21
ATOM     21  C   UNL     1       8.248   8.165   5.998  0.00  0.00    +0.036 A 
ATOM     22  C   UNL     1       8.311   6.863   5.499  0.00  0.00    +0.024 A 
ATOM     23  C   UNL     1       8.708   8.441   7.284  0.00  0.00    +0.024 A 
ATOM     26  C   UNL     1       9.295   6.115   7.575  0.00  0.00    -0.045 A 
ATOM     28  C   UNL     1       8.835   5.839   6.287  0.00  0.00    +0.006 A 
ATOM     29  C   UNL     1       9.232   7.417   8.074  0.00  0.00    +0.006 A 
BRANCH  26  27
ATOM     27  C   UNL     1       9.854   5.020   8.419  0.00  0.00    +0.013 C 
ATOM     32  C   UNL     1       9.175   4.936   9.799  0.00  0.00    +0.012 C 
ATOM     33  C   UNL     1       9.790   3.648   7.721  0.00  0.00    +0.012 C 
ENDBRANCH  26  27
ENDBRANCH  11  21
ENDBRANCH   6  19
ENDBRANCH  15   6
TORSDOF 7
ENDMDL
MODEL 7
REMARK VINA RESULT:      -7.2     21.484     25.431
REMARK  Name = 11884096
REMARK  9 active torsions:
REMARK  status: ('A' for Active; 'I' for Inactive)
REMARK    1  A    between atoms: O_6  and  C_15
REMARK    2  A    between atoms: O_6  and  C_19
REMARK    3  A    between atoms: N_9  and  C_14
REMARK    4  A    between atoms: N_10  and  C_20
REMARK    5  A    between atoms: N_11  and  C_21
REMARK    6  A    between atoms: C_26  and  C_27
REMARK    7  A    between atoms: C_27  and  C_32
REMARK    8  A    between atoms: C_27  and  C_33
REMARK    9  A    between atoms: C_30  and  C_35
REMARK                            x       y       z     vdW  Elec       q    Type
REMARK                         _______ _______ _______ _____ _____    ______ ____
ROOT
ATOM      4  O   UNL     1       4.226   9.959   1.892  0.00  0.00    -0.368 OA
ATOM      5  O   UNL     1       5.509  12.720   2.263  0.00  0.00    -0.368 OA
ATOM     12  C   UNL     1       5.367  11.603   3.165  0.00  0.00    +0.173 C 
ATOM     13  C   UNL     1       4.015  10.979   2.884  0.00  0.00    +0.192 C 
ATOM     14  C   UNL     1       6.351  10.514   2.802  0.00  0.00    +0.131 C 
ATOM     15  C   UNL     1       3.228  12.143   2.330  0.00  0.00    +0.235 C 
ATOM     16  C   UNL     1       5.635   9.798   1.669  0.00  0.00    +0.185 C 
ATOM     17  C   UNL     1       4.279  12.895   1.544  0.00  0.00    +0.207 C 
ENDROOT
BRANCH  14   9
ATOM      7  O   UNL     1       8.353   8.473   2.975  0.00  0.00    -0.252 OA
ATOM      9  N   UNL     1       6.587   9.630   3.916  0.00  0.00    -0.292 N 
ATOM     10  N   UNL     1       7.582   7.952   5.129  0.00  0.00    -0.269 N 
ATOM     18  C   UNL     1       7.591   8.654   3.921  0.00  0.00    +0.304 C 
ATOM     36  H   UNL     1       6.042   9.763   4.763  0.00  0.00    +0.151 HD
ATOM     37  H   UNL     1       6.880   8.227   5.813  0.00  0.00    +0.156 HD
BRANCH  10  20
ATOM     20  C   UNL     1       8.433   6.893   5.525  0.00  0.00    +0.035 A 
ATOM     24  C   UNL     1       8.583   6.586   6.878  0.00  0.00    +0.035 A 
ATOM     25  C   UNL     1       9.124   6.158   4.562  0.00  0.00    +0.023 A 
ATOM     30  C   UNL     1       9.424   5.544   7.266  0.00  0.00    +0.057 A 
ATOM     31  C   UNL     1       9.965   5.115   4.951  0.00  0.00    +0.002 A 
ATOM     34  C   UNL     1      10.115   4.808   6.303  0.00  0.00    +0.012 A 
BRANCH  30  35
ATOM      1  F   UNL     1       9.572   3.877   8.975  0.00  0.00    -0.166 F 
ATOM      2  F   UNL     1       8.611   5.746   9.507  0.00  0.00    -0.166 F 
ATOM      3  F   UNL     1      10.765   5.677   9.226  0.00  0.00    -0.166 F 
ATOM     35  C   UNL     1       9.587   5.216   8.712  0.00  0.00    +0.417 C 
ENDBRANCH  30  35
ENDBRANCH  10  20
ENDBRANCH  14   9
BRANCH  15   6
ATOM      6  O   UNL     1       2.139  11.753   1.523  0.00  0.00    -0.442 OA
BRANCH   6  19
ATOM      8  O   UNL     1       0.301  12.795   2.398  0.00  0.00    -0.226 OA
ATOM     11  N   UNL     1       0.464  10.462   2.304  0.00  0.00    -0.251 N 
ATOM     19  C   UNL     1       0.892  11.762   2.112  0.00  0.00    +0.405 C 
ATOM     38  H   UNL     1       1.099   9.729   1.998  0.00  0.00    +0.158 HD
BRANCH  11  21
ATOM     21  C   UNL     1      -0.752  10.021   2.875  0.00  0.00    +0.036 A 
ATOM     22  C   UNL     1      -0.756   9.442   4.144  0.00  0.00    +0.024 A 
ATOM     23  C   UNL     1      -1.946  10.167   2.171  0.00  0.00    +0.024 A 
ATOM     26  C   UNL     1      -3.150   9.152   4.004  0.00  0.00    -0.045 A 
ATOM     28  C   UNL     1      -1.955   9.008   4.709  0.00  0.00    +0.006 A 
ATOM     29  C   UNL     1      -3.146   9.732   2.735  0.00  0.00    +0.006 A 
BRANCH  26  27
ATOM     27  C   UNL     1      -4.434   8.687   4.607  0.00  0.00    +0.013 C 
ATOM     32  C   UNL     1      -5.641   8.938   3.684  0.00  0.00    +0.012 C 
ATOM     33  C   UNL     1      -4.387   7.203   5.016  0.00  0.00    +0.012 C 
ENDBRANCH  26  27
ENDBRANCH  11  21
ENDBRANCH   6  19
ENDBRANCH  15   6
TORSDOF 7
ENDMDL
MODEL 8
REMARK VINA RESULT:      -7.2      1.811      2.507
REMARK  Name = 11884096
REMARK  9 active torsions:
REMARK  status: ('A' for Active; 'I' for Inactive)
REMARK    1  A    between atoms: O_6  and  C_15
REMARK    2  A    between atoms: O_6  and  C_19
REMARK    3  A    between atoms: N_9  and  C_14
REMARK    4  A    between atoms: N_10  and  C_20
REMARK    5  A    between atoms: N_11  and  C_21
REMARK    6  A    between atoms: C_26  and  C_27
REMARK    7  A    between atoms: C_27  and  C_32
REMARK    8  A    between atoms: C_27  and  C_33
REMARK    9  A    between atoms: C_30  and  C_35
REMARK                            x       y       z     vdW  Elec       q    Type
REMARK                         _______ _______ _______ _____ _____    ______ ____
ROOT
ATOM      4  O   UNL     1     -10.115 -10.025  16.170  0.00  0.00    -0.368 OA
ATOM      5  O   UNL     1     -11.996  -9.402  18.510  0.00  0.00    -0.368 OA
ATOM     12  C   UNL     1     -11.324  -8.540  17.568  0.00  0.00    +0.173 C 
ATOM     13  C   UNL     1      -9.964  -9.153  17.303  0.00  0.00    +0.192 C 
ATOM     14  C   UNL     1     -12.016  -8.600  16.225  0.00  0.00    +0.131 C 
ATOM     15  C   UNL     1      -9.702  -9.927  18.573  0.00  0.00    +0.235 C 
ATOM     16  C   UNL     1     -11.429  -9.862  15.616  0.00  0.00    +0.185 C 
ATOM     17  C   UNL     1     -11.084 -10.426  18.934  0.00  0.00    +0.207 C 
ENDROOT
BRANCH  14   9
ATOM      7  O   UNL     1     -13.771  -7.264  14.398  0.00  0.00    -0.252 OA
ATOM      9  N   UNL     1     -11.708  -7.439  15.427  0.00  0.00    -0.292 N 
ATOM     10  N   UNL     1     -12.051  -5.741  13.917  0.00  0.00    -0.269 N 
ATOM     18  C   UNL     1     -12.627  -6.844  14.553  0.00  0.00    +0.304 C 
ATOM     36  H   UNL     1     -10.804  -6.993  15.550  0.00  0.00    +0.151 HD
ATOM     37  H   UNL     1     -11.086  -5.528  14.159  0.00  0.00    +0.156 HD
BRANCH  10  20
ATOM     20  C   UNL     1     -12.645  -4.878  12.968  0.00  0.00    +0.035 A 
ATOM     24  C   UNL     1     -12.040  -4.683  11.725  0.00  0.00    +0.035 A 
ATOM     25  C   UNL     1     -13.836  -4.219  13.274  0.00  0.00    +0.023 A 
ATOM     30  C   UNL     1     -12.626  -3.830  10.791  0.00  0.00    +0.057 A 
ATOM     31  C   UNL     1     -14.422  -3.366  12.338  0.00  0.00    +0.002 A 
ATOM     34  C   UNL     1     -13.817  -3.172  11.097  0.00  0.00    +0.012 A 
BRANCH  30  35
ATOM      1  F   UNL     1     -11.617  -4.781   8.841  0.00  0.00    -0.166 F 
ATOM      2  F   UNL     1     -10.834  -2.877   9.524  0.00  0.00    -0.166 F 
ATOM      3  F   UNL     1     -12.790  -2.969   8.580  0.00  0.00    -0.166 F 
ATOM     35  C   UNL     1     -11.978  -3.620   9.463  0.00  0.00    +0.417 C 
ENDBRANCH  30  35
ENDBRANCH  10  20
ENDBRANCH  14   9
BRANCH  15   6
ATOM      6  O   UNL     1      -8.782 -10.983  18.409  0.00  0.00    -0.442 OA
BRANCH   6  19
ATOM      8  O   UNL     1      -6.842  -9.922  18.995  0.00  0.00    -0.226 OA
ATOM     11  N   UNL     1      -7.001 -11.209  17.046  0.00  0.00    -0.251 N 
ATOM     19  C   UNL     1      -7.461 -10.635  18.215  0.00  0.00    +0.405 C 
ATOM     38  H   UNL     1      -7.669 -11.774  16.528  0.00  0.00    +0.158 HD
BRANCH  11  21
ATOM     21  C   UNL     1      -5.711 -11.108  16.476  0.00  0.00    +0.036 A 
ATOM     22  C   UNL     1      -4.580 -11.216  17.286  0.00  0.00    +0.024 A 
ATOM     23  C   UNL     1      -5.569 -10.902  15.105  0.00  0.00    +0.024 A 
ATOM     26  C   UNL     1      -3.165 -10.910  15.352  0.00  0.00    -0.045 A 
ATOM     28  C   UNL     1      -3.307 -11.118  16.724  0.00  0.00    +0.006 A 
ATOM     29  C   UNL     1      -4.296 -10.803  14.542  0.00  0.00    +0.006 A 
BRANCH  26  27
ATOM     27  C   UNL     1      -1.804 -10.804  14.750  0.00  0.00    +0.013 C 
ATOM     32  C   UNL     1      -1.843 -10.297  13.296  0.00  0.00    +0.012 C 
ATOM     33  C   UNL     1      -0.859  -9.921  15.587  0.00  0.00    +0.012 C 
ENDBRANCH  26  27
ENDBRANCH  11  21
ENDBRANCH   6  19
ENDBRANCH  15   6
TORSDOF 7
ENDMDL
MODEL 9
REMARK VINA RESULT:      -6.7      6.254     11.991
REMARK  Name = 11884096
REMARK  9 active torsions:
REMARK  status: ('A' for Active; 'I' for Inactive)
REMARK    1  A    between atoms: O_6  and  C_15
REMARK    2  A    between atoms: O_6  and  C_19
REMARK    3  A    between atoms: N_9  and  C_14
REMARK    4  A    between atoms: N_10  and  C_20
REMARK    5  A    between atoms: N_11  and  C_21
REMARK    6  A    between atoms: C_26  and  C_27
REMARK    7  A    between atoms: C_27  and  C_32
REMARK    8  A    between atoms: C_27  and  C_33
REMARK    9  A    between atoms: C_30  and  C_35
REMARK                            x       y       z     vdW  Elec       q    Type
REMARK                         _______ _______ _______ _____ _____    ______ ____
ROOT
ATOM      4  O   UNL     1     -10.096  -8.322   8.897  0.00  0.00    -0.368 OA
ATOM      5  O   UNL     1      -8.284  -7.179   6.703  0.00  0.00    -0.368 OA
ATOM     12  C   UNL     1      -8.035  -7.467   8.095  0.00  0.00    +0.173 C 
ATOM     13  C   UNL     1      -9.303  -7.123   8.849  0.00  0.00    +0.192 C 
ATOM     14  C   UNL     1      -7.886  -8.957   8.298  0.00  0.00    +0.131 C 
ATOM     15  C   UNL     1      -9.933  -6.071   7.967  0.00  0.00    +0.235 C 
ATOM     16  C   UNL     1      -9.332  -9.418   8.374  0.00  0.00    +0.185 C 
ATOM     17  C   UNL     1      -9.573  -6.560   6.581  0.00  0.00    +0.207 C 
ENDROOT
BRANCH  14   9
ATOM      7  O   UNL     1      -5.047  -9.168   8.619  0.00  0.00    -0.252 OA
ATOM      9  N   UNL     1      -7.176  -9.250   9.518  0.00  0.00    -0.292 N 
ATOM     10  N   UNL     1      -5.377  -9.632  10.896  0.00  0.00    -0.269 N 
ATOM     18  C   UNL     1      -5.780  -9.336   9.591  0.00  0.00    +0.304 C 
ATOM     36  H   UNL     1      -7.708  -9.335  10.379  0.00  0.00    +0.151 HD
ATOM     37  H   UNL     1      -6.115  -9.742  11.588  0.00  0.00    +0.156 HD
BRANCH  10  20
ATOM     20  C   UNL     1      -4.060  -9.801  11.381  0.00  0.00    +0.035 A 
ATOM     24  C   UNL     1      -3.846 -10.340  12.650  0.00  0.00    +0.035 A 
ATOM     25  C   UNL     1      -2.973  -9.428  10.590  0.00  0.00    +0.023 A 
ATOM     30  C   UNL     1      -2.546 -10.505  13.128  0.00  0.00    +0.057 A 
ATOM     31  C   UNL     1      -1.672  -9.593  11.069  0.00  0.00    +0.002 A 
ATOM     34  C   UNL     1      -1.460 -10.131  12.337  0.00  0.00    +0.012 A 
BRANCH  30  35
ATOM      1  F   UNL     1      -1.714 -12.302  14.468  0.00  0.00    -0.166 F 
ATOM      2  F   UNL     1      -3.465 -11.258  15.205  0.00  0.00    -0.166 F 
ATOM      3  F   UNL     1      -1.521 -10.288  15.262  0.00  0.00    -0.166 F 
ATOM     35  C   UNL     1      -2.318 -11.078  14.486  0.00  0.00    +0.417 C 
ENDBRANCH  30  35
ENDBRANCH  10  20
ENDBRANCH  14   9
BRANCH  15   6
ATOM      6  O   UNL     1     -11.327  -5.949   8.142  0.00  0.00    -0.442 OA
BRANCH   6  19
ATOM      8  O   UNL     1     -11.043  -4.078   9.425  0.00  0.00    -0.226 OA
ATOM     11  N   UNL     1     -13.132  -4.661   8.545  0.00  0.00    -0.251 N 
ATOM     19  C   UNL     1     -11.778  -4.809   8.774  0.00  0.00    +0.405 C 
ATOM     38  H   UNL     1     -13.574  -5.377   7.974  0.00  0.00    +0.158 HD
BRANCH  11  21
ATOM     21  C   UNL     1     -13.986  -3.633   9.008  0.00  0.00    +0.036 A 
ATOM     22  C   UNL     1     -14.464  -3.661  10.318  0.00  0.00    +0.024 A 
ATOM     23  C   UNL     1     -14.349  -2.592   8.155  0.00  0.00    +0.024 A 
ATOM     26  C   UNL     1     -15.669  -1.606   9.922  0.00  0.00    -0.045 A 
ATOM     28  C   UNL     1     -15.305  -2.647  10.775  0.00  0.00    +0.006 A 
ATOM     29  C   UNL     1     -15.191  -1.577   8.612  0.00  0.00    +0.006 A 
BRANCH  26  27
ATOM     27  C   UNL     1     -16.570  -0.521  10.410  0.00  0.00    +0.013 C 
ATOM     32  C   UNL     1     -16.160   0.867   9.881  0.00  0.00    +0.012 C 
ATOM     33  C   UNL     1     -18.050  -0.791  10.077  0.00  0.00    +0.012 C 
ENDBRANCH  26  27
ENDBRANCH  11  21
ENDBRANCH   6  19
ENDBRANCH  15   6
TORSDOF 7
ENDMDL
MODEL 10
REMARK VINA RESULT:      -6.7     24.602     27.937
REMARK  Name = 11884096
REMARK  9 active torsions:
REMARK  status: ('A' for Active; 'I' for Inactive)
REMARK    1  A    between atoms: O_6  and  C_15
REMARK    2  A    between atoms: O_6  and  C_19
REMARK    3  A    between atoms: N_9  and  C_14
REMARK    4  A    between atoms: N_10  and  C_20
REMARK    5  A    between atoms: N_11  and  C_21
REMARK    6  A    between atoms: C_26  and  C_27
REMARK    7  A    between atoms: C_27  and  C_32
REMARK    8  A    between atoms: C_27  and  C_33
REMARK    9  A    between atoms: C_30  and  C_35
REMARK                            x       y       z     vdW  Elec       q    Type
REMARK                         _______ _______ _______ _____ _____    ______ ____
ROOT
ATOM      4  O   UNL     1      15.660 -10.966  27.230  0.00  0.00    -0.368 OA
ATOM      5  O   UNL     1      15.028 -11.409  24.262  0.00  0.00    -0.368 OA
ATOM     12  C   UNL     1      14.880 -10.250  25.108  0.00  0.00    +0.173 C 
ATOM     13  C   UNL     1      14.456 -10.752  26.473  0.00  0.00    +0.192 C 
ATOM     14  C   UNL     1      16.228  -9.614  25.359  0.00  0.00    +0.131 C 
ATOM     15  C   UNL     1      13.766 -12.054  26.142  0.00  0.00    +0.235 C 
ATOM     16  C   UNL     1      16.782 -10.470  26.486  0.00  0.00    +0.185 C 
ATOM     17  C   UNL     1      14.595 -12.570  24.986  0.00  0.00    +0.207 C 
ENDROOT
BRANCH  14   9
ATOM      7  O   UNL     1      17.814  -7.401  24.471  0.00  0.00    -0.252 OA
ATOM      9  N   UNL     1      16.090  -8.237  25.764  0.00  0.00    -0.292 N 
ATOM     10  N   UNL     1      16.544  -5.987  25.848  0.00  0.00    -0.269 N 
ATOM     18  C   UNL     1      16.911  -7.210  25.281  0.00  0.00    +0.304 C 
ATOM     36  H   UNL     1      15.322  -7.989  26.380  0.00  0.00    +0.151 HD
ATOM     37  H   UNL     1      15.769  -6.003  26.507  0.00  0.00    +0.156 HD
BRANCH  10  20
ATOM     20  C   UNL     1      17.124  -4.717  25.621  0.00  0.00    +0.035 A 
ATOM     24  C   UNL     1      16.741  -3.962  24.511  0.00  0.00    +0.035 A 
ATOM     25  C   UNL     1      18.080  -4.219  26.506  0.00  0.00    +0.023 A 
ATOM     30  C   UNL     1      17.315  -2.711  24.287  0.00  0.00    +0.057 A 
ATOM     31  C   UNL     1      18.654  -2.967  26.281  0.00  0.00    +0.002 A 
ATOM     34  C   UNL     1      18.271  -2.213  25.172  0.00  0.00    +0.012 A 
BRANCH  30  35
ATOM      1  F   UNL     1      16.911  -0.559  23.325  0.00  0.00    -0.166 F 
ATOM      2  F   UNL     1      15.648  -2.189  22.651  0.00  0.00    -0.166 F 
ATOM      3  F   UNL     1      17.729  -2.100  22.027  0.00  0.00    -0.166 F 
ATOM     35  C   UNL     1      16.907  -1.906  23.099  0.00  0.00    +0.417 C 
ENDBRANCH  30  35
ENDBRANCH  10  20
ENDBRANCH  14   9
BRANCH  15   6
ATOM      6  O   UNL     1      13.732 -12.964  27.218  0.00  0.00    -0.442 OA
BRANCH   6  19
ATOM      8  O   UNL     1      12.133 -14.557  27.589  0.00  0.00    -0.226 OA
ATOM     11  N   UNL     1      11.764 -12.302  28.097  0.00  0.00    -0.251 N 
ATOM     19  C   UNL     1      12.487 -13.386  27.638  0.00  0.00    +0.405 C 
ATOM     38  H   UNL     1      12.231 -11.400  28.059  0.00  0.00    +0.158 HD
BRANCH  11  21
ATOM     21  C   UNL     1      10.448 -12.290  28.615  0.00  0.00    +0.036 A 
ATOM     22  C   UNL     1       9.357 -12.320  27.747  0.00  0.00    +0.024 A 
ATOM     23  C   UNL     1      10.242 -12.249  29.993  0.00  0.00    +0.024 A 
ATOM     26  C   UNL     1       7.852 -12.267  29.636  0.00  0.00    -0.045 A 
ATOM     28  C   UNL     1       8.059 -12.309  28.257  0.00  0.00    +0.006 A 
ATOM     29  C   UNL     1       8.944 -12.237  30.505  0.00  0.00    +0.006 A 
BRANCH  26  27
ATOM     27  C   UNL     1       6.464 -12.254  30.183  0.00  0.00    +0.013 C 
ATOM     32  C   UNL     1       5.649 -13.486  29.748  0.00  0.00    +0.012 C 
ATOM     33  C   UNL     1       6.439 -12.125  31.718  0.00  0.00    +0.012 C 
ENDBRANCH  26  27
ENDBRANCH  11  21
ENDBRANCH   6  19
ENDBRANCH  15   6
TORSDOF 7
ENDMDL
