REMARK  Name = 45784228
REMARK  5 active torsions:
REMARK  status: ('A' for Active; 'I' for Inactive)
REMARK    1  A    between atoms: O_2  and  C_25
REMARK    2  A    between atoms: N_4  and  C_12
REMARK    3  A    between atoms: C_7  and  C_11
REMARK    4  A    between atoms: C_12  and  C_13
REMARK    5  A    between atoms: C_24  and  C_25
REMARK                            x       y       z     vdW  Elec       q    Type
REMARK                         _______ _______ _______ _____ _____    ______ ____
ROOT
ATOM      4  N   UNL     1      -0.975  -0.251  -0.236  0.00  0.00    -0.297 NA
ATOM      7  C   UNL     1       1.203  -0.778   0.458  0.00  0.00    +0.070 C 
ATOM      8  C   UNL     1       0.465  -0.043   1.590  0.00  0.00    +0.028 C 
ATOM      9  C   UNL     1       0.354  -0.515  -0.794  0.00  0.00    +0.096 C 
ATOM     10  C   UNL     1      -0.734   0.614   0.919  0.00  0.00    +0.085 C 
ENDROOT
BRANCH   7  11
ATOM      1  F   UNL     1       8.441  -0.490  -0.081  0.00  0.00    -0.205 F 
ATOM      5  N   UNL     1       3.657  -1.300   0.401  0.00  0.00    -0.341 N 
ATOM      6  N   UNL     1       3.110   0.817   0.006  0.00  0.00    -0.232 NA
ATOM     11  C   UNL     1       2.651  -0.383   0.281  0.00  0.00    +0.113 A 
ATOM     14  C   UNL     1       4.845  -0.648   0.190  0.00  0.00    +0.069 A 
ATOM     15  C   UNL     1       4.477   0.671  -0.055  0.00  0.00    +0.089 A 
ATOM     18  C   UNL     1       6.170  -1.087   0.191  0.00  0.00    +0.066 A 
ATOM     19  C   UNL     1       5.476   1.624  -0.315  0.00  0.00    +0.032 A 
ATOM     22  C   UNL     1       7.151  -0.126  -0.070  0.00  0.00    +0.125 A 
ATOM     23  C   UNL     1       6.813   1.207  -0.319  0.00  0.00    +0.040 A 
ATOM     26  H   UNL     1       3.549  -2.284   0.609  0.00  0.00    +0.167 HD
ENDBRANCH   7  11
BRANCH   4  12
ATOM     12  C   UNL     1      -1.873   0.357  -1.206  0.00  0.00    +0.119 C 
BRANCH  12  13
ATOM     13  C   UNL     1      -3.315   0.227  -0.794  0.00  0.00    -0.033 A 
ATOM     16  C   UNL     1      -3.974  -0.994  -0.942  0.00  0.00    +0.006 A 
ATOM     17  C   UNL     1      -3.992   1.325  -0.265  0.00  0.00    +0.006 A 
ATOM     20  C   UNL     1      -5.310  -1.116  -0.560  0.00  0.00    +0.015 A 
ATOM     21  C   UNL     1      -5.328   1.204   0.117  0.00  0.00    +0.015 A 
ATOM     24  C   UNL     1      -5.987  -0.017  -0.031  0.00  0.00    +0.059 A 
BRANCH  24  25
ATOM      3  O   UNL     1      -8.059  -1.173   0.283  0.00  0.00    -0.245 OA
ATOM     25  C   UNL     1      -7.380  -0.144   0.368  0.00  0.00    +0.337 C 
BRANCH  25   2
ATOM      2  O   UNL     1      -7.887   1.018   0.863  0.00  0.00    -0.477 OA
ATOM     27  H   UNL     1      -8.827   0.922   1.129  0.00  0.00    +0.295 HD
ENDBRANCH  25   2
ENDBRANCH  24  25
ENDBRANCH  12  13
ENDBRANCH   4  12
TORSDOF 5
