MODEL 1
REMARK VINA RESULT:      -7.0      0.000      0.000
REMARK  Name = 38027937
REMARK  12 active torsions:
REMARK  status: ('A' for Active; 'I' for Inactive)
REMARK    1  A    between atoms: O_3  and  C_30
REMARK    2  A    between atoms: O_3  and  C_33
REMARK    3  A    between atoms: N_5  and  C_16
REMARK    4  A    between atoms: N_6  and  C_26
REMARK    5  A    between atoms: N_7  and  C_27
REMARK    6  A    between atoms: C_8  and  C_12
REMARK    7  A    between atoms: C_9  and  C_16
REMARK    8  A    between atoms: C_11  and  C_15
REMARK    9  A    between atoms: C_12  and  C_17
REMARK   10  A    between atoms: C_12  and  C_18
REMARK   11  A    between atoms: C_13  and  C_19
REMARK   12  A    between atoms: C_15  and  C_20
REMARK                            x       y       z     vdW  Elec       q    Type
REMARK                         _______ _______ _______ _____ _____    ______ ____
ROOT
ATOM      8  C   UNL     1      -4.893 -12.298  16.084  0.00  0.00    +0.000 C 
ATOM      9  C   UNL     1      -4.051 -11.740  17.260  0.00  0.00    +0.032 C 
ATOM     10  C   UNL     1      -3.982 -12.694  14.913  0.00  0.00    +0.012 C 
ATOM     11  C   UNL     1      -3.149 -11.507  14.395  0.00  0.00    +0.023 C 
ATOM     13  C   UNL     1      -2.498 -10.739  15.529  0.00  0.00    -0.073 C 
ATOM     14  C   UNL     1      -2.906 -10.866  16.803  0.00  0.00    -0.022 C 
ATOM     19  C   UNL     1      -1.336  -9.856  15.168  0.00  0.00    +0.039 C 
ENDROOT
BRANCH   8  12
ATOM     12  C   UNL     1      -5.740 -13.500  16.513  0.00  0.00    -0.013 C 
ATOM     17  C   UNL     1      -7.139 -13.407  15.912  0.00  0.00    +0.007 C 
ATOM     18  C   UNL     1      -5.061 -14.803  16.102  0.00  0.00    +0.007 C 
ENDBRANCH   8  12
BRANCH  11  15
ATOM     15  C   UNL     1      -3.995 -10.578  13.518  0.00  0.00    +0.103 C 
BRANCH  15  20
ATOM      1  O   UNL     1      -2.251 -10.940  11.955  0.00  0.00    -0.276 OA
ATOM      4  N   UNL     1      -4.072  -9.707  11.209  0.00  0.00    -0.299 N 
ATOM      6  N   UNL     1      -5.769  -8.947   9.029  0.00  0.00    -0.302 NA
ATOM     20  C   UNL     1      -3.354 -10.428  12.161  0.00  0.00    +0.216 C 
ATOM     21  C   UNL     1      -3.521  -9.521   9.868  0.00  0.00    +0.123 C 
ATOM     22  C   UNL     1      -5.318  -8.977  11.460  0.00  0.00    +0.123 C 
ATOM     23  C   UNL     1      -4.578  -9.775   8.793  0.00  0.00    +0.103 C 
ATOM     24  C   UNL     1      -6.341  -9.235  10.352  0.00  0.00    +0.103 C 
ATOM     26  C   UNL     1      -6.764  -9.167   7.981  0.00  0.00    +0.105 C 
ENDBRANCH  15  20
ENDBRANCH  11  15
BRANCH   9  16
ATOM     16  C   UNL     1      -4.927 -10.960  18.246  0.00  0.00    +0.113 C 
BRANCH  16   5
ATOM      2  O   UNL     1      -7.737 -10.792  18.777  0.00  0.00    -0.253 OA
ATOM      5  N   UNL     1      -5.881 -10.155  17.551  0.00  0.00    -0.299 N 
ATOM      7  N   UNL     1      -7.937  -9.246  17.021  0.00  0.00    -0.269 N 
ATOM     25  C   UNL     1      -7.252 -10.123  17.868  0.00  0.00    +0.304 C 
ATOM     34  H   UNL     1      -5.547  -9.520  16.833  0.00  0.00    +0.150 HD
ATOM     35  H   UNL     1      -7.383  -8.769  16.315  0.00  0.00    +0.156 HD
BRANCH   7  27
ATOM     27  C   UNL     1      -9.318  -8.942  17.021  0.00  0.00    +0.038 A 
ATOM     28  C   UNL     1      -9.748  -7.655  16.693  0.00  0.00    +0.069 A 
ATOM     29  C   UNL     1     -10.250  -9.925  17.353  0.00  0.00    +0.023 A 
ATOM     30  C   UNL     1     -11.110  -7.354  16.694  0.00  0.00    +0.122 A 
ATOM     31  C   UNL     1     -11.612  -9.623  17.354  0.00  0.00    +0.005 A 
ATOM     32  C   UNL     1     -12.042  -8.338  17.025  0.00  0.00    +0.046 A 
BRANCH  30   3
ATOM      3  O   UNL     1     -11.529  -6.100  16.372  0.00  0.00    -0.495 OA
ATOM     33  C   UNL     1     -11.660  -5.795  14.984  0.00  0.00    +0.277 C 
ENDBRANCH  30   3
ENDBRANCH   7  27
ENDBRANCH  16   5
ENDBRANCH   9  16
TORSDOF 7
ENDMDL
MODEL 2
REMARK VINA RESULT:      -6.8      3.338      6.871
REMARK  Name = 38027937
REMARK  12 active torsions:
REMARK  status: ('A' for Active; 'I' for Inactive)
REMARK    1  A    between atoms: O_3  and  C_30
REMARK    2  A    between atoms: O_3  and  C_33
REMARK    3  A    between atoms: N_5  and  C_16
REMARK    4  A    between atoms: N_6  and  C_26
REMARK    5  A    between atoms: N_7  and  C_27
REMARK    6  A    between atoms: C_8  and  C_12
REMARK    7  A    between atoms: C_9  and  C_16
REMARK    8  A    between atoms: C_11  and  C_15
REMARK    9  A    between atoms: C_12  and  C_17
REMARK   10  A    between atoms: C_12  and  C_18
REMARK   11  A    between atoms: C_13  and  C_19
REMARK   12  A    between atoms: C_15  and  C_20
REMARK                            x       y       z     vdW  Elec       q    Type
REMARK                         _______ _______ _______ _____ _____    ______ ____
ROOT
ATOM      8  C   UNL     1      -5.317 -10.016  10.005  0.00  0.00    +0.000 C 
ATOM      9  C   UNL     1      -6.271  -8.958  10.615  0.00  0.00    +0.032 C 
ATOM     10  C   UNL     1      -4.839  -9.569   8.615  0.00  0.00    +0.012 C 
ATOM     11  C   UNL     1      -6.009  -9.347   7.640  0.00  0.00    +0.023 C 
ATOM     13  C   UNL     1      -7.120  -8.529   8.269  0.00  0.00    -0.073 C 
ATOM     14  C   UNL     1      -7.212  -8.355   9.598  0.00  0.00    -0.022 C 
ATOM     19  C   UNL     1      -8.095  -7.877   7.329  0.00  0.00    +0.039 C 
ENDROOT
BRANCH   8  12
ATOM     12  C   UNL     1      -4.110 -10.282  10.909  0.00  0.00    -0.013 C 
ATOM     17  C   UNL     1      -3.721 -11.756  10.859  0.00  0.00    +0.007 C 
ATOM     18  C   UNL     1      -2.935  -9.398  10.501  0.00  0.00    +0.007 C 
ENDBRANCH   8  12
BRANCH  11  15
ATOM     15  C   UNL     1      -6.545 -10.680   7.106  0.00  0.00    +0.103 C 
BRANCH  15  20
ATOM      1  O   UNL     1      -6.518 -10.068   4.817  0.00  0.00    -0.276 OA
ATOM      4  N   UNL     1      -5.292 -11.952   5.401  0.00  0.00    -0.299 N 
ATOM      6  N   UNL     1      -3.025 -13.632   4.903  0.00  0.00    -0.302 NA
ATOM     20  C   UNL     1      -6.123 -10.866   5.671  0.00  0.00    +0.216 C 
ATOM     21  C   UNL     1      -4.834 -12.198   4.034  0.00  0.00    +0.123 C 
ATOM     22  C   UNL     1      -4.914 -12.991   6.364  0.00  0.00    +0.123 C 
ATOM     23  C   UNL     1      -3.340 -12.518   3.997  0.00  0.00    +0.103 C 
ATOM     24  C   UNL     1      -3.419 -13.302   6.281  0.00  0.00    +0.103 C 
ATOM     26  C   UNL     1      -1.601 -13.957   4.840  0.00  0.00    +0.105 C 
ENDBRANCH  15  20
ENDBRANCH  11  15
BRANCH   9  16
ATOM     16  C   UNL     1      -7.081  -9.547  11.775  0.00  0.00    +0.113 C 
BRANCH  16   5
ATOM      2  O   UNL     1      -6.816 -11.284  14.038  0.00  0.00    -0.253 OA
ATOM      5  N   UNL     1      -6.476  -9.229  13.030  0.00  0.00    -0.299 N 
ATOM      7  N   UNL     1      -5.741  -9.547  15.196  0.00  0.00    -0.269 N 
ATOM     25  C   UNL     1      -6.381 -10.137  14.102  0.00  0.00    +0.304 C 
ATOM     34  H   UNL     1      -6.030  -8.323  13.137  0.00  0.00    +0.150 HD
ATOM     35  H   UNL     1      -5.443  -8.581  15.084  0.00  0.00    +0.156 HD
BRANCH   7  27
ATOM     27  C   UNL     1      -5.459 -10.131  16.453  0.00  0.00    +0.038 A 
ATOM     28  C   UNL     1      -6.427 -10.123  17.458  0.00  0.00    +0.069 A 
ATOM     29  C   UNL     1      -4.213 -10.711  16.689  0.00  0.00    +0.023 A 
ATOM     30  C   UNL     1      -6.148 -10.697  18.698  0.00  0.00    +0.122 A 
ATOM     31  C   UNL     1      -3.935 -11.285  17.930  0.00  0.00    +0.005 A 
ATOM     32  C   UNL     1      -4.902 -11.278  18.934  0.00  0.00    +0.046 A 
BRANCH  30   3
ATOM      3  O   UNL     1      -7.092 -10.690  19.679  0.00  0.00    -0.495 OA
ATOM     33  C   UNL     1      -8.438 -10.961  19.286  0.00  0.00    +0.277 C 
ENDBRANCH  30   3
ENDBRANCH   7  27
ENDBRANCH  16   5
ENDBRANCH   9  16
TORSDOF 7
ENDMDL
MODEL 3
REMARK VINA RESULT:      -6.6      2.432      4.112
REMARK  Name = 38027937
REMARK  12 active torsions:
REMARK  status: ('A' for Active; 'I' for Inactive)
REMARK    1  A    between atoms: O_3  and  C_30
REMARK    2  A    between atoms: O_3  and  C_33
REMARK    3  A    between atoms: N_5  and  C_16
REMARK    4  A    between atoms: N_6  and  C_26
REMARK    5  A    between atoms: N_7  and  C_27
REMARK    6  A    between atoms: C_8  and  C_12
REMARK    7  A    between atoms: C_9  and  C_16
REMARK    8  A    between atoms: C_11  and  C_15
REMARK    9  A    between atoms: C_12  and  C_17
REMARK   10  A    between atoms: C_12  and  C_18
REMARK   11  A    between atoms: C_13  and  C_19
REMARK   12  A    between atoms: C_15  and  C_20
REMARK                            x       y       z     vdW  Elec       q    Type
REMARK                         _______ _______ _______ _____ _____    ______ ____
ROOT
ATOM      8  C   UNL     1      -3.265 -12.692  12.518  0.00  0.00    +0.000 C 
ATOM      9  C   UNL     1      -1.836 -12.217  12.886  0.00  0.00    +0.032 C 
ATOM     10  C   UNL     1      -3.581 -12.352  11.054  0.00  0.00    +0.012 C 
ATOM     11  C   UNL     1      -3.482 -10.843  10.770  0.00  0.00    +0.023 C 
ATOM     13  C   UNL     1      -2.212 -10.245  11.344  0.00  0.00    -0.073 C 
ATOM     14  C   UNL     1      -1.483 -10.879  12.278  0.00  0.00    -0.022 C 
ATOM     19  C   UNL     1      -1.775  -8.920  10.784  0.00  0.00    +0.039 C 
ENDROOT
BRANCH   8  12
ATOM     12  C   UNL     1      -3.443 -14.194  12.753  0.00  0.00    -0.013 C 
ATOM     17  C   UNL     1      -4.924 -14.553  12.811  0.00  0.00    +0.007 C 
ATOM     18  C   UNL     1      -2.735 -14.991  11.661  0.00  0.00    +0.007 C 
ENDBRANCH   8  12
BRANCH  11  15
ATOM     15  C   UNL     1      -4.719 -10.100  11.286  0.00  0.00    +0.103 C 
BRANCH  15  20
ATOM      1  O   UNL     1      -4.979  -8.118  10.013  0.00  0.00    -0.276 OA
ATOM      4  N   UNL     1      -6.276  -9.936   9.376  0.00  0.00    -0.299 N 
ATOM      6  N   UNL     1      -7.592 -11.371   7.275  0.00  0.00    -0.302 NA
ATOM     20  C   UNL     1      -5.332  -9.289  10.172  0.00  0.00    +0.216 C 
ATOM     21  C   UNL     1      -6.913  -9.220   8.273  0.00  0.00    +0.123 C 
ATOM     22  C   UNL     1      -6.813 -11.278   9.619  0.00  0.00    +0.123 C 
ATOM     23  C   UNL     1      -6.955 -10.074   7.006  0.00  0.00    +0.103 C 
ATOM     24  C   UNL     1      -6.863 -12.095   8.326  0.00  0.00    +0.103 C 
ATOM     26  C   UNL     1      -7.660 -12.173   6.053  0.00  0.00    +0.105 C 
ENDBRANCH  15  20
ENDBRANCH  11  15
BRANCH   9  16
ATOM     16  C   UNL     1      -1.650 -12.152  14.406  0.00  0.00    +0.113 C 
BRANCH  16   5
ATOM      2  O   UNL     1      -4.061 -12.574  15.895  0.00  0.00    -0.253 OA
ATOM      5  N   UNL     1      -2.488 -11.146  14.979  0.00  0.00    -0.299 N 
ATOM      7  N   UNL     1      -4.272 -10.249  16.138  0.00  0.00    -0.269 N 
ATOM     25  C   UNL     1      -3.663 -11.429  15.700  0.00  0.00    +0.304 C 
ATOM     34  H   UNL     1      -2.190 -10.177  14.921  0.00  0.00    +0.150 HD
ATOM     35  H   UNL     1      -3.811  -9.378  15.887  0.00  0.00    +0.156 HD
BRANCH   7  27
ATOM     27  C   UNL     1      -5.463 -10.114  16.889  0.00  0.00    +0.038 A 
ATOM     28  C   UNL     1      -6.588  -9.525  16.311  0.00  0.00    +0.069 A 
ATOM     29  C   UNL     1      -5.512 -10.568  18.207  0.00  0.00    +0.023 A 
ATOM     30  C   UNL     1      -7.762  -9.392  17.051  0.00  0.00    +0.122 A 
ATOM     31  C   UNL     1      -6.687 -10.434  18.947  0.00  0.00    +0.005 A 
ATOM     32  C   UNL     1      -7.812  -9.845  18.370  0.00  0.00    +0.046 A 
BRANCH  30   3
ATOM      3  O   UNL     1      -8.861  -8.818  16.488  0.00  0.00    -0.495 OA
ATOM     33  C   UNL     1      -9.732  -8.093  17.357  0.00  0.00    +0.277 C 
ENDBRANCH  30   3
ENDBRANCH   7  27
ENDBRANCH  16   5
ENDBRANCH   9  16
TORSDOF 7
ENDMDL
MODEL 4
REMARK VINA RESULT:      -6.6      2.224      3.366
REMARK  Name = 38027937
REMARK  12 active torsions:
REMARK  status: ('A' for Active; 'I' for Inactive)
REMARK    1  A    between atoms: O_3  and  C_30
REMARK    2  A    between atoms: O_3  and  C_33
REMARK    3  A    between atoms: N_5  and  C_16
REMARK    4  A    between atoms: N_6  and  C_26
REMARK    5  A    between atoms: N_7  and  C_27
REMARK    6  A    between atoms: C_8  and  C_12
REMARK    7  A    between atoms: C_9  and  C_16
REMARK    8  A    between atoms: C_11  and  C_15
REMARK    9  A    between atoms: C_12  and  C_17
REMARK   10  A    between atoms: C_12  and  C_18
REMARK   11  A    between atoms: C_13  and  C_19
REMARK   12  A    between atoms: C_15  and  C_20
REMARK                            x       y       z     vdW  Elec       q    Type
REMARK                         _______ _______ _______ _____ _____    ______ ____
ROOT
ATOM      8  C   UNL     1      -3.225 -12.226  13.941  0.00  0.00    +0.000 C 
ATOM      9  C   UNL     1      -2.130 -11.295  14.521  0.00  0.00    +0.032 C 
ATOM     10  C   UNL     1      -2.886 -12.616  12.495  0.00  0.00    +0.012 C 
ATOM     11  C   UNL     1      -2.753 -11.389  11.576  0.00  0.00    +0.023 C 
ATOM     13  C   UNL     1      -1.897 -10.306  12.203  0.00  0.00    -0.073 C 
ATOM     14  C   UNL     1      -1.619 -10.288  13.518  0.00  0.00    -0.022 C 
ATOM     19  C   UNL     1      -1.330  -9.269  11.274  0.00  0.00    +0.039 C 
ENDROOT
BRANCH   8  12
ATOM     12  C   UNL     1      -3.408 -13.487  14.791  0.00  0.00    -0.013 C 
ATOM     17  C   UNL     1      -4.888 -13.826  14.931  0.00  0.00    +0.007 C 
ATOM     18  C   UNL     1      -2.641 -14.656  14.179  0.00  0.00    +0.007 C 
ENDBRANCH   8  12
BRANCH  11  15
ATOM     15  C   UNL     1      -4.129 -10.841  11.182  0.00  0.00    +0.103 C 
BRANCH  15  20
ATOM      1  O   UNL     1      -3.952 -12.098   9.181  0.00  0.00    -0.276 OA
ATOM      4  N   UNL     1      -5.065 -10.065   9.033  0.00  0.00    -0.299 N 
ATOM      6  N   UNL     1      -7.104  -8.492   7.779  0.00  0.00    -0.302 NA
ATOM     20  C   UNL     1      -4.368 -11.064   9.710  0.00  0.00    +0.216 C 
ATOM     21  C   UNL     1      -5.342 -10.209   7.605  0.00  0.00    +0.123 C 
ATOM     22  C   UNL     1      -5.456  -8.771   9.600  0.00  0.00    +0.123 C 
ATOM     23  C   UNL     1      -6.788  -9.837   7.279  0.00  0.00    +0.103 C 
ATOM     24  C   UNL     1      -6.899  -8.422   9.232  0.00  0.00    +0.103 C 
ATOM     26  C   UNL     1      -8.478  -8.127   7.435  0.00  0.00    +0.105 C 
ENDBRANCH  15  20
ENDBRANCH  11  15
BRANCH   9  16
ATOM     16  C   UNL     1      -2.633 -10.562  15.770  0.00  0.00    +0.113 C 
BRANCH  16   5
ATOM      2  O   UNL     1      -4.718 -10.884  17.707  0.00  0.00    -0.253 OA
ATOM      5  N   UNL     1      -4.003 -10.185  15.621  0.00  0.00    -0.299 N 
ATOM      7  N   UNL     1      -6.223  -9.909  16.192  0.00  0.00    -0.269 N 
ATOM     25  C   UNL     1      -4.976 -10.375  16.620  0.00  0.00    +0.304 C 
ATOM     34  H   UNL     1      -4.281  -9.693  14.778  0.00  0.00    +0.150 HD
ATOM     35  H   UNL     1      -6.266  -9.515  15.255  0.00  0.00    +0.156 HD
BRANCH   7  27
ATOM     27  C   UNL     1      -7.445  -9.924  16.903  0.00  0.00    +0.038 A 
ATOM     28  C   UNL     1      -7.751 -10.997  17.741  0.00  0.00    +0.069 A 
ATOM     29  C   UNL     1      -8.346  -8.867  16.766  0.00  0.00    +0.023 A 
ATOM     30  C   UNL     1      -8.956 -11.012  18.443  0.00  0.00    +0.122 A 
ATOM     31  C   UNL     1      -9.552  -8.884  17.467  0.00  0.00    +0.005 A 
ATOM     32  C   UNL     1      -9.857  -9.955  18.305  0.00  0.00    +0.046 A 
BRANCH  30   3
ATOM      3  O   UNL     1      -9.254 -12.058  19.261  0.00  0.00    -0.495 OA
ATOM     33  C   UNL     1     -10.327 -11.874  20.185  0.00  0.00    +0.277 C 
ENDBRANCH  30   3
ENDBRANCH   7  27
ENDBRANCH  16   5
ENDBRANCH   9  16
TORSDOF 7
ENDMDL
MODEL 5
REMARK VINA RESULT:      -6.6      2.488      4.341
REMARK  Name = 38027937
REMARK  12 active torsions:
REMARK  status: ('A' for Active; 'I' for Inactive)
REMARK    1  A    between atoms: O_3  and  C_30
REMARK    2  A    between atoms: O_3  and  C_33
REMARK    3  A    between atoms: N_5  and  C_16
REMARK    4  A    between atoms: N_6  and  C_26
REMARK    5  A    between atoms: N_7  and  C_27
REMARK    6  A    between atoms: C_8  and  C_12
REMARK    7  A    between atoms: C_9  and  C_16
REMARK    8  A    between atoms: C_11  and  C_15
REMARK    9  A    between atoms: C_12  and  C_17
REMARK   10  A    between atoms: C_12  and  C_18
REMARK   11  A    between atoms: C_13  and  C_19
REMARK   12  A    between atoms: C_15  and  C_20
REMARK                            x       y       z     vdW  Elec       q    Type
REMARK                         _______ _______ _______ _____ _____    ______ ____
ROOT
ATOM      8  C   UNL     1      -2.925 -12.465  12.899  0.00  0.00    +0.000 C 
ATOM      9  C   UNL     1      -1.828 -11.371  12.941  0.00  0.00    +0.032 C 
ATOM     10  C   UNL     1      -3.329 -12.762  11.448  0.00  0.00    +0.012 C 
ATOM     11  C   UNL     1      -3.858 -11.512  10.722  0.00  0.00    +0.023 C 
ATOM     13  C   UNL     1      -2.960 -10.311  10.941  0.00  0.00    -0.073 C 
ATOM     14  C   UNL     1      -2.050 -10.272  11.929  0.00  0.00    -0.022 C 
ATOM     19  C   UNL     1      -3.101  -9.174   9.968  0.00  0.00    +0.039 C 
ENDROOT
BRANCH   8  12
ATOM     12  C   UNL     1      -2.469 -13.755  13.587  0.00  0.00    -0.013 C 
ATOM     17  C   UNL     1      -3.565 -14.285  14.505  0.00  0.00    +0.007 C 
ATOM     18  C   UNL     1      -2.080 -14.802  12.548  0.00  0.00    +0.007 C 
ENDBRANCH   8  12
BRANCH  11  15
ATOM     15  C   UNL     1      -5.300 -11.201  11.136  0.00  0.00    +0.103 C 
BRANCH  15  20
ATOM      1  O   UNL     1      -6.399 -12.853   9.839  0.00  0.00    -0.276 OA
ATOM      4  N   UNL     1      -6.923 -10.642   9.360  0.00  0.00    -0.299 N 
ATOM      6  N   UNL     1      -8.865  -8.742   8.452  0.00  0.00    -0.302 NA
ATOM     20  C   UNL     1      -6.253 -11.647  10.055  0.00  0.00    +0.216 C 
ATOM     21  C   UNL     1      -7.867 -10.993   8.300  0.00  0.00    +0.123 C 
ATOM     22  C   UNL     1      -6.675  -9.204   9.501  0.00  0.00    +0.123 C 
ATOM     23  C   UNL     1      -9.158 -10.182   8.416  0.00  0.00    +0.103 C 
ATOM     24  C   UNL     1      -7.988  -8.424   9.588  0.00  0.00    +0.103 C 
ATOM     26  C   UNL     1     -10.104  -7.968   8.528  0.00  0.00    +0.105 C 
ENDBRANCH  15  20
ENDBRANCH  11  15
BRANCH   9  16
ATOM     16  C   UNL     1      -1.710 -10.760  14.342  0.00  0.00    +0.113 C 
BRANCH  16   5
ATOM      2  O   UNL     1      -3.079 -11.590  16.718  0.00  0.00    -0.253 OA
ATOM      5  N   UNL     1      -2.980 -10.296  14.802  0.00  0.00    -0.299 N 
ATOM      7  N   UNL     1      -4.828 -10.120  16.176  0.00  0.00    -0.269 N 
ATOM     25  C   UNL     1      -3.595 -10.750  15.984  0.00  0.00    +0.304 C 
ATOM     34  H   UNL     1      -3.439  -9.550  14.288  0.00  0.00    +0.150 HD
ATOM     35  H   UNL     1      -5.111  -9.447  15.469  0.00  0.00    +0.156 HD
BRANCH   7  27
ATOM     27  C   UNL     1      -5.741 -10.306  17.240  0.00  0.00    +0.038 A 
ATOM     28  C   UNL     1      -7.107 -10.121  17.027  0.00  0.00    +0.069 A 
ATOM     29  C   UNL     1      -5.276 -10.673  18.503  0.00  0.00    +0.023 A 
ATOM     30  C   UNL     1      -8.008 -10.304  18.076  0.00  0.00    +0.122 A 
ATOM     31  C   UNL     1      -6.177 -10.855  19.552  0.00  0.00    +0.005 A 
ATOM     32  C   UNL     1      -7.542 -10.670  19.339  0.00  0.00    +0.046 A 
BRANCH  30   3
ATOM      3  O   UNL     1      -9.341 -10.124  17.868  0.00  0.00    -0.495 OA
ATOM     33  C   UNL     1      -9.813 -10.265  16.528  0.00  0.00    +0.277 C 
ENDBRANCH  30   3
ENDBRANCH   7  27
ENDBRANCH  16   5
ENDBRANCH   9  16
TORSDOF 7
ENDMDL
MODEL 6
REMARK VINA RESULT:      -6.5     24.098     27.997
REMARK  Name = 38027937
REMARK  12 active torsions:
REMARK  status: ('A' for Active; 'I' for Inactive)
REMARK    1  A    between atoms: O_3  and  C_30
REMARK    2  A    between atoms: O_3  and  C_33
REMARK    3  A    between atoms: N_5  and  C_16
REMARK    4  A    between atoms: N_6  and  C_26
REMARK    5  A    between atoms: N_7  and  C_27
REMARK    6  A    between atoms: C_8  and  C_12
REMARK    7  A    between atoms: C_9  and  C_16
REMARK    8  A    between atoms: C_11  and  C_15
REMARK    9  A    between atoms: C_12  and  C_17
REMARK   10  A    between atoms: C_12  and  C_18
REMARK   11  A    between atoms: C_13  and  C_19
REMARK   12  A    between atoms: C_15  and  C_20
REMARK                            x       y       z     vdW  Elec       q    Type
REMARK                         _______ _______ _______ _____ _____    ______ ____
ROOT
ATOM      8  C   UNL     1       8.920   8.526   5.069  0.00  0.00    +0.000 C 
ATOM      9  C   UNL     1       8.631   9.154   6.456  0.00  0.00    +0.032 C 
ATOM     10  C   UNL     1       8.429   7.071   5.028  0.00  0.00    +0.012 C 
ATOM     11  C   UNL     1       9.098   6.199   6.106  0.00  0.00    +0.023 C 
ATOM     13  C   UNL     1       9.092   6.877   7.462  0.00  0.00    -0.073 C 
ATOM     14  C   UNL     1       8.868   8.196   7.600  0.00  0.00    -0.022 C 
ATOM     19  C   UNL     1       9.303   5.995   8.661  0.00  0.00    +0.039 C 
ENDROOT
BRANCH   8  12
ATOM     12  C   UNL     1       8.269   9.325   3.936  0.00  0.00    -0.013 C 
ATOM     17  C   UNL     1       8.284   8.522   2.640  0.00  0.00    +0.007 C 
ATOM     18  C   UNL     1       6.843   9.717   4.313  0.00  0.00    +0.007 C 
ENDBRANCH   8  12
BRANCH  11  15
ATOM     15  C   UNL     1      10.522   5.808   5.696  0.00  0.00    +0.103 C 
BRANCH  15  20
ATOM      1  O   UNL     1       9.965   3.584   5.096  0.00  0.00    -0.276 OA
ATOM      4  N   UNL     1      11.031   4.859   3.474  0.00  0.00    -0.299 N 
ATOM      6  N   UNL     1      11.417   5.435   0.694  0.00  0.00    -0.302 NA
ATOM     20  C   UNL     1      10.478   4.646   4.736  0.00  0.00    +0.216 C 
ATOM     21  C   UNL     1      11.024   3.783   2.484  0.00  0.00    +0.123 C 
ATOM     22  C   UNL     1      11.764   6.059   3.061  0.00  0.00    +0.123 C 
ATOM     23  C   UNL     1      10.588   4.295   1.111  0.00  0.00    +0.103 C 
ATOM     24  C   UNL     1      11.320   6.527   1.674  0.00  0.00    +0.103 C 
ATOM     26  C   UNL     1      11.019   5.900  -0.634  0.00  0.00    +0.105 C 
ENDBRANCH  15  20
ENDBRANCH  11  15
BRANCH   9  16
ATOM     16  C   UNL     1       9.465  10.423   6.672  0.00  0.00    +0.113 C 
BRANCH  16   5
ATOM      2  O   UNL     1      11.891  10.327   5.153  0.00  0.00    -0.253 OA
ATOM      5  N   UNL     1      10.767  10.098   7.162  0.00  0.00    -0.299 N 
ATOM      7  N   UNL     1      13.044   9.721   7.106  0.00  0.00    -0.269 N 
ATOM     25  C   UNL     1      11.919  10.070   6.354  0.00  0.00    +0.304 C 
ATOM     34  H   UNL     1      10.885   9.942   8.158  0.00  0.00    +0.150 HD
ATOM     35  H   UNL     1      12.893   9.537   8.095  0.00  0.00    +0.156 HD
BRANCH   7  27
ATOM     27  C   UNL     1      14.379   9.586   6.659  0.00  0.00    +0.038 A 
ATOM     28  C   UNL     1      15.248  10.676   6.720  0.00  0.00    +0.069 A 
ATOM     29  C   UNL     1      14.826   8.365   6.153  0.00  0.00    +0.023 A 
ATOM     30  C   UNL     1      16.564  10.544   6.278  0.00  0.00    +0.122 A 
ATOM     31  C   UNL     1      16.142   8.234   5.711  0.00  0.00    +0.005 A 
ATOM     32  C   UNL     1      17.011   9.323   5.772  0.00  0.00    +0.046 A 
BRANCH  30   3
ATOM      3  O   UNL     1      17.412  11.607   6.338  0.00  0.00    -0.495 OA
ATOM     33  C   UNL     1      18.683  11.388   6.951  0.00  0.00    +0.277 C 
ENDBRANCH  30   3
ENDBRANCH   7  27
ENDBRANCH  16   5
ENDBRANCH   9  16
TORSDOF 7
ENDMDL
MODEL 7
REMARK VINA RESULT:      -6.5     24.521     27.598
REMARK  Name = 38027937
REMARK  12 active torsions:
REMARK  status: ('A' for Active; 'I' for Inactive)
REMARK    1  A    between atoms: O_3  and  C_30
REMARK    2  A    between atoms: O_3  and  C_33
REMARK    3  A    between atoms: N_5  and  C_16
REMARK    4  A    between atoms: N_6  and  C_26
REMARK    5  A    between atoms: N_7  and  C_27
REMARK    6  A    between atoms: C_8  and  C_12
REMARK    7  A    between atoms: C_9  and  C_16
REMARK    8  A    between atoms: C_11  and  C_15
REMARK    9  A    between atoms: C_12  and  C_17
REMARK   10  A    between atoms: C_12  and  C_18
REMARK   11  A    between atoms: C_13  and  C_19
REMARK   12  A    between atoms: C_15  and  C_20
REMARK                            x       y       z     vdW  Elec       q    Type
REMARK                         _______ _______ _______ _____ _____    ______ ____
ROOT
ATOM      8  C   UNL     1      12.513   4.860   0.675  0.00  0.00    +0.000 C 
ATOM      9  C   UNL     1      13.701   5.070   1.647  0.00  0.00    +0.032 C 
ATOM     10  C   UNL     1      12.780   3.660  -0.247  0.00  0.00    +0.012 C 
ATOM     11  C   UNL     1      14.064   3.838  -1.078  0.00  0.00    +0.023 C 
ATOM     13  C   UNL     1      15.226   4.308  -0.225  0.00  0.00    -0.073 C 
ATOM     14  C   UNL     1      15.045   4.843   0.995  0.00  0.00    -0.022 C 
ATOM     19  C   UNL     1      16.605   4.106  -0.789  0.00  0.00    +0.039 C 
ENDROOT
BRANCH   8  12
ATOM     12  C   UNL     1      11.194   4.654   1.425  0.00  0.00    -0.013 C 
ATOM     17  C   UNL     1      10.067   4.343   0.446  0.00  0.00    +0.007 C 
ATOM     18  C   UNL     1      11.337   3.540   2.457  0.00  0.00    +0.007 C 
ENDBRANCH   8  12
BRANCH  11  15
ATOM     15  C   UNL     1      13.832   4.786  -2.259  0.00  0.00    +0.103 C 
BRANCH  15  20
ATOM      1  O   UNL     1      12.956   3.086  -3.658  0.00  0.00    -0.276 OA
ATOM      4  N   UNL     1      11.672   5.009  -3.435  0.00  0.00    -0.299 N 
ATOM      6  N   UNL     1       9.070   6.206  -3.385  0.00  0.00    -0.302 NA
ATOM     20  C   UNL     1      12.787   4.211  -3.181  0.00  0.00    +0.216 C 
ATOM     21  C   UNL     1      10.612   4.520  -4.316  0.00  0.00    +0.123 C 
ATOM     22  C   UNL     1      11.504   6.396  -2.994  0.00  0.00    +0.123 C 
ATOM     23  C   UNL     1       9.230   4.784  -3.720  0.00  0.00    +0.103 C 
ATOM     24  C   UNL     1      10.102   6.628  -2.427  0.00  0.00    +0.103 C 
ATOM     26  C   UNL     1       7.735   6.460  -2.847  0.00  0.00    +0.105 C 
ENDBRANCH  15  20
ENDBRANCH  11  15
BRANCH   9  16
ATOM     16  C   UNL     1      13.665   6.470   2.270  0.00  0.00    +0.113 C 
BRANCH  16   5
ATOM      2  O   UNL     1      11.188   7.169   3.526  0.00  0.00    -0.253 OA
ATOM      5  N   UNL     1      13.365   6.398   3.665  0.00  0.00    -0.299 N 
ATOM      7  N   UNL     1      12.120   6.585   5.601  0.00  0.00    -0.269 N 
ATOM     25  C   UNL     1      12.120   6.760   4.214  0.00  0.00    +0.304 C 
ATOM     34  H   UNL     1      14.060   6.003   4.290  0.00  0.00    +0.150 HD
ATOM     35  H   UNL     1      12.980   6.237   6.017  0.00  0.00    +0.156 HD
BRANCH   7  27
ATOM     27  C   UNL     1      11.063   6.837   6.506  0.00  0.00    +0.038 A 
ATOM     28  C   UNL     1      10.779   8.146   6.898  0.00  0.00    +0.069 A 
ATOM     29  C   UNL     1      10.307   5.778   7.010  0.00  0.00    +0.023 A 
ATOM     30  C   UNL     1       9.738   8.395   7.792  0.00  0.00    +0.122 A 
ATOM     31  C   UNL     1       9.267   6.029   7.904  0.00  0.00    +0.005 A 
ATOM     32  C   UNL     1       8.982   7.336   8.296  0.00  0.00    +0.046 A 
BRANCH  30   3
ATOM      3  O   UNL     1       9.460   9.672   8.174  0.00  0.00    -0.495 OA
ATOM     33  C   UNL     1       9.458  10.669   7.152  0.00  0.00    +0.277 C 
ENDBRANCH  30   3
ENDBRANCH   7  27
ENDBRANCH  16   5
ENDBRANCH   9  16
TORSDOF 7
ENDMDL
MODEL 8
REMARK VINA RESULT:      -6.4      2.124      7.737
REMARK  Name = 38027937
REMARK  12 active torsions:
REMARK  status: ('A' for Active; 'I' for Inactive)
REMARK    1  A    between atoms: O_3  and  C_30
REMARK    2  A    between atoms: O_3  and  C_33
REMARK    3  A    between atoms: N_5  and  C_16
REMARK    4  A    between atoms: N_6  and  C_26
REMARK    5  A    between atoms: N_7  and  C_27
REMARK    6  A    between atoms: C_8  and  C_12
REMARK    7  A    between atoms: C_9  and  C_16
REMARK    8  A    between atoms: C_11  and  C_15
REMARK    9  A    between atoms: C_12  and  C_17
REMARK   10  A    between atoms: C_12  and  C_18
REMARK   11  A    between atoms: C_13  and  C_19
REMARK   12  A    between atoms: C_15  and  C_20
REMARK                            x       y       z     vdW  Elec       q    Type
REMARK                         _______ _______ _______ _____ _____    ______ ____
ROOT
ATOM      8  C   UNL     1      -9.281 -11.354  15.542  0.00  0.00    +0.000 C 
ATOM      9  C   UNL     1     -10.341 -10.480  14.824  0.00  0.00    +0.032 C 
ATOM     10  C   UNL     1      -9.448 -11.255  17.065  0.00  0.00    +0.012 C 
ATOM     11  C   UNL     1      -9.312  -9.809  17.574  0.00  0.00    +0.023 C 
ATOM     13  C   UNL     1     -10.126  -8.839  16.741  0.00  0.00    -0.073 C 
ATOM     14  C   UNL     1     -10.588  -9.161  15.520  0.00  0.00    -0.022 C 
ATOM     19  C   UNL     1     -10.436  -7.507  17.363  0.00  0.00    +0.039 C 
ENDROOT
BRANCH   8  12
ATOM     12  C   UNL     1      -9.363 -12.819  15.104  0.00  0.00    -0.013 C 
ATOM     17  C   UNL     1      -8.559 -13.704  16.051  0.00  0.00    +0.007 C 
ATOM     18  C   UNL     1     -10.817 -13.275  15.040  0.00  0.00    +0.007 C 
ENDBRANCH   8  12
BRANCH  11  15
ATOM     15  C   UNL     1      -7.842  -9.380  17.634  0.00  0.00    +0.103 C 
BRANCH  15  20
ATOM      1  O   UNL     1      -7.297 -10.630  19.573  0.00  0.00    -0.276 OA
ATOM      4  N   UNL     1      -6.032 -11.060  17.673  0.00  0.00    -0.299 N 
ATOM      6  N   UNL     1      -4.527 -12.943  16.125  0.00  0.00    -0.302 NA
ATOM     20  C   UNL     1      -7.037 -10.409  18.387  0.00  0.00    +0.216 C 
ATOM     21  C   UNL     1      -5.211 -12.075  18.331  0.00  0.00    +0.123 C 
ATOM     22  C   UNL     1      -5.612 -10.729  16.308  0.00  0.00    +0.123 C 
ATOM     23  C   UNL     1      -5.046 -13.313  17.449  0.00  0.00    +0.103 C 
ATOM     24  C   UNL     1      -5.434 -11.992  15.465  0.00  0.00    +0.103 C 
ATOM     26  C   UNL     1      -4.340 -14.133  15.296  0.00  0.00    +0.105 C 
ENDBRANCH  15  20
ENDBRANCH  11  15
BRANCH   9  16
ATOM     16  C   UNL     1      -9.948 -10.221  13.365  0.00  0.00    +0.113 C 
BRANCH  16   5
ATOM      2  O   UNL     1      -7.768 -11.025  11.689  0.00  0.00    -0.253 OA
ATOM      5  N   UNL     1      -8.659  -9.609  13.287  0.00  0.00    -0.299 N 
ATOM      7  N   UNL     1      -6.488  -9.268  12.576  0.00  0.00    -0.269 N 
ATOM     25  C   UNL     1      -7.632 -10.060  12.437  0.00  0.00    +0.304 C 
ATOM     34  H   UNL     1      -8.491  -8.762  13.822  0.00  0.00    +0.150 HD
ATOM     35  H   UNL     1      -6.542  -8.505  13.245  0.00  0.00    +0.156 HD
BRANCH   7  27
ATOM     27  C   UNL     1      -5.254  -9.401  11.899  0.00  0.00    +0.038 A 
ATOM     28  C   UNL     1      -4.263 -10.237  12.415  0.00  0.00    +0.069 A 
ATOM     29  C   UNL     1      -5.026  -8.695  10.718  0.00  0.00    +0.023 A 
ATOM     30  C   UNL     1      -3.045 -10.367  11.748  0.00  0.00    +0.122 A 
ATOM     31  C   UNL     1      -3.807  -8.826  10.052  0.00  0.00    +0.005 A 
ATOM     32  C   UNL     1      -2.817  -9.661  10.567  0.00  0.00    +0.046 A 
BRANCH  30   3
ATOM      3  O   UNL     1      -2.078 -11.183  12.251  0.00  0.00    -0.495 OA
ATOM     33  C   UNL     1      -2.054 -11.365  13.667  0.00  0.00    +0.277 C 
ENDBRANCH  30   3
ENDBRANCH   7  27
ENDBRANCH  16   5
ENDBRANCH   9  16
TORSDOF 7
ENDMDL
MODEL 9
REMARK VINA RESULT:      -6.4      1.993      2.905
REMARK  Name = 38027937
REMARK  12 active torsions:
REMARK  status: ('A' for Active; 'I' for Inactive)
REMARK    1  A    between atoms: O_3  and  C_30
REMARK    2  A    between atoms: O_3  and  C_33
REMARK    3  A    between atoms: N_5  and  C_16
REMARK    4  A    between atoms: N_6  and  C_26
REMARK    5  A    between atoms: N_7  and  C_27
REMARK    6  A    between atoms: C_8  and  C_12
REMARK    7  A    between atoms: C_9  and  C_16
REMARK    8  A    between atoms: C_11  and  C_15
REMARK    9  A    between atoms: C_12  and  C_17
REMARK   10  A    between atoms: C_12  and  C_18
REMARK   11  A    between atoms: C_13  and  C_19
REMARK   12  A    between atoms: C_15  and  C_20
REMARK                            x       y       z     vdW  Elec       q    Type
REMARK                         _______ _______ _______ _____ _____    ______ ____
ROOT
ATOM      8  C   UNL     1      -5.101 -12.112  15.985  0.00  0.00    +0.000 C 
ATOM      9  C   UNL     1      -4.189 -11.637  17.145  0.00  0.00    +0.032 C 
ATOM     10  C   UNL     1      -4.252 -12.576  14.792  0.00  0.00    +0.012 C 
ATOM     11  C   UNL     1      -3.331 -11.462  14.263  0.00  0.00    +0.023 C 
ATOM     13  C   UNL     1      -2.592 -10.761  15.386  0.00  0.00    -0.073 C 
ATOM     14  C   UNL     1      -2.982 -10.862  16.668  0.00  0.00    -0.022 C 
ATOM     19  C   UNL     1      -1.366  -9.979  15.005  0.00  0.00    +0.039 C 
ENDROOT
BRANCH   8  12
ATOM     12  C   UNL     1      -6.040 -13.238  16.425  0.00  0.00    -0.013 C 
ATOM     17  C   UNL     1      -6.996 -13.608  15.295  0.00  0.00    +0.007 C 
ATOM     18  C   UNL     1      -5.236 -14.456  16.873  0.00  0.00    +0.007 C 
ENDBRANCH   8  12
BRANCH  11  15
ATOM     15  C   UNL     1      -4.112 -10.458  13.409  0.00  0.00    +0.103 C 
BRANCH  15  20
ATOM      1  O   UNL     1      -2.428 -10.935  11.812  0.00  0.00    -0.276 OA
ATOM      4  N   UNL     1      -4.206  -9.631  11.084  0.00  0.00    -0.299 N 
ATOM      6  N   UNL     1      -5.919  -8.833   8.931  0.00  0.00    -0.302 NA
ATOM     20  C   UNL     1      -3.499 -10.367  12.034  0.00  0.00    +0.216 C 
ATOM     21  C   UNL     1      -3.681  -9.499   9.726  0.00  0.00    +0.123 C 
ATOM     22  C   UNL     1      -5.409  -8.836  11.350  0.00  0.00    +0.123 C 
ATOM     23  C   UNL     1      -4.776  -9.723   8.683  0.00  0.00    +0.103 C 
ATOM     24  C   UNL     1      -6.471  -9.067  10.274  0.00  0.00    +0.103 C 
ATOM     26  C   UNL     1      -6.950  -9.026   7.912  0.00  0.00    +0.105 C 
ENDBRANCH  15  20
ENDBRANCH  11  15
BRANCH   9  16
ATOM     16  C   UNL     1      -4.973 -10.791  18.154  0.00  0.00    +0.113 C 
BRANCH  16   5
ATOM      2  O   UNL     1      -7.129 -10.748  20.040  0.00  0.00    -0.253 OA
ATOM      5  N   UNL     1      -6.370 -10.809  17.855  0.00  0.00    -0.299 N 
ATOM      7  N   UNL     1      -8.646 -10.813  18.249  0.00  0.00    -0.269 N 
ATOM     25  C   UNL     1      -7.378 -10.787  18.838  0.00  0.00    +0.304 C 
ATOM     34  H   UNL     1      -6.658 -10.770  16.882  0.00  0.00    +0.150 HD
ATOM     35  H   UNL     1      -8.676 -10.847  17.234  0.00  0.00    +0.156 HD
BRANCH   7  27
ATOM     27  C   UNL     1      -9.903 -10.802  18.897  0.00  0.00    +0.038 A 
ATOM     28  C   UNL     1     -10.261 -11.855  19.740  0.00  0.00    +0.069 A 
ATOM     29  C   UNL     1     -10.785  -9.742  18.692  0.00  0.00    +0.023 A 
ATOM     30  C   UNL     1     -11.501 -11.846  20.378  0.00  0.00    +0.122 A 
ATOM     31  C   UNL     1     -12.026  -9.734  19.330  0.00  0.00    +0.005 A 
ATOM     32  C   UNL     1     -12.384 -10.785  20.173  0.00  0.00    +0.046 A 
BRANCH  30   3
ATOM      3  O   UNL     1     -11.851 -12.873  21.200  0.00  0.00    -0.495 OA
ATOM     33  C   UNL     1     -10.847 -13.848  21.483  0.00  0.00    +0.277 C 
ENDBRANCH  30   3
ENDBRANCH   7  27
ENDBRANCH  16   5
ENDBRANCH   9  16
TORSDOF 7
ENDMDL
MODEL 10
REMARK VINA RESULT:      -6.4     27.754     30.965
REMARK  Name = 38027937
REMARK  12 active torsions:
REMARK  status: ('A' for Active; 'I' for Inactive)
REMARK    1  A    between atoms: O_3  and  C_30
REMARK    2  A    between atoms: O_3  and  C_33
REMARK    3  A    between atoms: N_5  and  C_16
REMARK    4  A    between atoms: N_6  and  C_26
REMARK    5  A    between atoms: N_7  and  C_27
REMARK    6  A    between atoms: C_8  and  C_12
REMARK    7  A    between atoms: C_9  and  C_16
REMARK    8  A    between atoms: C_11  and  C_15
REMARK    9  A    between atoms: C_12  and  C_17
REMARK   10  A    between atoms: C_12  and  C_18
REMARK   11  A    between atoms: C_13  and  C_19
REMARK   12  A    between atoms: C_15  and  C_20
REMARK                            x       y       z     vdW  Elec       q    Type
REMARK                         _______ _______ _______ _____ _____    ______ ____
ROOT
ATOM      8  C   UNL     1      12.116  11.691  22.167  0.00  0.00    +0.000 C 
ATOM      9  C   UNL     1      10.875  11.180  22.943  0.00  0.00    +0.032 C 
ATOM     10  C   UNL     1      12.159  11.074  20.761  0.00  0.00    +0.012 C 
ATOM     11  C   UNL     1      12.209   9.536  20.801  0.00  0.00    +0.023 C 
ATOM     13  C   UNL     1      11.183   8.964  21.759  0.00  0.00    -0.073 C 
ATOM     14  C   UNL     1      10.588   9.717  22.701  0.00  0.00    -0.022 C 
ATOM     19  C   UNL     1      10.822   7.516  21.579  0.00  0.00    +0.039 C 
ENDROOT
BRANCH   8  12
ATOM     12  C   UNL     1      12.132  13.219  22.064  0.00  0.00    -0.013 C 
ATOM     17  C   UNL     1      13.255  13.679  21.139  0.00  0.00    +0.007 C 
ATOM     18  C   UNL     1      10.783  13.734  21.574  0.00  0.00    +0.007 C 
ENDBRANCH   8  12
BRANCH  11  15
ATOM     15  C   UNL     1      13.616   9.037  21.143  0.00  0.00    +0.103 C 
BRANCH  15  20
ATOM      1  O   UNL     1      13.441   7.926  19.057  0.00  0.00    -0.276 OA
ATOM      4  N   UNL     1      15.199   7.281  20.430  0.00  0.00    -0.299 N 
ATOM      6  N   UNL     1      17.877   6.286  20.651  0.00  0.00    -0.302 NA
ATOM     20  C   UNL     1      14.070   8.033  20.112  0.00  0.00    +0.216 C 
ATOM     21  C   UNL     1      15.705   6.290  19.481  0.00  0.00    +0.123 C 
ATOM     22  C   UNL     1      15.888   7.289  21.724  0.00  0.00    +0.123 C 
ATOM     23  C   UNL     1      17.224   6.383  19.338  0.00  0.00    +0.103 C 
ATOM     24  C   UNL     1      17.405   7.358  21.540  0.00  0.00    +0.103 C 
ATOM     26  C   UNL     1      19.331   6.342  20.507  0.00  0.00    +0.105 C 
ENDBRANCH  15  20
ENDBRANCH  11  15
BRANCH   9  16
ATOM     16  C   UNL     1      11.025  11.429  24.449  0.00  0.00    +0.113 C 
BRANCH  16   5
ATOM      2  O   UNL     1      12.932  13.027  25.866  0.00  0.00    -0.253 OA
ATOM      5  N   UNL     1      12.313  11.016  24.907  0.00  0.00    -0.299 N 
ATOM      7  N   UNL     1      14.382  11.181  25.919  0.00  0.00    -0.269 N 
ATOM     25  C   UNL     1      13.202  11.859  25.599  0.00  0.00    +0.304 C 
ATOM     34  H   UNL     1      12.581  10.043  24.786  0.00  0.00    +0.150 HD
ATOM     35  H   UNL     1      14.446  10.211  25.620  0.00  0.00    +0.156 HD
BRANCH   7  27
ATOM     27  C   UNL     1      15.511  11.683  26.608  0.00  0.00    +0.038 A 
ATOM     28  C   UNL     1      15.703  11.367  27.953  0.00  0.00    +0.069 A 
ATOM     29  C   UNL     1      16.430  12.496  25.944  0.00  0.00    +0.023 A 
ATOM     30  C   UNL     1      16.815  11.862  28.633  0.00  0.00    +0.122 A 
ATOM     31  C   UNL     1      17.542  12.991  26.625  0.00  0.00    +0.005 A 
ATOM     32  C   UNL     1      17.735  12.675  27.969  0.00  0.00    +0.046 A 
BRANCH  30   3
ATOM      3  O   UNL     1      17.004  11.553  29.946  0.00  0.00    -0.495 OA
ATOM     33  C   UNL     1      18.244  10.940  30.296  0.00  0.00    +0.277 C 
ENDBRANCH  30   3
ENDBRANCH   7  27
ENDBRANCH  16   5
ENDBRANCH   9  16
TORSDOF 7
ENDMDL
