MODEL 1
REMARK VINA RESULT:      -5.9      0.000      0.000
REMARK  Name = 75536934
REMARK  5 active torsions:
REMARK  status: ('A' for Active; 'I' for Inactive)
REMARK    1  A    between atoms: O_2  and  C_9
REMARK    2  A    between atoms: O_2  and  C_17
REMARK    3  A    between atoms: N_3  and  C_11
REMARK    4  A    between atoms: N_4  and  C_18
REMARK    5  A    between atoms: C_11  and  C_14
REMARK                            x       y       z     vdW  Elec       q    Type
REMARK                         _______ _______ _______ _____ _____    ______ ____
ROOT
ATOM      1  O   UNL     1      13.294   8.721  17.537  0.00  0.00    -0.375 OA
ATOM      3  N   UNL     1      12.544   8.172  20.261  0.00  0.00    -0.292 NA
ATOM      8  C   UNL     1      13.377   7.000  20.000  0.00  0.00    +0.131 C 
ATOM      9  C   UNL     1      14.593   7.370  19.141  0.00  0.00    +0.215 C 
ATOM     10  C   UNL     1      11.547   8.453  19.222  0.00  0.00    +0.113 C 
ATOM     12  C   UNL     1      14.289   7.715  17.686  0.00  0.00    +0.205 C 
ATOM     13  C   UNL     1      11.984   8.223  17.776  0.00  0.00    +0.175 C 
ENDROOT
BRANCH   9   2
ATOM      2  O   UNL     1      15.501   6.268  19.165  0.00  0.00    -0.468 OA
BRANCH   2  17
ATOM      6  N   UNL     1      17.729   5.673  19.459  0.00  0.00    -0.219 NA
ATOM      7  N   UNL     1      17.997   7.726  21.351  0.00  0.00    -0.256 NA
ATOM     17  C   UNL     1      16.700   6.479  19.787  0.00  0.00    +0.234 A 
ATOM     19  C   UNL     1      16.832   7.487  20.717  0.00  0.00    +0.177 A 
ATOM     20  C   UNL     1      18.894   5.912  20.092  0.00  0.00    +0.134 A 
ATOM     21  C   UNL     1      19.026   6.920  21.022  0.00  0.00    +0.130 A 
ENDBRANCH   2  17
ENDBRANCH   9   2
BRANCH   3  11
ATOM     11  C   UNL     1      11.892   8.087  21.568  0.00  0.00    +0.122 C 
BRANCH  11  14
ATOM      4  N   UNL     1      11.412  11.159  23.495  0.00  0.00    -0.274 N 
ATOM      5  N   UNL     1      12.665  11.417  23.081  0.00  0.00    -0.180 NA
ATOM     14  C   UNL     1      11.917   9.407  22.293  0.00  0.00    +0.004 A 
ATOM     15  C   UNL     1      10.918   9.967  23.052  0.00  0.00    +0.112 A 
ATOM     16  C   UNL     1      12.968  10.343  22.347  0.00  0.00    +0.139 A 
ATOM     18  C   UNL     1      10.724  12.112  24.333  0.00  0.00    +0.172 C 
ENDBRANCH  11  14
ENDBRANCH   3  11
TORSDOF 4
ENDMDL
MODEL 2
REMARK VINA RESULT:      -5.7      2.010      4.769
REMARK  Name = 75536934
REMARK  5 active torsions:
REMARK  status: ('A' for Active; 'I' for Inactive)
REMARK    1  A    between atoms: O_2  and  C_9
REMARK    2  A    between atoms: O_2  and  C_17
REMARK    3  A    between atoms: N_3  and  C_11
REMARK    4  A    between atoms: N_4  and  C_18
REMARK    5  A    between atoms: C_11  and  C_14
REMARK                            x       y       z     vdW  Elec       q    Type
REMARK                         _______ _______ _______ _____ _____    ______ ____
ROOT
ATOM      1  O   UNL     1      16.103   6.873  20.778  0.00  0.00    -0.375 OA
ATOM      3  N   UNL     1      14.892   9.482  20.884  0.00  0.00    -0.292 NA
ATOM      8  C   UNL     1      14.972   9.314  19.434  0.00  0.00    +0.131 C 
ATOM      9  C   UNL     1      14.669   7.864  19.032  0.00  0.00    +0.215 C 
ATOM     10  C   UNL     1      16.133   9.172  21.602  0.00  0.00    +0.113 C 
ATOM     12  C   UNL     1      15.740   6.842  19.402  0.00  0.00    +0.205 C 
ATOM     13  C   UNL     1      16.940   7.981  21.089  0.00  0.00    +0.175 C 
ENDROOT
BRANCH   9   2
ATOM      2  O   UNL     1      14.480   7.831  17.617  0.00  0.00    -0.468 OA
BRANCH   2  17
ATOM      6  N   UNL     1      13.191   8.916  16.015  0.00  0.00    -0.219 NA
ATOM      7  N   UNL     1      10.880   8.194  17.429  0.00  0.00    -0.256 NA
ATOM     17  C   UNL     1      13.247   8.202  17.156  0.00  0.00    +0.234 A 
ATOM     19  C   UNL     1      12.112   7.848  17.851  0.00  0.00    +0.177 A 
ATOM     20  C   UNL     1      11.959   9.262  15.592  0.00  0.00    +0.134 A 
ATOM     21  C   UNL     1      10.824   8.908  16.288  0.00  0.00    +0.130 A 
ENDBRANCH   2  17
ENDBRANCH   9   2
BRANCH   3  11
ATOM     11  C   UNL     1      14.429  10.823  21.244  0.00  0.00    +0.122 C 
BRANCH  11  14
ATOM      4  N   UNL     1      11.774  11.063  23.749  0.00  0.00    -0.274 N 
ATOM      5  N   UNL     1      11.127  10.246  22.899  0.00  0.00    -0.180 NA
ATOM     14  C   UNL     1      13.212  10.777  22.130  0.00  0.00    +0.004 A 
ATOM     15  C   UNL     1      13.027  11.411  23.334  0.00  0.00    +0.112 A 
ATOM     16  C   UNL     1      12.011  10.075  21.912  0.00  0.00    +0.139 A 
ATOM     18  C   UNL     1      11.128  11.486  24.968  0.00  0.00    +0.172 C 
ENDBRANCH  11  14
ENDBRANCH   3  11
TORSDOF 4
ENDMDL
MODEL 3
REMARK VINA RESULT:      -5.5      2.647      4.803
REMARK  Name = 75536934
REMARK  5 active torsions:
REMARK  status: ('A' for Active; 'I' for Inactive)
REMARK    1  A    between atoms: O_2  and  C_9
REMARK    2  A    between atoms: O_2  and  C_17
REMARK    3  A    between atoms: N_3  and  C_11
REMARK    4  A    between atoms: N_4  and  C_18
REMARK    5  A    between atoms: C_11  and  C_14
REMARK                            x       y       z     vdW  Elec       q    Type
REMARK                         _______ _______ _______ _____ _____    ______ ____
ROOT
ATOM      1  O   UNL     1      12.264   6.741  21.000  0.00  0.00    -0.375 OA
ATOM      3  N   UNL     1      12.560   8.922  19.146  0.00  0.00    -0.292 NA
ATOM      8  C   UNL     1      13.738   9.154  19.980  0.00  0.00    +0.131 C 
ATOM      9  C   UNL     1      14.392   7.828  20.388  0.00  0.00    +0.215 C 
ATOM     10  C   UNL     1      11.318   8.703  19.895  0.00  0.00    +0.113 C 
ATOM     12  C   UNL     1      13.607   6.991  21.395  0.00  0.00    +0.205 C 
ATOM     13  C   UNL     1      11.429   7.879  21.177  0.00  0.00    +0.175 C 
ENDROOT
BRANCH   9   2
ATOM      2  O   UNL     1      15.674   8.122  20.945  0.00  0.00    -0.468 OA
BRANCH   2  17
ATOM      6  N   UNL     1      16.557   6.571  19.456  0.00  0.00    -0.219 NA
ATOM      7  N   UNL     1      18.873   6.423  21.031  0.00  0.00    -0.256 NA
ATOM     17  C   UNL     1      16.701   7.296  20.582  0.00  0.00    +0.234 A 
ATOM     19  C   UNL     1      17.839   7.224  21.356  0.00  0.00    +0.177 A 
ATOM     20  C   UNL     1      17.591   5.770  19.131  0.00  0.00    +0.134 A 
ATOM     21  C   UNL     1      18.729   5.697  19.905  0.00  0.00    +0.130 A 
ENDBRANCH   2  17
ENDBRANCH   9   2
BRANCH   3  11
ATOM     11  C   UNL     1      12.372   9.998  18.172  0.00  0.00    +0.122 C 
BRANCH  11  14
ATOM      4  N   UNL     1      14.751  10.212  15.401  0.00  0.00    -0.274 N 
ATOM      5  N   UNL     1      14.424   8.918  15.239  0.00  0.00    -0.180 NA
ATOM     14  C   UNL     1      13.300   9.855  16.994  0.00  0.00    +0.004 A 
ATOM     15  C   UNL     1      14.106  10.819  16.439  0.00  0.00    +0.112 A 
ATOM     16  C   UNL     1      13.537   8.706  16.216  0.00  0.00    +0.139 A 
ATOM     18  C   UNL     1      15.707  10.826  14.512  0.00  0.00    +0.172 C 
ENDBRANCH  11  14
ENDBRANCH   3  11
TORSDOF 4
ENDMDL
MODEL 4
REMARK VINA RESULT:      -5.5      2.673      4.827
REMARK  Name = 75536934
REMARK  5 active torsions:
REMARK  status: ('A' for Active; 'I' for Inactive)
REMARK    1  A    between atoms: O_2  and  C_9
REMARK    2  A    between atoms: O_2  and  C_17
REMARK    3  A    between atoms: N_3  and  C_11
REMARK    4  A    between atoms: N_4  and  C_18
REMARK    5  A    between atoms: C_11  and  C_14
REMARK                            x       y       z     vdW  Elec       q    Type
REMARK                         _______ _______ _______ _____ _____    ______ ____
ROOT
ATOM      1  O   UNL     1      14.036  11.924  24.927  0.00  0.00    -0.375 OA
ATOM      3  N   UNL     1      12.219  10.959  22.914  0.00  0.00    -0.292 NA
ATOM      8  C   UNL     1      13.464  10.933  22.147  0.00  0.00    +0.131 C 
ATOM      9  C   UNL     1      14.639  10.477  23.022  0.00  0.00    +0.215 C 
ATOM     10  C   UNL     1      11.980  12.211  23.641  0.00  0.00    +0.113 C 
ATOM     12  C   UNL     1      15.091  11.474  24.085  0.00  0.00    +0.205 C 
ATOM     13  C   UNL     1      13.199  12.874  24.280  0.00  0.00    +0.175 C 
ENDROOT
BRANCH   9   2
ATOM      2  O   UNL     1      15.745  10.198  22.162  0.00  0.00    -0.468 OA
BRANCH   2  17
ATOM      6  N   UNL     1      14.753   8.118  21.853  0.00  0.00    -0.219 NA
ATOM      7  N   UNL     1      16.849   7.408  20.131  0.00  0.00    -0.256 NA
ATOM     17  C   UNL     1      15.764   8.963  21.575  0.00  0.00    +0.234 A 
ATOM     19  C   UNL     1      16.795   8.614  20.729  0.00  0.00    +0.177 A 
ATOM     20  C   UNL     1      14.807   6.912  21.255  0.00  0.00    +0.134 A 
ATOM     21  C   UNL     1      15.837   6.563  20.409  0.00  0.00    +0.130 A 
ENDBRANCH   2  17
ENDBRANCH   9   2
BRANCH   3  11
ATOM     11  C   UNL     1      11.064  10.642  22.073  0.00  0.00    +0.122 C 
BRANCH  11  14
ATOM      4  N   UNL     1      11.154   7.063  21.322  0.00  0.00    -0.274 N 
ATOM      5  N   UNL     1      11.328   7.501  20.063  0.00  0.00    -0.180 NA
ATOM     14  C   UNL     1      11.132   9.236  21.536  0.00  0.00    +0.004 A 
ATOM     15  C   UNL     1      11.031   8.062  22.243  0.00  0.00    +0.112 A 
ATOM     16  C   UNL     1      11.313   8.830  20.201  0.00  0.00    +0.139 A 
ATOM     18  C   UNL     1      11.113   5.645  21.588  0.00  0.00    +0.172 C 
ENDBRANCH  11  14
ENDBRANCH   3  11
TORSDOF 4
ENDMDL
MODEL 5
REMARK VINA RESULT:      -5.5      3.229      4.545
REMARK  Name = 75536934
REMARK  5 active torsions:
REMARK  status: ('A' for Active; 'I' for Inactive)
REMARK    1  A    between atoms: O_2  and  C_9
REMARK    2  A    between atoms: O_2  and  C_17
REMARK    3  A    between atoms: N_3  and  C_11
REMARK    4  A    between atoms: N_4  and  C_18
REMARK    5  A    between atoms: C_11  and  C_14
REMARK                            x       y       z     vdW  Elec       q    Type
REMARK                         _______ _______ _______ _____ _____    ______ ____
ROOT
ATOM      1  O   UNL     1      10.545   8.048  20.913  0.00  0.00    -0.375 OA
ATOM      3  N   UNL     1      11.979  10.352  21.871  0.00  0.00    -0.292 NA
ATOM      8  C   UNL     1      13.087   9.614  21.267  0.00  0.00    +0.131 C 
ATOM      9  C   UNL     1      12.647   8.929  19.967  0.00  0.00    +0.215 C 
ATOM     10  C   UNL     1      11.121   9.550  22.750  0.00  0.00    +0.113 C 
ATOM     12  C   UNL     1      11.699   7.745  20.137  0.00  0.00    +0.205 C 
ATOM     13  C   UNL     1      10.835   8.118  22.304  0.00  0.00    +0.175 C 
ENDROOT
BRANCH   9   2
ATOM      2  O   UNL     1      13.819   8.477  19.289  0.00  0.00    -0.468 OA
BRANCH   2  17
ATOM      6  N   UNL     1      14.448  10.212  17.874  0.00  0.00    -0.219 NA
ATOM      7  N   UNL     1      13.929   8.561  15.667  0.00  0.00    -0.256 NA
ATOM     17  C   UNL     1      14.009   8.946  18.018  0.00  0.00    +0.234 A 
ATOM     19  C   UNL     1      13.754   8.135  16.934  0.00  0.00    +0.177 A 
ATOM     20  C   UNL     1      14.623  10.638  16.608  0.00  0.00    +0.134 A 
ATOM     21  C   UNL     1      14.368   9.826  15.524  0.00  0.00    +0.130 A 
ENDBRANCH   2  17
ENDBRANCH   9   2
BRANCH   3  11
ATOM     11  C   UNL     1      12.451  11.541  22.583  0.00  0.00    +0.122 C 
BRANCH  11  14
ATOM      4  N   UNL     1       9.888  14.138  22.323  0.00  0.00    -0.274 N 
ATOM      5  N   UNL     1       9.788  13.937  23.648  0.00  0.00    -0.180 NA
ATOM     14  C   UNL     1      11.370  12.582  22.712  0.00  0.00    +0.004 A 
ATOM     15  C   UNL     1      10.822  13.351  21.715  0.00  0.00    +0.112 A 
ATOM     16  C   UNL     1      10.696  12.985  23.880  0.00  0.00    +0.139 A 
ATOM     18  C   UNL     1       9.047  15.119  21.680  0.00  0.00    +0.172 C 
ENDBRANCH  11  14
ENDBRANCH   3  11
TORSDOF 4
ENDMDL
MODEL 6
REMARK VINA RESULT:      -5.3      1.894      4.728
REMARK  Name = 75536934
REMARK  5 active torsions:
REMARK  status: ('A' for Active; 'I' for Inactive)
REMARK    1  A    between atoms: O_2  and  C_9
REMARK    2  A    between atoms: O_2  and  C_17
REMARK    3  A    between atoms: N_3  and  C_11
REMARK    4  A    between atoms: N_4  and  C_18
REMARK    5  A    between atoms: C_11  and  C_14
REMARK                            x       y       z     vdW  Elec       q    Type
REMARK                         _______ _______ _______ _____ _____    ______ ____
ROOT
ATOM      1  O   UNL     1      18.391   6.645  21.351  0.00  0.00    -0.375 OA
ATOM      3  N   UNL     1      16.652   8.937  21.451  0.00  0.00    -0.292 NA
ATOM      8  C   UNL     1      16.380   8.489  20.087  0.00  0.00    +0.131 C 
ATOM      9  C   UNL     1      16.344   6.957  20.009  0.00  0.00    +0.215 C 
ATOM     10  C   UNL     1      18.077   9.028  21.788  0.00  0.00    +0.113 C 
ATOM     12  C   UNL     1      17.691   6.259  20.174  0.00  0.00    +0.205 C 
ATOM     13  C   UNL     1      18.983   7.933  21.228  0.00  0.00    +0.175 C 
ENDROOT
BRANCH   9   2
ATOM      2  O   UNL     1      15.797   6.593  18.741  0.00  0.00    -0.468 OA
BRANCH   2  17
ATOM      6  N   UNL     1      13.596   6.949  19.399  0.00  0.00    -0.219 NA
ATOM      7  N   UNL     1      13.077   8.141  16.914  0.00  0.00    -0.256 NA
ATOM     17  C   UNL     1      14.549   7.072  18.454  0.00  0.00    +0.234 A 
ATOM     19  C   UNL     1      14.294   7.657  17.233  0.00  0.00    +0.177 A 
ATOM     20  C   UNL     1      12.380   7.433  19.081  0.00  0.00    +0.134 A 
ATOM     21  C   UNL     1      12.125   8.018  17.860  0.00  0.00    +0.130 A 
ENDBRANCH   2  17
ENDBRANCH   9   2
BRANCH   3  11
ATOM     11  C   UNL     1      15.989  10.209  21.740  0.00  0.00    +0.122 C 
BRANCH  11  14
ATOM      4  N   UNL     1      12.396   9.538  21.877  0.00  0.00    -0.274 N 
ATOM      5  N   UNL     1      12.353  10.476  20.915  0.00  0.00    -0.180 NA
ATOM     14  C   UNL     1      14.491  10.099  21.625  0.00  0.00    +0.004 A 
ATOM     15  C   UNL     1      13.653   9.276  22.337  0.00  0.00    +0.112 A 
ATOM     16  C   UNL     1      13.637  10.815  20.765  0.00  0.00    +0.139 A 
ATOM     18  C   UNL     1      11.174   8.914  22.326  0.00  0.00    +0.172 C 
ENDBRANCH  11  14
ENDBRANCH   3  11
TORSDOF 4
ENDMDL
MODEL 7
REMARK VINA RESULT:      -5.3      2.403      6.568
REMARK  Name = 75536934
REMARK  5 active torsions:
REMARK  status: ('A' for Active; 'I' for Inactive)
REMARK    1  A    between atoms: O_2  and  C_9
REMARK    2  A    between atoms: O_2  and  C_17
REMARK    3  A    between atoms: N_3  and  C_11
REMARK    4  A    between atoms: N_4  and  C_18
REMARK    5  A    between atoms: C_11  and  C_14
REMARK                            x       y       z     vdW  Elec       q    Type
REMARK                         _______ _______ _______ _____ _____    ______ ____
ROOT
ATOM      1  O   UNL     1      10.842   8.465  22.913  0.00  0.00    -0.375 OA
ATOM      3  N   UNL     1      12.609   7.490  20.861  0.00  0.00    -0.292 NA
ATOM      8  C   UNL     1      12.211   8.758  20.253  0.00  0.00    +0.131 C 
ATOM      9  C   UNL     1      12.094   9.863  21.312  0.00  0.00    +0.215 C 
ATOM     10  C   UNL     1      11.494   6.685  21.373  0.00  0.00    +0.113 C 
ATOM     12  C   UNL     1      10.913   9.732  22.269  0.00  0.00    +0.205 C 
ATOM     13  C   UNL     1      10.355   7.447  22.047  0.00  0.00    +0.175 C 
ENDROOT
BRANCH   9   2
ATOM      2  O   UNL     1      11.990  11.114  20.633  0.00  0.00    -0.468 OA
BRANCH   2  17
ATOM      6  N   UNL     1      13.223  12.309  22.200  0.00  0.00    -0.219 NA
ATOM      7  N   UNL     1      11.331  14.376  22.069  0.00  0.00    -0.256 NA
ATOM     17  C   UNL     1      12.144  12.238  21.397  0.00  0.00    +0.234 A 
ATOM     19  C   UNL     1      11.214  13.253  21.332  0.00  0.00    +0.177 A 
ATOM     20  C   UNL     1      13.340  13.432  22.937  0.00  0.00    +0.134 A 
ATOM     21  C   UNL     1      12.410  14.447  22.872  0.00  0.00    +0.130 A 
ENDBRANCH   2  17
ENDBRANCH   9   2
BRANCH   3  11
ATOM     11  C   UNL     1      13.424   6.689  19.947  0.00  0.00    +0.122 C 
BRANCH  11  14
ATOM      4  N   UNL     1      16.837   7.633  20.866  0.00  0.00    -0.274 N 
ATOM      5  N   UNL     1      17.151   6.914  19.775  0.00  0.00    -0.180 NA
ATOM     14  C   UNL     1      14.895   6.952  20.133  0.00  0.00    +0.004 A 
ATOM     15  C   UNL     1      15.498   7.686  21.125  0.00  0.00    +0.112 A 
ATOM     16  C   UNL     1      15.961   6.501  19.331  0.00  0.00    +0.139 A 
ATOM     18  C   UNL     1      17.882   8.259  21.638  0.00  0.00    +0.172 C 
ENDBRANCH  11  14
ENDBRANCH   3  11
TORSDOF 4
ENDMDL
MODEL 8
REMARK VINA RESULT:      -5.3      3.075      6.993
REMARK  Name = 75536934
REMARK  5 active torsions:
REMARK  status: ('A' for Active; 'I' for Inactive)
REMARK    1  A    between atoms: O_2  and  C_9
REMARK    2  A    between atoms: O_2  and  C_17
REMARK    3  A    between atoms: N_3  and  C_11
REMARK    4  A    between atoms: N_4  and  C_18
REMARK    5  A    between atoms: C_11  and  C_14
REMARK                            x       y       z     vdW  Elec       q    Type
REMARK                         _______ _______ _______ _____ _____    ______ ____
ROOT
ATOM      1  O   UNL     1      11.123   7.178  22.262  0.00  0.00    -0.375 OA
ATOM      3  N   UNL     1      13.547   8.307  21.198  0.00  0.00    -0.292 NA
ATOM      8  C   UNL     1      12.644   9.437  20.988  0.00  0.00    +0.131 C 
ATOM      9  C   UNL     1      11.665   9.583  22.160  0.00  0.00    +0.215 C 
ATOM     10  C   UNL     1      13.024   7.016  20.737  0.00  0.00    +0.113 C 
ATOM     12  C   UNL     1      10.595   8.499  22.261  0.00  0.00    +0.205 C 
ATOM     13  C   UNL     1      11.535   6.762  20.966  0.00  0.00    +0.175 C 
ENDROOT
BRANCH   9   2
ATOM      2  O   UNL     1      11.017  10.849  22.038  0.00  0.00    -0.468 OA
BRANCH   2  17
ATOM      6  N   UNL     1      10.643  12.914  23.038  0.00  0.00    -0.219 NA
ATOM      7  N   UNL     1      11.086  11.745  25.549  0.00  0.00    -0.256 NA
ATOM     17  C   UNL     1      10.938  11.607  23.174  0.00  0.00    +0.234 A 
ATOM     19  C   UNL     1      11.156  11.032  24.407  0.00  0.00    +0.177 A 
ATOM     20  C   UNL     1      10.573  13.627  24.179  0.00  0.00    +0.134 A 
ATOM     21  C   UNL     1      10.791  13.053  25.413  0.00  0.00    +0.130 A 
ENDBRANCH   2  17
ENDBRANCH   9   2
BRANCH   3  11
ATOM     11  C   UNL     1      14.861   8.553  20.603  0.00  0.00    +0.122 C 
BRANCH  11  14
ATOM      4  N   UNL     1      14.431   9.490  17.093  0.00  0.00    -0.274 N 
ATOM      5  N   UNL     1      14.800  10.701  17.544  0.00  0.00    -0.180 NA
ATOM     14  C   UNL     1      14.749   9.159  19.228  0.00  0.00    +0.004 A 
ATOM     15  C   UNL     1      14.384   8.531  18.062  0.00  0.00    +0.112 A 
ATOM     16  C   UNL     1      14.993  10.492  18.850  0.00  0.00    +0.139 A 
ATOM     18  C   UNL     1      14.129   9.308  15.694  0.00  0.00    +0.172 C 
ENDBRANCH  11  14
ENDBRANCH   3  11
TORSDOF 4
ENDMDL
MODEL 9
REMARK VINA RESULT:      -5.2     26.375     27.806
REMARK  Name = 75536934
REMARK  5 active torsions:
REMARK  status: ('A' for Active; 'I' for Inactive)
REMARK    1  A    between atoms: O_2  and  C_9
REMARK    2  A    between atoms: O_2  and  C_17
REMARK    3  A    between atoms: N_3  and  C_11
REMARK    4  A    between atoms: N_4  and  C_18
REMARK    5  A    between atoms: C_11  and  C_14
REMARK                            x       y       z     vdW  Elec       q    Type
REMARK                         _______ _______ _______ _____ _____    ______ ____
ROOT
ATOM      1  O   UNL     1      -3.031 -13.226  12.377  0.00  0.00    -0.375 OA
ATOM      3  N   UNL     1      -2.860 -11.358  14.559  0.00  0.00    -0.292 NA
ATOM      8  C   UNL     1      -2.555 -10.458  13.448  0.00  0.00    +0.131 C 
ATOM      9  C   UNL     1      -3.409 -10.793  12.219  0.00  0.00    +0.215 C 
ATOM     10  C   UNL     1      -2.101 -12.613  14.551  0.00  0.00    +0.113 C 
ATOM     12  C   UNL     1      -3.056 -12.098  11.510  0.00  0.00    +0.205 C 
ATOM     13  C   UNL     1      -1.862 -13.257  13.186  0.00  0.00    +0.175 C 
ENDROOT
BRANCH   9   2
ATOM      2  O   UNL     1      -3.278  -9.720  11.286  0.00  0.00    -0.468 OA
BRANCH   2  17
ATOM      6  N   UNL     1      -5.514  -9.110  11.110  0.00  0.00    -0.219 NA
ATOM      7  N   UNL     1      -5.317  -9.305   8.319  0.00  0.00    -0.256 NA
ATOM     17  C   UNL     1      -4.365  -9.459  10.499  0.00  0.00    +0.234 A 
ATOM     19  C   UNL     1      -4.268  -9.555   9.128  0.00  0.00    +0.177 A 
ATOM     20  C   UNL     1      -6.563  -8.860  10.301  0.00  0.00    +0.134 A 
ATOM     21  C   UNL     1      -6.466  -8.956   8.930  0.00  0.00    +0.130 A 
ENDBRANCH   2  17
ENDBRANCH   9   2
BRANCH   3  11
ATOM     11  C   UNL     1      -2.701 -10.688  15.851  0.00  0.00    +0.122 C 
BRANCH  11  14
ATOM      4  N   UNL     1      -6.019 -10.209  17.316  0.00  0.00    -0.274 N 
ATOM      5  N   UNL     1      -5.559 -11.081  18.229  0.00  0.00    -0.180 NA
ATOM     14  C   UNL     1      -3.995 -10.646  16.622  0.00  0.00    +0.004 A 
ATOM     15  C   UNL     1      -5.121  -9.915  16.331  0.00  0.00    +0.112 A 
ATOM     16  C   UNL     1      -4.321 -11.345  17.799  0.00  0.00    +0.139 A 
ATOM     18  C   UNL     1      -7.356  -9.680  17.440  0.00  0.00    +0.172 C 
ENDBRANCH  11  14
ENDBRANCH   3  11
TORSDOF 4
ENDMDL
MODEL 10
REMARK VINA RESULT:      -5.0     27.036     28.187
REMARK  Name = 75536934
REMARK  5 active torsions:
REMARK  status: ('A' for Active; 'I' for Inactive)
REMARK    1  A    between atoms: O_2  and  C_9
REMARK    2  A    between atoms: O_2  and  C_17
REMARK    3  A    between atoms: N_3  and  C_11
REMARK    4  A    between atoms: N_4  and  C_18
REMARK    5  A    between atoms: C_11  and  C_14
REMARK                            x       y       z     vdW  Elec       q    Type
REMARK                         _______ _______ _______ _____ _____    ______ ____
ROOT
ATOM      1  O   UNL     1      -5.053 -13.270  13.964  0.00  0.00    -0.375 OA
ATOM      3  N   UNL     1      -4.666 -11.192  15.918  0.00  0.00    -0.292 NA
ATOM      8  C   UNL     1      -3.740 -10.728  14.887  0.00  0.00    +0.131 C 
ATOM      9  C   UNL     1      -4.315 -10.965  13.484  0.00  0.00    +0.215 C 
ATOM     10  C   UNL     1      -4.534 -12.613  16.259  0.00  0.00    +0.113 C 
ATOM     12  C   UNL     1      -4.380 -12.423  13.039  0.00  0.00    +0.205 C 
ATOM     13  C   UNL     1      -4.253 -13.570  15.101  0.00  0.00    +0.175 C 
ENDROOT
BRANCH   9   2
ATOM      2  O   UNL     1      -3.513 -10.241  12.551  0.00  0.00    -0.468 OA
BRANCH   2  17
ATOM      6  N   UNL     1      -3.491  -9.661  10.300  0.00  0.00    -0.219 NA
ATOM      7  N   UNL     1      -6.127  -8.737  10.543  0.00  0.00    -0.256 NA
ATOM     17  C   UNL     1      -4.160  -9.715  11.468  0.00  0.00    +0.234 A 
ATOM     19  C   UNL     1      -5.456  -9.261  11.587  0.00  0.00    +0.177 A 
ATOM     20  C   UNL     1      -4.162  -9.137   9.256  0.00  0.00    +0.134 A 
ATOM     21  C   UNL     1      -5.457  -8.683   9.375  0.00  0.00    +0.130 A 
ENDBRANCH   2  17
ENDBRANCH   9   2
BRANCH   3  11
ATOM     11  C   UNL     1      -4.571 -10.378  17.131  0.00  0.00    +0.122 C 
BRANCH  11  14
ATOM      4  N   UNL     1      -7.662 -10.911  19.014  0.00  0.00    -0.274 N 
ATOM      5  N   UNL     1      -6.809 -11.271  19.989  0.00  0.00    -0.180 NA
ATOM     14  C   UNL     1      -5.700 -10.664  18.086  0.00  0.00    +0.004 A 
ATOM     15  C   UNL     1      -7.048 -10.538  17.854  0.00  0.00    +0.112 A 
ATOM     16  C   UNL     1      -5.612 -11.118  19.415  0.00  0.00    +0.139 A 
ATOM     18  C   UNL     1      -9.083 -10.943  19.258  0.00  0.00    +0.172 C 
ENDBRANCH  11  14
ENDBRANCH   3  11
TORSDOF 4
ENDMDL
