MODEL 1
REMARK VINA RESULT:      -7.9      0.000      0.000
REMARK  Name = 75536091
REMARK  6 active torsions:
REMARK  status: ('A' for Active; 'I' for Inactive)
REMARK    1  A    between atoms: O_2  and  C_12
REMARK    2  A    between atoms: O_3  and  C_14
REMARK    3  A    between atoms: N_6  and  C_11
REMARK    4  A    between atoms: N_8  and  C_20
REMARK    5  A    between atoms: C_10  and  C_15
REMARK    6  A    between atoms: C_18  and  C_21
REMARK                            x       y       z     vdW  Elec       q    Type
REMARK                         _______ _______ _______ _____ _____    ______ ____
ROOT
ATOM     10  C   UNL     1      13.956   9.072  19.143  0.00  0.00    +0.046 C 
ATOM     11  C   UNL     1      12.793   8.894  20.145  0.00  0.00    +0.112 C 
ATOM     12  C   UNL     1      11.554   8.875  19.251  0.00  0.00    +0.164 C 
ATOM     13  C   UNL     1      13.423   8.561  17.780  0.00  0.00    +0.044 C 
ATOM     14  C   UNL     1      12.007   8.055  18.048  0.00  0.00    +0.145 C 
ENDROOT
BRANCH  10  15
ATOM      7  N   UNL     1      17.311   8.550  20.836  0.00  0.00    -0.240 NA
ATOM     15  C   UNL     1      15.238   8.407  19.601  0.00  0.00    -0.024 A 
ATOM     16  C   UNL     1      15.538   7.099  19.233  0.00  0.00    +0.009 A 
ATOM     17  C   UNL     1      16.150   9.083  20.395  0.00  0.00    +0.116 A 
ATOM     19  C   UNL     1      16.724   6.517  19.667  0.00  0.00    +0.044 A 
ATOM     20  C   UNL     1      17.568   7.277  20.459  0.00  0.00    +0.121 A 
BRANCH  20   8
ATOM      5  O   UNL     1      20.991   5.262  21.841  0.00  0.00    -0.377 OA
ATOM      8  N   UNL     1      18.758   6.677  20.887  0.00  0.00    -0.311 N 
ATOM     22  C   UNL     1      19.168   5.418  20.249  0.00  0.00    +0.134 C 
ATOM     23  C   UNL     1      19.208   6.852  22.272  0.00  0.00    +0.134 C 
ATOM     24  C   UNL     1      20.662   5.201  20.454  0.00  0.00    +0.178 C 
ATOM     25  C   UNL     1      20.701   6.557  22.369  0.00  0.00    +0.178 C 
ENDBRANCH  20   8
ENDBRANCH  10  15
BRANCH  11   6
ATOM      4  O   UNL     1      11.412   8.865  22.662  0.00  0.00    -0.268 OA
ATOM      6  N   UNL     1      12.743   9.962  21.111  0.00  0.00    -0.304 N 
ATOM     18  C   UNL     1      12.045   9.856  22.307  0.00  0.00    +0.270 C 
ATOM     32  H   UNL     1      13.268  10.811  20.923  0.00  0.00    +0.149 HD
BRANCH  18  21
ATOM      1  S   UNL     1      13.467  12.035  23.277  0.00  0.00    -0.063 S 
ATOM      9  N   UNL     1      11.046  11.422  23.920  0.00  0.00    -0.234 NA
ATOM     21  C   UNL     1      12.069  11.055  23.184  0.00  0.00    +0.164 A 
ATOM     26  C   UNL     1      12.660  13.061  24.403  0.00  0.00    +0.040 A 
ATOM     27  C   UNL     1      11.370  12.572  24.625  0.00  0.00    +0.079 A 
ATOM     28  C   UNL     1      13.134  14.217  25.044  0.00  0.00    +0.017 A 
ATOM     29  C   UNL     1      10.526  13.265  25.520  0.00  0.00    +0.029 A 
ATOM     30  C   UNL     1      12.279  14.884  25.925  0.00  0.00    +0.001 A 
ATOM     31  C   UNL     1      10.992  14.416  26.161  0.00  0.00    +0.002 A 
ENDBRANCH  18  21
ENDBRANCH  11   6
BRANCH  12   2
ATOM      2  O   UNL     1      10.441   8.277  19.888  0.00  0.00    -0.387 OA
ATOM     33  H   UNL     1      10.759   7.872  20.713  0.00  0.00    +0.210 HD
ENDBRANCH  12   2
BRANCH  14   3
ATOM      3  O   UNL     1      12.071   6.670  18.372  0.00  0.00    -0.389 OA
ATOM     34  H   UNL     1      13.008   6.407  18.349  0.00  0.00    +0.210 HD
ENDBRANCH  14   3
TORSDOF 6
ENDMDL
MODEL 2
REMARK VINA RESULT:      -7.0     27.328     30.574
REMARK  Name = 75536091
REMARK  6 active torsions:
REMARK  status: ('A' for Active; 'I' for Inactive)
REMARK    1  A    between atoms: O_2  and  C_12
REMARK    2  A    between atoms: O_3  and  C_14
REMARK    3  A    between atoms: N_6  and  C_11
REMARK    4  A    between atoms: N_8  and  C_20
REMARK    5  A    between atoms: C_10  and  C_15
REMARK    6  A    between atoms: C_18  and  C_21
REMARK                            x       y       z     vdW  Elec       q    Type
REMARK                         _______ _______ _______ _____ _____    ______ ____
ROOT
ATOM     10  C   UNL     1     -16.846   4.213  24.139  0.00  0.00    +0.046 C 
ATOM     11  C   UNL     1     -16.204   2.956  24.770  0.00  0.00    +0.112 C 
ATOM     12  C   UNL     1     -17.337   1.930  24.750  0.00  0.00    +0.164 C 
ATOM     13  C   UNL     1     -18.033   3.698  23.284  0.00  0.00    +0.044 C 
ATOM     14  C   UNL     1     -18.002   2.175  23.400  0.00  0.00    +0.145 C 
ENDROOT
BRANCH  10  15
ATOM      7  N   UNL     1     -15.224   7.239  22.526  0.00  0.00    -0.240 NA
ATOM     15  C   UNL     1     -15.852   5.066  23.378  0.00  0.00    -0.024 A 
ATOM     16  C   UNL     1     -14.697   4.511  22.838  0.00  0.00    +0.009 A 
ATOM     17  C   UNL     1     -16.068   6.422  23.196  0.00  0.00    +0.116 A 
ATOM     19  C   UNL     1     -13.805   5.320  22.142  0.00  0.00    +0.044 A 
ATOM     20  C   UNL     1     -14.112   6.664  22.015  0.00  0.00    +0.121 A 
BRANCH  20   8
ATOM      5  O   UNL     1     -11.208   9.037  20.113  0.00  0.00    -0.377 OA
ATOM      8  N   UNL     1     -13.205   7.465  21.312  0.00  0.00    -0.311 N 
ATOM     22  C   UNL     1     -11.957   6.848  20.839  0.00  0.00    +0.134 C 
ATOM     23  C   UNL     1     -13.122   8.901  21.598  0.00  0.00    +0.134 C 
ATOM     24  C   UNL     1     -11.371   7.680  19.704  0.00  0.00    +0.178 C 
ATOM     25  C   UNL     1     -12.473   9.624  20.423  0.00  0.00    +0.178 C 
ENDBRANCH  20   8
ENDBRANCH  10  15
BRANCH  11   6
ATOM      4  O   UNL     1     -17.810   3.258  27.131  0.00  0.00    -0.268 OA
ATOM      6  N   UNL     1     -15.729   3.205  26.107  0.00  0.00    -0.304 N 
ATOM     18  C   UNL     1     -16.585   3.338  27.192  0.00  0.00    +0.270 C 
ATOM     32  H   UNL     1     -14.726   3.251  26.265  0.00  0.00    +0.149 HD
BRANCH  18  21
ATOM      1  S   UNL     1     -16.464   4.932  29.463  0.00  0.00    -0.063 S 
ATOM      9  N   UNL     1     -14.957   2.895  28.982  0.00  0.00    -0.234 NA
ATOM     21  C   UNL     1     -15.940   3.619  28.501  0.00  0.00    +0.164 A 
ATOM     26  C   UNL     1     -15.281   4.522  30.648  0.00  0.00    +0.040 A 
ATOM     27  C   UNL     1     -14.568   3.401  30.214  0.00  0.00    +0.079 A 
ATOM     28  C   UNL     1     -15.004   5.147  31.874  0.00  0.00    +0.017 A 
ATOM     29  C   UNL     1     -13.542   2.888  31.037  0.00  0.00    +0.029 A 
ATOM     30  C   UNL     1     -13.983   4.620  32.671  0.00  0.00    +0.001 A 
ATOM     31  C   UNL     1     -13.261   3.506  32.260  0.00  0.00    +0.002 A 
ENDBRANCH  18  21
ENDBRANCH  11   6
BRANCH  12   2
ATOM      2  O   UNL     1     -16.860   0.602  24.851  0.00  0.00    -0.387 OA
ATOM     33  H   UNL     1     -16.653   0.437  25.786  0.00  0.00    +0.210 HD
ENDBRANCH  12   2
BRANCH  14   3
ATOM      3  O   UNL     1     -17.207   1.654  22.339  0.00  0.00    -0.389 OA
ATOM     34  H   UNL     1     -16.292   1.948  22.486  0.00  0.00    +0.210 HD
ENDBRANCH  14   3
TORSDOF 6
ENDMDL
MODEL 3
REMARK VINA RESULT:      -7.0      3.948      8.786
REMARK  Name = 75536091
REMARK  6 active torsions:
REMARK  status: ('A' for Active; 'I' for Inactive)
REMARK    1  A    between atoms: O_2  and  C_12
REMARK    2  A    between atoms: O_3  and  C_14
REMARK    3  A    between atoms: N_6  and  C_11
REMARK    4  A    between atoms: N_8  and  C_20
REMARK    5  A    between atoms: C_10  and  C_15
REMARK    6  A    between atoms: C_18  and  C_21
REMARK                            x       y       z     vdW  Elec       q    Type
REMARK                         _______ _______ _______ _____ _____    ______ ____
ROOT
ATOM     10  C   UNL     1      13.657   8.815  20.558  0.00  0.00    +0.046 C 
ATOM     11  C   UNL     1      13.048   8.763  19.137  0.00  0.00    +0.112 C 
ATOM     12  C   UNL     1      13.058   7.272  18.801  0.00  0.00    +0.164 C 
ATOM     13  C   UNL     1      13.427   7.408  21.168  0.00  0.00    +0.044 C 
ATOM     14  C   UNL     1      12.651   6.618  20.117  0.00  0.00    +0.145 C 
ENDROOT
BRANCH  10  15
ATOM      7  N   UNL     1      13.541  11.873  22.799  0.00  0.00    -0.240 NA
ATOM     15  C   UNL     1      13.111   9.955  21.393  0.00  0.00    -0.024 A 
ATOM     16  C   UNL     1      11.741  10.144  21.540  0.00  0.00    +0.009 A 
ATOM     17  C   UNL     1      13.961  10.839  22.038  0.00  0.00    +0.116 A 
ATOM     19  C   UNL     1      11.270  11.198  22.316  0.00  0.00    +0.044 A 
ATOM     20  C   UNL     1      12.203  12.026  22.918  0.00  0.00    +0.121 A 
BRANCH  20   8
ATOM      5  O   UNL     1      10.499  15.188  25.106  0.00  0.00    -0.377 OA
ATOM      8  N   UNL     1      11.714  13.082  23.696  0.00  0.00    -0.311 N 
ATOM     22  C   UNL     1      10.557  12.824  24.566  0.00  0.00    +0.134 C 
ATOM     23  C   UNL     1      11.841  14.463  23.218  0.00  0.00    +0.134 C 
ATOM     24  C   UNL     1      10.498  13.876  25.668  0.00  0.00    +0.178 C 
ATOM     25  C   UNL     1      11.713  15.428  24.392  0.00  0.00    +0.178 C 
ENDBRANCH  20   8
ENDBRANCH  10  15
BRANCH  11   6
ATOM      4  O   UNL     1      12.183   9.654  16.549  0.00  0.00    -0.268 OA
ATOM      6  N   UNL     1      13.816   9.532  18.192  0.00  0.00    -0.304 N 
ATOM     18  C   UNL     1      13.311   9.919  16.958  0.00  0.00    +0.270 C 
ATOM     32  H   UNL     1      14.751   9.831  18.455  0.00  0.00    +0.149 HD
BRANCH  18  21
ATOM      1  S   UNL     1      15.366  11.777  16.764  0.00  0.00    -0.063 S 
ATOM      9  N   UNL     1      14.243  10.575  14.778  0.00  0.00    -0.234 NA
ATOM     21  C   UNL     1      14.237  10.686  16.085  0.00  0.00    +0.164 A 
ATOM     26  C   UNL     1      15.936  12.156  15.182  0.00  0.00    +0.040 A 
ATOM     27  C   UNL     1      15.213  11.412  14.245  0.00  0.00    +0.079 A 
ATOM     28  C   UNL     1      16.951  13.046  14.797  0.00  0.00    +0.017 A 
ATOM     29  C   UNL     1      15.517  11.567  12.875  0.00  0.00    +0.029 A 
ATOM     30  C   UNL     1      17.232  13.181  13.435  0.00  0.00    +0.001 A 
ATOM     31  C   UNL     1      16.526  12.452  12.485  0.00  0.00    +0.002 A 
ENDBRANCH  18  21
ENDBRANCH  11   6
BRANCH  12   2
ATOM      2  O   UNL     1      12.149   6.949  17.767  0.00  0.00    -0.387 OA
ATOM     33  H   UNL     1      11.705   6.121  18.016  0.00  0.00    +0.210 HD
ENDBRANCH  12   2
BRANCH  14   3
ATOM      3  O   UNL     1      11.257   6.784  20.359  0.00  0.00    -0.389 OA
ATOM     34  H   UNL     1      10.806   5.985  20.034  0.00  0.00    +0.210 HD
ENDBRANCH  14   3
TORSDOF 6
ENDMDL
MODEL 4
REMARK VINA RESULT:      -6.8     27.990     31.563
REMARK  Name = 75536091
REMARK  6 active torsions:
REMARK  status: ('A' for Active; 'I' for Inactive)
REMARK    1  A    between atoms: O_2  and  C_12
REMARK    2  A    between atoms: O_3  and  C_14
REMARK    3  A    between atoms: N_6  and  C_11
REMARK    4  A    between atoms: N_8  and  C_20
REMARK    5  A    between atoms: C_10  and  C_15
REMARK    6  A    between atoms: C_18  and  C_21
REMARK                            x       y       z     vdW  Elec       q    Type
REMARK                         _______ _______ _______ _____ _____    ______ ____
ROOT
ATOM     10  C   UNL     1      -9.530 -10.093  18.893  0.00  0.00    +0.046 C 
ATOM     11  C   UNL     1      -8.930 -11.342  18.209  0.00  0.00    +0.112 C 
ATOM     12  C   UNL     1      -8.918 -12.387  19.324  0.00  0.00    +0.164 C 
ATOM     13  C   UNL     1     -10.348 -10.623  20.100  0.00  0.00    +0.044 C 
ATOM     14  C   UNL     1     -10.243 -12.146  20.039  0.00  0.00    +0.145 C 
ENDROOT
BRANCH  10  15
ATOM      7  N   UNL     1     -10.348  -7.385  16.366  0.00  0.00    -0.240 NA
ATOM     15  C   UNL     1     -10.319  -9.218  17.941  0.00  0.00    -0.024 A 
ATOM     16  C   UNL     1     -11.684  -9.408  17.757  0.00  0.00    +0.009 A 
ATOM     17  C   UNL     1      -9.703  -8.202  17.228  0.00  0.00    +0.116 A 
ATOM     19  C   UNL     1     -12.381  -8.587  16.878  0.00  0.00    +0.044 A 
ATOM     20  C   UNL     1     -11.674  -7.600  16.212  0.00  0.00    +0.121 A 
BRANCH  20   8
ATOM      5  O   UNL     1     -13.806  -4.936  13.755  0.00  0.00    -0.377 OA
ATOM      8  N   UNL     1     -12.389  -6.782  15.332  0.00  0.00    -0.311 N 
ATOM     22  C   UNL     1     -11.705  -5.612  14.760  0.00  0.00    +0.134 C 
ATOM     23  C   UNL     1     -13.843  -6.646  15.476  0.00  0.00    +0.134 C 
ATOM     24  C   UNL     1     -12.422  -5.166  13.492  0.00  0.00    +0.178 C 
ATOM     25  C   UNL     1     -14.446  -6.144  14.169  0.00  0.00    +0.178 C 
ENDBRANCH  20   8
ENDBRANCH  10  15
BRANCH  11   6
ATOM      4  O   UNL     1      -7.633 -12.751  16.070  0.00  0.00    -0.268 OA
ATOM      6  N   UNL     1      -7.608 -11.093  17.692  0.00  0.00    -0.304 N 
ATOM     18  C   UNL     1      -7.062 -11.830  16.650  0.00  0.00    +0.270 C 
ATOM     32  H   UNL     1      -7.071 -10.326  18.085  0.00  0.00    +0.149 HD
BRANCH  18  21
ATOM      1  S   UNL     1      -4.443 -11.326  17.424  0.00  0.00    -0.063 S 
ATOM      9  N   UNL     1      -5.331 -11.240  15.004  0.00  0.00    -0.234 NA
ATOM     21  C   UNL     1      -5.678 -11.467  16.250  0.00  0.00    +0.164 A 
ATOM     26  C   UNL     1      -3.320 -10.922  16.180  0.00  0.00    +0.040 A 
ATOM     27  C   UNL     1      -3.981 -10.926  14.948  0.00  0.00    +0.079 A 
ATOM     28  C   UNL     1      -1.952 -10.624  16.286  0.00  0.00    +0.017 A 
ATOM     29  C   UNL     1      -3.246 -10.620  13.783  0.00  0.00    +0.029 A 
ATOM     30  C   UNL     1      -1.247 -10.324  15.118  0.00  0.00    +0.001 A 
ATOM     31  C   UNL     1      -1.883 -10.321  13.882  0.00  0.00    +0.002 A 
ENDBRANCH  18  21
ENDBRANCH  11   6
BRANCH  12   2
ATOM      2  O   UNL     1      -8.842 -13.708  18.821  0.00  0.00    -0.387 OA
ATOM     33  H   UNL     1      -8.384 -13.669  17.965  0.00  0.00    +0.210 HD
ENDBRANCH  12   2
BRANCH  14   3
ATOM      3  O   UNL     1     -11.335 -12.647  19.272  0.00  0.00    -0.389 OA
ATOM     34  H   UNL     1     -12.015 -11.952  19.243  0.00  0.00    +0.210 HD
ENDBRANCH  14   3
TORSDOF 6
ENDMDL
MODEL 5
REMARK VINA RESULT:      -6.7      4.309     10.415
REMARK  Name = 75536091
REMARK  6 active torsions:
REMARK  status: ('A' for Active; 'I' for Inactive)
REMARK    1  A    between atoms: O_2  and  C_12
REMARK    2  A    between atoms: O_3  and  C_14
REMARK    3  A    between atoms: N_6  and  C_11
REMARK    4  A    between atoms: N_8  and  C_20
REMARK    5  A    between atoms: C_10  and  C_15
REMARK    6  A    between atoms: C_18  and  C_21
REMARK                            x       y       z     vdW  Elec       q    Type
REMARK                         _______ _______ _______ _____ _____    ______ ____
ROOT
ATOM     10  C   UNL     1      19.483   9.686  21.704  0.00  0.00    +0.046 C 
ATOM     11  C   UNL     1      20.193   8.896  22.827  0.00  0.00    +0.112 C 
ATOM     12  C   UNL     1      21.056   9.954  23.514  0.00  0.00    +0.164 C 
ATOM     13  C   UNL     1      19.494  11.169  22.156  0.00  0.00    +0.044 C 
ATOM     14  C   UNL     1      20.149  11.180  23.536  0.00  0.00    +0.145 C 
ENDROOT
BRANCH  10  15
ATOM      7  N   UNL     1      15.713   9.478  21.337  0.00  0.00    -0.240 NA
ATOM     15  C   UNL     1      18.107   9.143  21.378  0.00  0.00    -0.024 A 
ATOM     16  C   UNL     1      17.945   7.868  20.848  0.00  0.00    +0.009 A 
ATOM     17  C   UNL     1      16.969   9.902  21.602  0.00  0.00    +0.116 A 
ATOM     19  C   UNL     1      16.669   7.397  20.562  0.00  0.00    +0.044 A 
ATOM     20  C   UNL     1      15.596   8.234  20.822  0.00  0.00    +0.121 A 
BRANCH  20   8
ATOM      5  O   UNL     1      11.671   7.031  19.911  0.00  0.00    -0.377 OA
ATOM      8  N   UNL     1      14.317   7.746  20.529  0.00  0.00    -0.311 N 
ATOM     22  C   UNL     1      13.789   7.954  19.173  0.00  0.00    +0.134 C 
ATOM     23  C   UNL     1      13.306   7.664  21.589  0.00  0.00    +0.134 C 
ATOM     24  C   UNL     1      12.673   6.953  18.898  0.00  0.00    +0.178 C 
ATOM     25  C   UNL     1      12.214   6.679  21.184  0.00  0.00    +0.178 C 
ENDBRANCH  20   8
ENDBRANCH  10  15
BRANCH  11   6
ATOM      4  O   UNL     1      20.293   6.212  23.839  0.00  0.00    -0.268 OA
ATOM      6  N   UNL     1      20.985   7.811  22.308  0.00  0.00    -0.304 N 
ATOM     18  C   UNL     1      20.968   6.540  22.867  0.00  0.00    +0.270 C 
ATOM     32  H   UNL     1      21.551   7.976  21.480  0.00  0.00    +0.149 HD
BRANCH  18  21
ATOM      1  S   UNL     1      22.801   5.953  20.865  0.00  0.00    -0.063 S 
ATOM      9  N   UNL     1      21.979   4.306  22.671  0.00  0.00    -0.234 NA
ATOM     21  C   UNL     1      21.862   5.537  22.231  0.00  0.00    +0.164 A 
ATOM     26  C   UNL     1      23.441   4.352  20.830  0.00  0.00    +0.040 A 
ATOM     27  C   UNL     1      22.881   3.613  21.876  0.00  0.00    +0.079 A 
ATOM     28  C   UNL     1      24.370   3.790  19.941  0.00  0.00    +0.017 A 
ATOM     29  C   UNL     1      23.267   2.265  22.037  0.00  0.00    +0.029 A 
ATOM     30  C   UNL     1      24.736   2.453  20.121  0.00  0.00    +0.001 A 
ATOM     31  C   UNL     1      24.193   1.699  21.155  0.00  0.00    +0.002 A 
ENDBRANCH  18  21
ENDBRANCH  11   6
BRANCH  12   2
ATOM      2  O   UNL     1      21.431   9.574  24.824  0.00  0.00    -0.387 OA
ATOM     33  H   UNL     1      20.617   9.479  25.346  0.00  0.00    +0.210 HD
ENDBRANCH  12   2
BRANCH  14   3
ATOM      3  O   UNL     1      19.132  11.044  24.524  0.00  0.00    -0.389 OA
ATOM     34  H   UNL     1      18.605  11.861  24.515  0.00  0.00    +0.210 HD
ENDBRANCH  14   3
TORSDOF 6
ENDMDL
MODEL 6
REMARK VINA RESULT:      -6.7     15.460     18.643
REMARK  Name = 75536091
REMARK  6 active torsions:
REMARK  status: ('A' for Active; 'I' for Inactive)
REMARK    1  A    between atoms: O_2  and  C_12
REMARK    2  A    between atoms: O_3  and  C_14
REMARK    3  A    between atoms: N_6  and  C_11
REMARK    4  A    between atoms: N_8  and  C_20
REMARK    5  A    between atoms: C_10  and  C_15
REMARK    6  A    between atoms: C_18  and  C_21
REMARK                            x       y       z     vdW  Elec       q    Type
REMARK                         _______ _______ _______ _____ _____    ______ ____
ROOT
ATOM     10  C   UNL     1      10.059   6.318   5.172  0.00  0.00    +0.046 C 
ATOM     11  C   UNL     1      11.284   6.236   6.112  0.00  0.00    +0.112 C 
ATOM     12  C   UNL     1      10.662   5.987   7.485  0.00  0.00    +0.164 C 
ATOM     13  C   UNL     1       8.921   5.551   5.894  0.00  0.00    +0.044 C 
ATOM     14  C   UNL     1       9.534   5.007   7.183  0.00  0.00    +0.145 C 
ENDROOT
BRANCH  10  15
ATOM      7  N   UNL     1      11.178   4.063   2.335  0.00  0.00    -0.240 NA
ATOM     15  C   UNL     1      10.354   5.823   3.771  0.00  0.00    -0.024 A 
ATOM     16  C   UNL     1      10.098   6.620   2.660  0.00  0.00    +0.009 A 
ATOM     17  C   UNL     1      10.890   4.564   3.556  0.00  0.00    +0.116 A 
ATOM     19  C   UNL     1      10.381   6.139   1.387  0.00  0.00    +0.044 A 
ATOM     20  C   UNL     1      10.915   4.865   1.279  0.00  0.00    +0.121 A 
BRANCH  20   8
ATOM      5  O   UNL     1      11.961   3.645  -2.606  0.00  0.00    -0.377 OA
ATOM      8  N   UNL     1      11.196   4.396  -0.008  0.00  0.00    -0.311 N 
ATOM     22  C   UNL     1      12.497   3.752  -0.243  0.00  0.00    +0.134 C 
ATOM     23  C   UNL     1      10.610   5.065  -1.175  0.00  0.00    +0.134 C 
ATOM     24  C   UNL     1      12.421   2.881  -1.492  0.00  0.00    +0.178 C 
ATOM     25  C   UNL     1      10.636   4.124  -2.375  0.00  0.00    +0.178 C 
ENDBRANCH  20   8
ENDBRANCH  10  15
BRANCH  11   6
ATOM      4  O   UNL     1      13.982   6.552   7.041  0.00  0.00    -0.268 OA
ATOM      6  N   UNL     1      12.066   7.446   6.087  0.00  0.00    -0.304 N 
ATOM     18  C   UNL     1      13.369   7.503   6.562  0.00  0.00    +0.270 C 
ATOM     32  H   UNL     1      11.657   8.279   5.674  0.00  0.00    +0.149 HD
BRANCH  18  21
ATOM      1  S   UNL     1      13.116  10.267   6.636  0.00  0.00    -0.063 S 
ATOM      9  N   UNL     1      15.325   8.975   6.315  0.00  0.00    -0.234 NA
ATOM     21  C   UNL     1      14.032   8.831   6.490  0.00  0.00    +0.164 A 
ATOM     26  C   UNL     1      14.558  11.194   6.452  0.00  0.00    +0.040 A 
ATOM     27  C   UNL     1      15.642  10.326   6.291  0.00  0.00    +0.079 A 
ATOM     28  C   UNL     1      14.720  12.588   6.451  0.00  0.00    +0.017 A 
ATOM     29  C   UNL     1      16.932  10.874   6.122  0.00  0.00    +0.029 A 
ATOM     30  C   UNL     1      16.007  13.106   6.282  0.00  0.00    +0.001 A 
ATOM     31  C   UNL     1      17.099  12.262   6.120  0.00  0.00    +0.002 A 
ENDBRANCH  18  21
ENDBRANCH  11   6
BRANCH  12   2
ATOM      2  O   UNL     1      11.587   5.434   8.401  0.00  0.00    -0.387 OA
ATOM     33  H   UNL     1      12.326   6.060   8.485  0.00  0.00    +0.210 HD
ENDBRANCH  12   2
BRANCH  14   3
ATOM      3  O   UNL     1      10.047   3.703   6.928  0.00  0.00    -0.389 OA
ATOM     34  H   UNL     1      10.869   3.607   7.438  0.00  0.00    +0.210 HD
ENDBRANCH  14   3
TORSDOF 6
ENDMDL
MODEL 7
REMARK VINA RESULT:      -6.7     28.658     31.234
REMARK  Name = 75536091
REMARK  6 active torsions:
REMARK  status: ('A' for Active; 'I' for Inactive)
REMARK    1  A    between atoms: O_2  and  C_12
REMARK    2  A    between atoms: O_3  and  C_14
REMARK    3  A    between atoms: N_6  and  C_11
REMARK    4  A    between atoms: N_8  and  C_20
REMARK    5  A    between atoms: C_10  and  C_15
REMARK    6  A    between atoms: C_18  and  C_21
REMARK                            x       y       z     vdW  Elec       q    Type
REMARK                         _______ _______ _______ _____ _____    ______ ____
ROOT
ATOM     10  C   UNL     1      -6.912 -10.243  18.235  0.00  0.00    +0.046 C 
ATOM     11  C   UNL     1      -6.462 -11.463  17.399  0.00  0.00    +0.112 C 
ATOM     12  C   UNL     1      -5.573 -12.246  18.364  0.00  0.00    +0.164 C 
ATOM     13  C   UNL     1      -6.775 -10.673  19.719  0.00  0.00    +0.044 C 
ATOM     14  C   UNL     1      -6.314 -12.128  19.692  0.00  0.00    +0.145 C 
ENDROOT
BRANCH  10  15
ATOM      7  N   UNL     1      -9.644  -8.118  16.684  0.00  0.00    -0.240 NA
ATOM     15  C   UNL     1      -8.290  -9.741  17.855  0.00  0.00    -0.024 A 
ATOM     16  C   UNL     1      -9.437 -10.390  18.298  0.00  0.00    +0.009 A 
ATOM     17  C   UNL     1      -8.446  -8.619  17.057  0.00  0.00    +0.116 A 
ATOM     19  C   UNL     1     -10.687  -9.904  17.935  0.00  0.00    +0.044 A 
ATOM     20  C   UNL     1     -10.737  -8.775  17.133  0.00  0.00    +0.121 A 
BRANCH  20   8
ATOM      5  O   UNL     1     -14.535  -7.515  15.844  0.00  0.00    -0.377 OA
ATOM      8  N   UNL     1     -12.003  -8.298  16.777  0.00  0.00    -0.311 N 
ATOM     22  C   UNL     1     -13.138  -9.230  16.837  0.00  0.00    +0.134 C 
ATOM     23  C   UNL     1     -12.127  -7.226  15.783  0.00  0.00    +0.134 C 
ATOM     24  C   UNL     1     -14.442  -8.446  16.921  0.00  0.00    +0.178 C 
ATOM     25  C   UNL     1     -13.486  -6.549  15.922  0.00  0.00    +0.178 C 
ENDBRANCH  20   8
ENDBRANCH  10  15
BRANCH  11   6
ATOM      4  O   UNL     1      -7.516 -11.345  14.731  0.00  0.00    -0.268 OA
ATOM      6  N   UNL     1      -5.750 -11.071  16.210  0.00  0.00    -0.304 N 
ATOM     18  C   UNL     1      -6.346 -11.045  14.956  0.00  0.00    +0.270 C 
ATOM     32  H   UNL     1      -4.784 -10.769  16.300  0.00  0.00    +0.149 HD
BRANCH  18  21
ATOM      1  S   UNL     1      -3.833 -11.135  13.778  0.00  0.00    -0.063 S 
ATOM      9  N   UNL     1      -5.890  -9.905  12.824  0.00  0.00    -0.234 NA
ATOM     21  C   UNL     1      -5.470 -10.642  13.826  0.00  0.00    +0.164 A 
ATOM     26  C   UNL     1      -3.635 -10.297  12.284  0.00  0.00    +0.040 A 
ATOM     27  C   UNL     1      -4.848  -9.698  11.931  0.00  0.00    +0.079 A 
ATOM     28  C   UNL     1      -2.490 -10.179  11.481  0.00  0.00    +0.017 A 
ATOM     29  C   UNL     1      -4.915  -8.955  10.733  0.00  0.00    +0.029 A 
ATOM     30  C   UNL     1      -2.582  -9.438  10.300  0.00  0.00    +0.001 A 
ATOM     31  C   UNL     1      -3.777  -8.833   9.929  0.00  0.00    +0.002 A 
ENDBRANCH  18  21
ENDBRANCH  11   6
BRANCH  12   2
ATOM      2  O   UNL     1      -5.425 -13.599  17.980  0.00  0.00    -0.387 OA
ATOM     33  H   UNL     1      -6.297 -13.918  17.691  0.00  0.00    +0.210 HD
ENDBRANCH  12   2
BRANCH  14   3
ATOM      3  O   UNL     1      -7.462 -12.971  19.710  0.00  0.00    -0.389 OA
ATOM     34  H   UNL     1      -7.871 -12.889  20.589  0.00  0.00    +0.210 HD
ENDBRANCH  14   3
TORSDOF 6
ENDMDL
MODEL 8
REMARK VINA RESULT:      -6.5     16.247     19.563
REMARK  Name = 75536091
REMARK  6 active torsions:
REMARK  status: ('A' for Active; 'I' for Inactive)
REMARK    1  A    between atoms: O_2  and  C_12
REMARK    2  A    between atoms: O_3  and  C_14
REMARK    3  A    between atoms: N_6  and  C_11
REMARK    4  A    between atoms: N_8  and  C_20
REMARK    5  A    between atoms: C_10  and  C_15
REMARK    6  A    between atoms: C_18  and  C_21
REMARK                            x       y       z     vdW  Elec       q    Type
REMARK                         _______ _______ _______ _____ _____    ______ ____
ROOT
ATOM     10  C   UNL     1       9.224   5.826   5.584  0.00  0.00    +0.046 C 
ATOM     11  C   UNL     1       9.028   7.341   5.821  0.00  0.00    +0.112 C 
ATOM     12  C   UNL     1       8.672   7.426   7.305  0.00  0.00    +0.164 C 
ATOM     13  C   UNL     1       9.557   5.221   6.972  0.00  0.00    +0.044 C 
ATOM     14  C   UNL     1       9.601   6.399   7.943  0.00  0.00    +0.145 C 
ENDROOT
BRANCH  10  15
ATOM      7  N   UNL     1      12.135   6.257   3.190  0.00  0.00    -0.240 NA
ATOM     15  C   UNL     1      10.247   5.523   4.509  0.00  0.00    -0.024 A 
ATOM     16  C   UNL     1      10.261   4.293   3.859  0.00  0.00    +0.009 A 
ATOM     17  C   UNL     1      11.196   6.462   4.141  0.00  0.00    +0.116 A 
ATOM     19  C   UNL     1      11.211   4.045   2.875  0.00  0.00    +0.044 A 
ATOM     20  C   UNL     1      12.118   5.050   2.580  0.00  0.00    +0.121 A 
BRANCH  20   8
ATOM      5  O   UNL     1      15.062   4.044  -0.248  0.00  0.00    -0.377 OA
ATOM      8  N   UNL     1      13.067   4.786   1.587  0.00  0.00    -0.311 N 
ATOM     22  C   UNL     1      12.962   3.521   0.847  0.00  0.00    +0.134 C 
ATOM     23  C   UNL     1      14.425   5.327   1.711  0.00  0.00    +0.134 C 
ATOM     24  C   UNL     1      13.714   3.634  -0.474  0.00  0.00    +0.178 C 
ATOM     25  C   UNL     1      15.100   5.344   0.344  0.00  0.00    +0.178 C 
ENDBRANCH  20   8
ENDBRANCH  10  15
BRANCH  11   6
ATOM      4  O   UNL     1       9.041   9.905   4.529  0.00  0.00    -0.268 OA
ATOM      6  N   UNL     1       7.989   7.889   4.987  0.00  0.00    -0.304 N 
ATOM     18  C   UNL     1       8.084   9.145   4.402  0.00  0.00    +0.270 C 
ATOM     32  H   UNL     1       7.171   7.318   4.792  0.00  0.00    +0.149 HD
BRANCH  18  21
ATOM      1  S   UNL     1       5.730  10.610   4.259  0.00  0.00    -0.063 S 
ATOM      9  N   UNL     1       6.733   9.199   2.347  0.00  0.00    -0.234 NA
ATOM     21  C   UNL     1       6.917   9.576   3.591  0.00  0.00    +0.164 A 
ATOM     26  C   UNL     1       4.869  10.571   2.765  0.00  0.00    +0.040 A 
ATOM     27  C   UNL     1       5.562   9.762   1.860  0.00  0.00    +0.079 A 
ATOM     28  C   UNL     1       3.669  11.210   2.419  0.00  0.00    +0.017 A 
ATOM     29  C   UNL     1       5.033   9.587   0.563  0.00  0.00    +0.029 A 
ATOM     30  C   UNL     1       3.165  11.021   1.129  0.00  0.00    +0.001 A 
ATOM     31  C   UNL     1       3.837  10.221   0.212  0.00  0.00    +0.002 A 
ENDBRANCH  18  21
ENDBRANCH  11   6
BRANCH  12   2
ATOM      2  O   UNL     1       8.895   8.717   7.837  0.00  0.00    -0.387 OA
ATOM     33  H   UNL     1       8.074   8.998   8.275  0.00  0.00    +0.210 HD
ENDBRANCH  12   2
BRANCH  14   3
ATOM      3  O   UNL     1      10.937   6.889   8.004  0.00  0.00    -0.389 OA
ATOM     34  H   UNL     1      11.358   6.494   8.787  0.00  0.00    +0.210 HD
ENDBRANCH  14   3
TORSDOF 6
ENDMDL
MODEL 9
REMARK VINA RESULT:      -6.3     15.432     19.112
REMARK  Name = 75536091
REMARK  6 active torsions:
REMARK  status: ('A' for Active; 'I' for Inactive)
REMARK    1  A    between atoms: O_2  and  C_12
REMARK    2  A    between atoms: O_3  and  C_14
REMARK    3  A    between atoms: N_6  and  C_11
REMARK    4  A    between atoms: N_8  and  C_20
REMARK    5  A    between atoms: C_10  and  C_15
REMARK    6  A    between atoms: C_18  and  C_21
REMARK                            x       y       z     vdW  Elec       q    Type
REMARK                         _______ _______ _______ _____ _____    ______ ____
ROOT
ATOM     10  C   UNL     1      11.202   6.446   6.661  0.00  0.00    +0.046 C 
ATOM     11  C   UNL     1      10.157   6.571   5.528  0.00  0.00    +0.112 C 
ATOM     12  C   UNL     1       8.918   5.894   6.111  0.00  0.00    +0.164 C 
ATOM     13  C   UNL     1      10.388   6.271   7.969  0.00  0.00    +0.044 C 
ATOM     14  C   UNL     1       8.919   6.360   7.563  0.00  0.00    +0.145 C 
ENDROOT
BRANCH  10  15
ATOM      7  N   UNL     1      14.457   8.377   6.407  0.00  0.00    -0.240 NA
ATOM     15  C   UNL     1      12.187   7.597   6.687  0.00  0.00    -0.024 A 
ATOM     16  C   UNL     1      11.774   8.887   7.005  0.00  0.00    +0.009 A 
ATOM     17  C   UNL     1      13.527   7.397   6.399  0.00  0.00    +0.116 A 
ATOM     19  C   UNL     1      12.702   9.922   7.023  0.00  0.00    +0.044 A 
ATOM     20  C   UNL     1      14.019   9.618   6.719  0.00  0.00    +0.121 A 
BRANCH  20   8
ATOM      5  O   UNL     1      16.734  12.822   6.520  0.00  0.00    -0.377 OA
ATOM      8  N   UNL     1      14.941  10.670   6.743  0.00  0.00    -0.311 N 
ATOM     22  C   UNL     1      14.440  12.036   6.532  0.00  0.00    +0.134 C 
ATOM     23  C   UNL     1      16.325  10.439   6.316  0.00  0.00    +0.134 C 
ATOM     24  C   UNL     1      15.443  13.042   7.085  0.00  0.00    +0.178 C 
ATOM     25  C   UNL     1      17.228  11.531   6.880  0.00  0.00    +0.178 C 
ENDBRANCH  20   8
ENDBRANCH  10  15
BRANCH  11   6
ATOM      4  O   UNL     1       9.239   7.135   2.867  0.00  0.00    -0.268 OA
ATOM      6  N   UNL     1      10.598   5.934   4.314  0.00  0.00    -0.304 N 
ATOM     18  C   UNL     1      10.093   6.274   3.066  0.00  0.00    +0.270 C 
ATOM     32  H   UNL     1      11.330   5.232   4.372  0.00  0.00    +0.149 HD
BRANCH  18  21
ATOM      1  S   UNL     1      12.041   4.554   2.086  0.00  0.00    -0.063 S 
ATOM      9  N   UNL     1      10.069   5.512   0.727  0.00  0.00    -0.234 NA
ATOM     21  C   UNL     1      10.631   5.506   1.914  0.00  0.00    +0.164 A 
ATOM     26  C   UNL     1      11.918   4.090   0.430  0.00  0.00    +0.040 A 
ATOM     27  C   UNL     1      10.797   4.704  -0.135  0.00  0.00    +0.079 A 
ATOM     28  C   UNL     1      12.754   3.243  -0.315  0.00  0.00    +0.017 A 
ATOM     29  C   UNL     1      10.503   4.461  -1.494  0.00  0.00    +0.029 A 
ATOM     30  C   UNL     1      12.441   3.019  -1.659  0.00  0.00    +0.001 A 
ATOM     31  C   UNL     1      11.332   3.618  -2.242  0.00  0.00    +0.002 A 
ENDBRANCH  18  21
ENDBRANCH  11   6
BRANCH  12   2
ATOM      2  O   UNL     1       7.731   6.285   5.450  0.00  0.00    -0.387 OA
ATOM     33  H   UNL     1       7.834   7.215   5.189  0.00  0.00    +0.210 HD
ENDBRANCH  12   2
BRANCH  14   3
ATOM      3  O   UNL     1       8.500   7.718   7.662  0.00  0.00    -0.389 OA
ATOM     34  H   UNL     1       9.296   8.260   7.799  0.00  0.00    +0.210 HD
ENDBRANCH  14   3
TORSDOF 6
ENDMDL
MODEL 10
REMARK VINA RESULT:      -6.2     27.460     30.589
REMARK  Name = 75536091
REMARK  6 active torsions:
REMARK  status: ('A' for Active; 'I' for Inactive)
REMARK    1  A    between atoms: O_2  and  C_12
REMARK    2  A    between atoms: O_3  and  C_14
REMARK    3  A    between atoms: N_6  and  C_11
REMARK    4  A    between atoms: N_8  and  C_20
REMARK    5  A    between atoms: C_10  and  C_15
REMARK    6  A    between atoms: C_18  and  C_21
REMARK                            x       y       z     vdW  Elec       q    Type
REMARK                         _______ _______ _______ _____ _____    ______ ____
ROOT
ATOM     10  C   UNL     1     -17.360   6.121  20.654  0.00  0.00    +0.046 C 
ATOM     11  C   UNL     1     -17.233   4.716  21.285  0.00  0.00    +0.112 C 
ATOM     12  C   UNL     1     -18.513   4.009  20.842  0.00  0.00    +0.164 C 
ATOM     13  C   UNL     1     -18.333   5.960  19.457  0.00  0.00    +0.044 C 
ATOM     14  C   UNL     1     -18.685   4.475  19.400  0.00  0.00    +0.145 C 
ENDROOT
BRANCH  10  15
ATOM      7  N   UNL     1     -14.709   8.071  18.768  0.00  0.00    -0.240 NA
ATOM     15  C   UNL     1     -16.022   6.731  20.292  0.00  0.00    -0.024 A 
ATOM     16  C   UNL     1     -14.904   6.535  21.095  0.00  0.00    +0.009 A 
ATOM     17  C   UNL     1     -15.873   7.500  19.149  0.00  0.00    +0.116 A 
ATOM     19  C   UNL     1     -13.688   7.106  20.736  0.00  0.00    +0.044 A 
ATOM     20  C   UNL     1     -13.644   7.858  19.573  0.00  0.00    +0.121 A 
BRANCH  20   8
ATOM      5  O   UNL     1      -9.823   9.374  18.687  0.00  0.00    -0.377 OA
ATOM      8  N   UNL     1     -12.414   8.426  19.224  0.00  0.00    -0.311 N 
ATOM     22  C   UNL     1     -11.472   7.612  18.441  0.00  0.00    +0.134 C 
ATOM     23  C   UNL     1     -11.796   9.428  20.099  0.00  0.00    +0.134 C 
ATOM     24  C   UNL     1     -10.467   8.520  17.742  0.00  0.00    +0.178 C 
ATOM     25  C   UNL     1     -10.773  10.239  19.311  0.00  0.00    +0.178 C 
ENDBRANCH  20   8
ENDBRANCH  10  15
BRANCH  11   6
ATOM      4  O   UNL     1     -16.296   2.628  23.019  0.00  0.00    -0.268 OA
ATOM      6  N   UNL     1     -17.121   4.776  22.720  0.00  0.00    -0.304 N 
ATOM     18  C   UNL     1     -16.655   3.710  23.478  0.00  0.00    +0.270 C 
ATOM     32  H   UNL     1     -17.360   5.644  23.189  0.00  0.00    +0.149 HD
BRANCH  18  21
ATOM      1  S   UNL     1     -17.425   5.258  25.651  0.00  0.00    -0.063 S 
ATOM      9  N   UNL     1     -15.998   3.113  25.773  0.00  0.00    -0.234 NA
ATOM     21  C   UNL     1     -16.625   3.920  24.949  0.00  0.00    +0.164 A 
ATOM     26  C   UNL     1     -16.903   4.739  27.210  0.00  0.00    +0.040 A 
ATOM     27  C   UNL     1     -16.149   3.570  27.074  0.00  0.00    +0.079 A 
ATOM     28  C   UNL     1     -17.144   5.323  28.464  0.00  0.00    +0.017 A 
ATOM     29  C   UNL     1     -15.618   2.966  28.234  0.00  0.00    +0.029 A 
ATOM     30  C   UNL     1     -16.607   4.705  29.597  0.00  0.00    +0.001 A 
ATOM     31  C   UNL     1     -15.854   3.542  29.486  0.00  0.00    +0.002 A 
ENDBRANCH  18  21
ENDBRANCH  11   6
BRANCH  12   2
ATOM      2  O   UNL     1     -18.402   2.601  20.914  0.00  0.00    -0.387 OA
ATOM     33  H   UNL     1     -17.707   2.395  21.561  0.00  0.00    +0.210 HD
ENDBRANCH  12   2
BRANCH  14   3
ATOM      3  O   UNL     1     -17.758   3.820  18.539  0.00  0.00    -0.389 OA
ATOM     34  H   UNL     1     -16.869   3.957  18.909  0.00  0.00    +0.210 HD
ENDBRANCH  14   3
TORSDOF 6
ENDMDL
