MODEL 1
REMARK VINA RESULT:      -6.1      0.000      0.000
REMARK  Name = 51137280
REMARK  4 active torsions:
REMARK  status: ('A' for Active; 'I' for Inactive)
REMARK    1  A    between atoms: N_4  and  C_11
REMARK    2  A    between atoms: C_7  and  C_12
REMARK    3  A    between atoms: C_11  and  C_13
REMARK    4  A    between atoms: C_14  and  C_17
REMARK                            x       y       z     vdW  Elec       q    Type
REMARK                         _______ _______ _______ _____ _____    ______ ____
ROOT
ATOM      4  N   UNL     1      11.878   3.713   0.651  0.00  0.00    -0.297 NA
ATOM      7  C   UNL     1      10.649   4.338   2.547  0.00  0.00    +0.092 C 
ATOM      8  C   UNL     1      10.243   5.222   1.356  0.00  0.00    +0.029 C 
ATOM      9  C   UNL     1      11.966   3.681   2.112  0.00  0.00    +0.097 C 
ATOM     10  C   UNL     1      11.357   5.042   0.333  0.00  0.00    +0.085 C 
ENDROOT
BRANCH   7  12
ATOM      2  O   UNL     1      10.107   4.514   4.928  0.00  0.00    -0.418 OA
ATOM      5  N   UNL     1      11.403   6.169   4.163  0.00  0.00    -0.112 NA
ATOM      6  N   UNL     1      11.177   6.390   5.509  0.00  0.00    -0.104 NA
ATOM     12  C   UNL     1      10.760   5.063   3.868  0.00  0.00    +0.222 A 
ATOM     14  C   UNL     1      10.416   5.400   5.914  0.00  0.00    +0.284 A 
BRANCH  14  17
ATOM      3  O   UNL     1       9.920   4.065   7.881  0.00  0.00    -0.458 OA
ATOM     17  C   UNL     1       9.958   5.266   7.247  0.00  0.00    +0.191 A 
ATOM     19  C   UNL     1       9.501   6.265   8.075  0.00  0.00    +0.055 A 
ATOM     20  C   UNL     1       9.162   5.638   9.298  0.00  0.00    +0.042 A 
ATOM     21  C   UNL     1       9.434   4.300   9.128  0.00  0.00    +0.196 A 
ENDBRANCH  14  17
ENDBRANCH   7  12
BRANCH   4  11
ATOM     11  C   UNL     1      13.160   3.453   0.011  0.00  0.00    +0.126 C 
BRANCH  11  13
ATOM      1  S   UNL     1      13.965   4.454  -2.456  0.00  0.00    -0.100 S 
ATOM     13  C   UNL     1      13.037   3.390  -1.488  0.00  0.00    +0.004 A 
ATOM     15  C   UNL     1      12.245   2.558  -2.248  0.00  0.00    +0.012 A 
ATOM     16  C   UNL     1      12.401   2.798  -3.643  0.00  0.00    +0.008 A 
ATOM     18  C   UNL     1      13.307   3.803  -3.897  0.00  0.00    +0.045 A 
ENDBRANCH  11  13
ENDBRANCH   4  11
TORSDOF 4
ENDMDL
MODEL 2
REMARK VINA RESULT:      -6.1     18.274     19.845
REMARK  Name = 51137280
REMARK  4 active torsions:
REMARK  status: ('A' for Active; 'I' for Inactive)
REMARK    1  A    between atoms: N_4  and  C_11
REMARK    2  A    between atoms: C_7  and  C_12
REMARK    3  A    between atoms: C_11  and  C_13
REMARK    4  A    between atoms: C_14  and  C_17
REMARK                            x       y       z     vdW  Elec       q    Type
REMARK                         _______ _______ _______ _____ _____    ______ ____
ROOT
ATOM      4  N   UNL     1      16.035   7.159  20.587  0.00  0.00    -0.297 NA
ATOM      7  C   UNL     1      13.748   6.967  21.066  0.00  0.00    +0.092 C 
ATOM      8  C   UNL     1      13.945   7.127  19.548  0.00  0.00    +0.029 C 
ATOM      9  C   UNL     1      15.088   7.395  21.678  0.00  0.00    +0.097 C 
ATOM     10  C   UNL     1      15.362   7.659  19.388  0.00  0.00    +0.085 C 
ENDROOT
BRANCH   7  12
ATOM      2  O   UNL     1      12.756   9.046  21.895  0.00  0.00    -0.418 OA
ATOM      5  N   UNL     1      11.364   7.294  21.930  0.00  0.00    -0.112 NA
ATOM      6  N   UNL     1      10.682   8.391  22.421  0.00  0.00    -0.104 NA
ATOM     12  C   UNL     1      12.570   7.722  21.636  0.00  0.00    +0.222 A 
ATOM     14  C   UNL     1      11.532   9.391  22.382  0.00  0.00    +0.284 A 
BRANCH  14  17
ATOM      3  O   UNL     1      10.798  10.972  24.073  0.00  0.00    -0.458 OA
ATOM     17  C   UNL     1      11.211  10.703  22.807  0.00  0.00    +0.191 A 
ATOM     19  C   UNL     1      11.258  11.856  22.059  0.00  0.00    +0.055 A 
ATOM     20  C   UNL     1      10.848  12.901  22.920  0.00  0.00    +0.042 A 
ATOM     21  C   UNL     1      10.578  12.312  24.134  0.00  0.00    +0.196 A 
ENDBRANCH  14  17
ENDBRANCH   7  12
BRANCH   4  11
ATOM     11  C   UNL     1      17.318   7.809  20.814  0.00  0.00    +0.126 C 
BRANCH  11  13
ATOM      1  S   UNL     1      19.928   7.163  21.525  0.00  0.00    -0.100 S 
ATOM     13  C   UNL     1      18.466   6.842  20.695  0.00  0.00    +0.004 A 
ATOM     15  C   UNL     1      18.526   5.667  19.979  0.00  0.00    +0.012 A 
ATOM     16  C   UNL     1      19.789   5.022  20.112  0.00  0.00    +0.008 A 
ATOM     18  C   UNL     1      20.646   5.728  20.926  0.00  0.00    +0.045 A 
ENDBRANCH  11  13
ENDBRANCH   4  11
TORSDOF 4
ENDMDL
MODEL 3
REMARK VINA RESULT:      -6.1     18.608     20.373
REMARK  Name = 51137280
REMARK  4 active torsions:
REMARK  status: ('A' for Active; 'I' for Inactive)
REMARK    1  A    between atoms: N_4  and  C_11
REMARK    2  A    between atoms: C_7  and  C_12
REMARK    3  A    between atoms: C_11  and  C_13
REMARK    4  A    between atoms: C_14  and  C_17
REMARK                            x       y       z     vdW  Elec       q    Type
REMARK                         _______ _______ _______ _____ _____    ______ ____
ROOT
ATOM      4  N   UNL     1      21.413   4.881  21.450  0.00  0.00    -0.297 NA
ATOM      7  C   UNL     1      19.782   6.120  20.307  0.00  0.00    +0.092 C 
ATOM      8  C   UNL     1      20.126   6.820  21.634  0.00  0.00    +0.029 C 
ATOM      9  C   UNL     1      20.350   4.702  20.459  0.00  0.00    +0.097 C 
ATOM     10  C   UNL     1      20.837   5.762  22.466  0.00  0.00    +0.085 C 
ENDROOT
BRANCH   7  12
ATOM      2  O   UNL     1      17.466   6.713  20.835  0.00  0.00    -0.418 OA
ATOM      5  N   UNL     1      17.714   5.658  18.877  0.00  0.00    -0.112 NA
ATOM      6  N   UNL     1      16.370   5.931  19.048  0.00  0.00    -0.104 NA
ATOM     12  C   UNL     1      18.316   6.132  19.944  0.00  0.00    +0.222 A 
ATOM     14  C   UNL     1      16.272   6.547  20.203  0.00  0.00    +0.284 A 
BRANCH  14  17
ATOM      3  O   UNL     1      13.844   6.568  20.267  0.00  0.00    -0.458 OA
ATOM     17  C   UNL     1      15.042   6.996  20.744  0.00  0.00    +0.191 A 
ATOM     19  C   UNL     1      14.861   7.885  21.777  0.00  0.00    +0.055 A 
ATOM     20  C   UNL     1      13.462   8.012  21.947  0.00  0.00    +0.042 A 
ATOM     21  C   UNL     1      12.888   7.191  21.005  0.00  0.00    +0.196 A 
ENDBRANCH  14  17
ENDBRANCH   7  12
BRANCH   4  11
ATOM     11  C   UNL     1      21.871   3.617  22.008  0.00  0.00    +0.126 C 
BRANCH  11  13
ATOM      1  S   UNL     1      24.048   4.268  20.404  0.00  0.00    -0.100 S 
ATOM     13  C   UNL     1      23.192   3.192  21.424  0.00  0.00    +0.004 A 
ATOM     15  C   UNL     1      23.860   1.999  21.593  0.00  0.00    +0.012 A 
ATOM     16  C   UNL     1      25.089   1.968  20.875  0.00  0.00    +0.008 A 
ATOM     18  C   UNL     1      25.316   3.137  20.185  0.00  0.00    +0.045 A 
ENDBRANCH  11  13
ENDBRANCH   4  11
TORSDOF 4
ENDMDL
MODEL 4
REMARK VINA RESULT:      -5.9     23.091     25.690
REMARK  Name = 51137280
REMARK  4 active torsions:
REMARK  status: ('A' for Active; 'I' for Inactive)
REMARK    1  A    between atoms: N_4  and  C_11
REMARK    2  A    between atoms: C_7  and  C_12
REMARK    3  A    between atoms: C_11  and  C_13
REMARK    4  A    between atoms: C_14  and  C_17
REMARK                            x       y       z     vdW  Elec       q    Type
REMARK                         _______ _______ _______ _____ _____    ______ ____
ROOT
ATOM      4  N   UNL     1      -2.346 -10.932  13.973  0.00  0.00    -0.297 NA
ATOM      7  C   UNL     1      -3.337 -10.355  16.019  0.00  0.00    +0.092 C 
ATOM      8  C   UNL     1      -1.856 -10.708  16.244  0.00  0.00    +0.029 C 
ATOM      9  C   UNL     1      -3.658 -10.906  14.622  0.00  0.00    +0.097 C 
ATOM     10  C   UNL     1      -1.433 -11.456  14.988  0.00  0.00    +0.085 C 
ENDROOT
BRANCH   7  12
ATOM      2  O   UNL     1      -5.560 -10.401  17.044  0.00  0.00    -0.418 OA
ATOM      5  N   UNL     1      -4.056 -11.702  18.069  0.00  0.00    -0.112 NA
ATOM      6  N   UNL     1      -5.256 -11.822  18.745  0.00  0.00    -0.104 NA
ATOM     12  C   UNL     1      -4.280 -10.863  17.084  0.00  0.00    +0.222 A 
ATOM     14  C   UNL     1      -6.104 -11.045  18.112  0.00  0.00    +0.284 A 
BRANCH  14  17
ATOM      3  O   UNL     1      -7.914 -11.313  19.710  0.00  0.00    -0.458 OA
ATOM     17  C   UNL     1      -7.457 -10.890  18.503  0.00  0.00    +0.191 A 
ATOM     19  C   UNL     1      -8.474 -10.320  17.774  0.00  0.00    +0.055 A 
ATOM     20  C   UNL     1      -9.631 -10.398  18.585  0.00  0.00    +0.042 A 
ATOM     21  C   UNL     1      -9.238 -11.011  19.752  0.00  0.00    +0.196 A 
ENDBRANCH  14  17
ENDBRANCH   7  12
BRANCH   4  11
ATOM     11  C   UNL     1      -2.344 -11.734  12.758  0.00  0.00    +0.126 C 
BRANCH  11  13
ATOM      1  S   UNL     1      -4.126 -11.633  10.624  0.00  0.00    -0.100 S 
ATOM     13  C   UNL     1      -2.870 -10.963  11.576  0.00  0.00    +0.004 A 
ATOM     15  C   UNL     1      -2.475  -9.727  11.114  0.00  0.00    +0.012 A 
ATOM     16  C   UNL     1      -3.211  -9.326   9.963  0.00  0.00    +0.008 A 
ATOM     18  C   UNL     1      -4.142 -10.269   9.589  0.00  0.00    +0.045 A 
ENDBRANCH  11  13
ENDBRANCH   4  11
TORSDOF 4
ENDMDL
MODEL 5
REMARK VINA RESULT:      -5.8     18.291     20.616
REMARK  Name = 51137280
REMARK  4 active torsions:
REMARK  status: ('A' for Active; 'I' for Inactive)
REMARK    1  A    between atoms: N_4  and  C_11
REMARK    2  A    between atoms: C_7  and  C_12
REMARK    3  A    between atoms: C_11  and  C_13
REMARK    4  A    between atoms: C_14  and  C_17
REMARK                            x       y       z     vdW  Elec       q    Type
REMARK                         _______ _______ _______ _____ _____    ______ ____
ROOT
ATOM      4  N   UNL     1      15.572   7.716  20.962  0.00  0.00    -0.297 NA
ATOM      7  C   UNL     1      17.841   7.229  20.626  0.00  0.00    +0.092 C 
ATOM      8  C   UNL     1      16.976   6.207  19.867  0.00  0.00    +0.029 C 
ATOM      9  C   UNL     1      16.872   7.902  21.608  0.00  0.00    +0.097 C 
ATOM     10  C   UNL     1      15.586   6.338  20.475  0.00  0.00    +0.085 C 
ENDROOT
BRANCH   7  12
ATOM      2  O   UNL     1      19.824   5.795  20.570  0.00  0.00    -0.418 OA
ATOM      5  N   UNL     1      19.512   6.844  22.521  0.00  0.00    -0.112 NA
ATOM      6  N   UNL     1      20.656   6.075  22.628  0.00  0.00    -0.104 NA
ATOM     12  C   UNL     1      19.060   6.650  21.304  0.00  0.00    +0.222 A 
ATOM     14  C   UNL     1      20.800   5.481  21.466  0.00  0.00    +0.284 A 
BRANCH  14  17
ATOM      3  O   UNL     1      23.027   5.024  20.612  0.00  0.00    -0.458 OA
ATOM     17  C   UNL     1      21.865   4.596  21.172  0.00  0.00    +0.191 A 
ATOM     19  C   UNL     1      21.904   3.238  21.388  0.00  0.00    +0.055 A 
ATOM     20  C   UNL     1      23.172   2.804  20.932  0.00  0.00    +0.042 A 
ATOM     21  C   UNL     1      23.816   3.927  20.468  0.00  0.00    +0.196 A 
ENDBRANCH  14  17
ENDBRANCH   7  12
BRANCH   4  11
ATOM     11  C   UNL     1      14.460   7.972  21.867  0.00  0.00    +0.126 C 
BRANCH  11  13
ATOM      1  S   UNL     1      13.163   9.046  19.653  0.00  0.00    -0.100 S 
ATOM     13  C   UNL     1      13.166   8.170  21.124  0.00  0.00    +0.004 A 
ATOM     15  C   UNL     1      11.906   7.728  21.464  0.00  0.00    +0.012 A 
ATOM     16  C   UNL     1      10.926   8.114  20.506  0.00  0.00    +0.008 A 
ATOM     18  C   UNL     1      11.473   8.836  19.469  0.00  0.00    +0.045 A 
ENDBRANCH  11  13
ENDBRANCH   4  11
TORSDOF 4
ENDMDL
MODEL 6
REMARK VINA RESULT:      -5.6     24.304     26.987
REMARK  Name = 51137280
REMARK  4 active torsions:
REMARK  status: ('A' for Active; 'I' for Inactive)
REMARK    1  A    between atoms: N_4  and  C_11
REMARK    2  A    between atoms: C_7  and  C_12
REMARK    3  A    between atoms: C_11  and  C_13
REMARK    4  A    between atoms: C_14  and  C_17
REMARK                            x       y       z     vdW  Elec       q    Type
REMARK                         _______ _______ _______ _____ _____    ______ ____
ROOT
ATOM      4  N   UNL     1      -4.855 -10.364  14.550  0.00  0.00    -0.297 NA
ATOM      7  C   UNL     1      -5.136 -10.019  16.852  0.00  0.00    +0.092 C 
ATOM      8  C   UNL     1      -3.772 -10.682  16.593  0.00  0.00    +0.029 C 
ATOM      9  C   UNL     1      -5.918 -10.217  15.546  0.00  0.00    +0.097 C 
ATOM     10  C   UNL     1      -3.866 -11.238  15.179  0.00  0.00    +0.085 C 
ENDROOT
BRANCH   7  12
ATOM      2  O   UNL     1      -7.224 -10.673  17.952  0.00  0.00    -0.418 OA
ATOM      5  N   UNL     1      -5.408 -10.884  19.242  0.00  0.00    -0.112 NA
ATOM      6  N   UNL     1      -6.506 -11.284  19.981  0.00  0.00    -0.104 NA
ATOM     12  C   UNL     1      -5.874 -10.536  18.065  0.00  0.00    +0.222 A 
ATOM     14  C   UNL     1      -7.543 -11.144  19.189  0.00  0.00    +0.284 A 
BRANCH  14  17
ATOM      3  O   UNL     1      -9.230 -12.693  19.996  0.00  0.00    -0.458 OA
ATOM     17  C   UNL     1      -8.869 -11.451  19.581  0.00  0.00    +0.191 A 
ATOM     19  C   UNL     1      -9.948 -10.600  19.607  0.00  0.00    +0.055 A 
ATOM     20  C   UNL     1     -11.044 -11.367  20.068  0.00  0.00    +0.042 A 
ATOM     21  C   UNL     1     -10.556 -12.634  20.290  0.00  0.00    +0.196 A 
ENDBRANCH  14  17
ENDBRANCH   7  12
BRANCH   4  11
ATOM     11  C   UNL     1      -5.346 -10.900  13.289  0.00  0.00    +0.126 C 
BRANCH  11  13
ATOM      1  S   UNL     1      -5.745  -8.942  11.354  0.00  0.00    -0.100 S 
ATOM     13  C   UNL     1      -4.793 -10.150  12.107  0.00  0.00    +0.004 A 
ATOM     15  C   UNL     1      -3.564 -10.292  11.499  0.00  0.00    +0.012 A 
ATOM     16  C   UNL     1      -3.403  -9.399  10.401  0.00  0.00    +0.008 A 
ATOM     18  C   UNL     1      -4.513  -8.608  10.211  0.00  0.00    +0.045 A 
ENDBRANCH  11  13
ENDBRANCH   4  11
TORSDOF 4
ENDMDL
MODEL 7
REMARK VINA RESULT:      -5.5     24.562     27.670
REMARK  Name = 51137280
REMARK  4 active torsions:
REMARK  status: ('A' for Active; 'I' for Inactive)
REMARK    1  A    between atoms: N_4  and  C_11
REMARK    2  A    between atoms: C_7  and  C_12
REMARK    3  A    between atoms: C_11  and  C_13
REMARK    4  A    between atoms: C_14  and  C_17
REMARK                            x       y       z     vdW  Elec       q    Type
REMARK                         _______ _______ _______ _____ _____    ______ ____
ROOT
ATOM      4  N   UNL     1      -5.064 -11.236  17.442  0.00  0.00    -0.297 NA
ATOM      7  C   UNL     1      -6.900  -9.997  18.212  0.00  0.00    +0.092 C 
ATOM      8  C   UNL     1      -6.521 -11.060  19.258  0.00  0.00    +0.029 C 
ATOM      9  C   UNL     1      -6.181 -10.440  16.930  0.00  0.00    +0.097 C 
ATOM     10  C   UNL     1      -5.641 -12.052  18.510  0.00  0.00    +0.085 C 
ENDROOT
BRANCH   7  12
ATOM      2  O   UNL     1      -8.769  -8.756  17.232  0.00  0.00    -0.418 OA
ATOM      5  N   UNL     1      -9.391 -10.493  18.497  0.00  0.00    -0.112 NA
ATOM      6  N   UNL     1     -10.535  -9.887  18.011  0.00  0.00    -0.104 NA
ATOM     12  C   UNL     1      -8.385  -9.800  18.017  0.00  0.00    +0.222 A 
ATOM     14  C   UNL     1     -10.124  -8.878  17.278  0.00  0.00    +0.284 A 
BRANCH  14  17
ATOM      3  O   UNL     1     -12.024  -8.452  15.826  0.00  0.00    -0.458 OA
ATOM     17  C   UNL     1     -11.004  -7.999  16.601  0.00  0.00    +0.191 A 
ATOM     19  C   UNL     1     -10.978  -6.624  16.611  0.00  0.00    +0.055 A 
ATOM     20  C   UNL     1     -12.052  -6.205  15.790  0.00  0.00    +0.042 A 
ATOM     21  C   UNL     1     -12.657  -7.354  15.336  0.00  0.00    +0.196 A 
ENDBRANCH  14  17
ENDBRANCH   7  12
BRANCH   4  11
ATOM     11  C   UNL     1      -4.436 -12.043  16.406  0.00  0.00    +0.126 C 
BRANCH  11  13
ATOM      1  S   UNL     1      -3.311 -11.096  14.045  0.00  0.00    -0.100 S 
ATOM     13  C   UNL     1      -3.296 -11.316  15.743  0.00  0.00    +0.004 A 
ATOM     15  C   UNL     1      -2.175 -10.767  16.325  0.00  0.00    +0.012 A 
ATOM     16  C   UNL     1      -1.317 -10.158  15.366  0.00  0.00    +0.008 A 
ATOM     18  C   UNL     1      -1.814 -10.265  14.086  0.00  0.00    +0.045 A 
ENDBRANCH  11  13
ENDBRANCH   4  11
TORSDOF 4
ENDMDL
MODEL 8
REMARK VINA RESULT:      -5.5     27.137     28.750
REMARK  Name = 51137280
REMARK  4 active torsions:
REMARK  status: ('A' for Active; 'I' for Inactive)
REMARK    1  A    between atoms: N_4  and  C_11
REMARK    2  A    between atoms: C_7  and  C_12
REMARK    3  A    between atoms: C_11  and  C_13
REMARK    4  A    between atoms: C_14  and  C_17
REMARK                            x       y       z     vdW  Elec       q    Type
REMARK                         _______ _______ _______ _____ _____    ______ ____
ROOT
ATOM      4  N   UNL     1      -9.158  -9.050  17.092  0.00  0.00    -0.297 NA
ATOM      7  C   UNL     1     -10.858  -7.445  16.915  0.00  0.00    +0.092 C 
ATOM      8  C   UNL     1     -11.408  -8.705  17.607  0.00  0.00    +0.029 C 
ATOM      9  C   UNL     1      -9.541  -7.900  16.271  0.00  0.00    +0.097 C 
ATOM     10  C   UNL     1     -10.397  -9.800  17.295  0.00  0.00    +0.085 C 
ENDROOT
BRANCH   7  12
ATOM      2  O   UNL     1     -11.247  -6.241  14.820  0.00  0.00    -0.418 OA
ATOM      5  N   UNL     1     -13.110  -6.682  15.978  0.00  0.00    -0.112 NA
ATOM      6  N   UNL     1     -13.472  -6.005  14.828  0.00  0.00    -0.104 NA
ATOM     12  C   UNL     1     -11.803  -6.797  15.931  0.00  0.00    +0.222 A 
ATOM     14  C   UNL     1     -12.354  -5.768  14.183  0.00  0.00    +0.284 A 
BRANCH  14  17
ATOM      3  O   UNL     1     -12.204  -5.743  11.759  0.00  0.00    -0.458 OA
ATOM     17  C   UNL     1     -12.300  -5.085  12.943  0.00  0.00    +0.191 A 
ATOM     19  C   UNL     1     -12.334  -3.725  12.740  0.00  0.00    +0.055 A 
ATOM     20  C   UNL     1     -12.254  -3.535  11.340  0.00  0.00    +0.042 A 
ATOM     21  C   UNL     1     -12.175  -4.793  10.788  0.00  0.00    +0.196 A 
ENDBRANCH  14  17
ENDBRANCH   7  12
BRANCH   4  11
ATOM     11  C   UNL     1      -8.118  -9.857  16.468  0.00  0.00    +0.126 C 
BRANCH  11  13
ATOM      1  S   UNL     1      -6.476 -12.016  17.079  0.00  0.00    -0.100 S 
ATOM     13  C   UNL     1      -7.256 -10.549  17.490  0.00  0.00    +0.004 A 
ATOM     15  C   UNL     1      -6.981 -10.162  18.783  0.00  0.00    +0.012 A 
ATOM     16  C   UNL     1      -6.119 -11.082  19.445  0.00  0.00    +0.008 A 
ATOM     18  C   UNL     1      -5.767 -12.137  18.634  0.00  0.00    +0.045 A 
ENDBRANCH  11  13
ENDBRANCH   4  11
TORSDOF 4
ENDMDL
MODEL 9
REMARK VINA RESULT:      -5.4     23.356     26.040
REMARK  Name = 51137280
REMARK  4 active torsions:
REMARK  status: ('A' for Active; 'I' for Inactive)
REMARK    1  A    between atoms: N_4  and  C_11
REMARK    2  A    between atoms: C_7  and  C_12
REMARK    3  A    between atoms: C_11  and  C_13
REMARK    4  A    between atoms: C_14  and  C_17
REMARK                            x       y       z     vdW  Elec       q    Type
REMARK                         _______ _______ _______ _____ _____    ______ ____
ROOT
ATOM      4  N   UNL     1      -3.796 -10.999  14.571  0.00  0.00    -0.297 NA
ATOM      7  C   UNL     1      -4.902 -10.054  16.411  0.00  0.00    +0.092 C 
ATOM      8  C   UNL     1      -3.919 -11.133  16.899  0.00  0.00    +0.029 C 
ATOM      9  C   UNL     1      -5.046 -10.314  14.905  0.00  0.00    +0.097 C 
ATOM     10  C   UNL     1      -3.586 -11.953  15.660  0.00  0.00    +0.085 C 
ENDROOT
BRANCH   7  12
ATOM      2  O   UNL     1      -7.216  -9.274  16.582  0.00  0.00    -0.418 OA
ATOM      5  N   UNL     1      -6.589 -10.639  18.240  0.00  0.00    -0.112 NA
ATOM      6  N   UNL     1      -7.905 -10.277  18.459  0.00  0.00    -0.104 NA
ATOM     12  C   UNL     1      -6.228 -10.030  17.134  0.00  0.00    +0.222 A 
ATOM     14  C   UNL     1      -8.229  -9.480  17.468  0.00  0.00    +0.284 A 
BRANCH  14  17
ATOM      3  O   UNL     1      -9.699  -7.723  16.661  0.00  0.00    -0.458 OA
ATOM     17  C   UNL     1      -9.509  -8.889  17.331  0.00  0.00    +0.191 A 
ATOM     19  C   UNL     1     -10.702  -9.364  17.822  0.00  0.00    +0.055 A 
ATOM     20  C   UNL     1     -11.690  -8.430  17.428  0.00  0.00    +0.042 A 
ATOM     21  C   UNL     1     -11.029  -7.450  16.725  0.00  0.00    +0.196 A 
ENDBRANCH  14  17
ENDBRANCH   7  12
BRANCH   4  11
ATOM     11  C   UNL     1      -3.847 -11.647  13.269  0.00  0.00    +0.126 C 
BRANCH  11  13
ATOM      1  S   UNL     1      -1.851 -10.245  11.932  0.00  0.00    -0.100 S 
ATOM     13  C   UNL     1      -3.486 -10.699  12.156  0.00  0.00    +0.004 A 
ATOM     15  C   UNL     1      -4.319 -10.103  11.234  0.00  0.00    +0.012 A 
ATOM     16  C   UNL     1      -3.605  -9.263  10.332  0.00  0.00    +0.008 A 
ATOM     18  C   UNL     1      -2.254  -9.248  10.598  0.00  0.00    +0.045 A 
ENDBRANCH  11  13
ENDBRANCH   4  11
TORSDOF 4
ENDMDL
MODEL 10
REMARK VINA RESULT:      -5.4      3.533      8.589
REMARK  Name = 51137280
REMARK  4 active torsions:
REMARK  status: ('A' for Active; 'I' for Inactive)
REMARK    1  A    between atoms: N_4  and  C_11
REMARK    2  A    between atoms: C_7  and  C_12
REMARK    3  A    between atoms: C_11  and  C_13
REMARK    4  A    between atoms: C_14  and  C_17
REMARK                            x       y       z     vdW  Elec       q    Type
REMARK                         _______ _______ _______ _____ _____    ______ ____
ROOT
ATOM      4  N   UNL     1      10.754   5.149   3.751  0.00  0.00    -0.297 NA
ATOM      7  C   UNL     1      12.088   4.808   1.852  0.00  0.00    +0.092 C 
ATOM      8  C   UNL     1      11.431   6.198   1.778  0.00  0.00    +0.029 C 
ATOM      9  C   UNL     1      11.294   4.062   2.933  0.00  0.00    +0.097 C 
ATOM     10  C   UNL     1      10.294   6.151   2.790  0.00  0.00    +0.085 C 
ENDROOT
BRANCH   7  12
ATOM      2  O   UNL     1      11.053   4.156  -0.269  0.00  0.00    -0.418 OA
ATOM      5  N   UNL     1      13.103   3.316   0.042  0.00  0.00    -0.112 NA
ATOM      6  N   UNL     1      12.641   2.873  -1.183  0.00  0.00    -0.104 NA
ATOM     12  C   UNL     1      12.144   4.062   0.540  0.00  0.00    +0.222 A 
ATOM     14  C   UNL     1      11.441   3.387  -1.322  0.00  0.00    +0.284 A 
BRANCH  14  17
ATOM      3  O   UNL     1      10.152   1.931  -2.777  0.00  0.00    -0.458 OA
ATOM     17  C   UNL     1      10.627   3.164  -2.459  0.00  0.00    +0.191 A 
ATOM     19  C   UNL     1      10.204   4.096  -3.377  0.00  0.00    +0.055 A 
ATOM     20  C   UNL     1       9.418   3.392  -4.320  0.00  0.00    +0.042 A 
ATOM     21  C   UNL     1       9.418   2.078  -3.911  0.00  0.00    +0.196 A 
ENDBRANCH  14  17
ENDBRANCH   7  12
BRANCH   4  11
ATOM     11  C   UNL     1       9.690   4.702   4.638  0.00  0.00    +0.126 C 
BRANCH  11  13
ATOM      1  S   UNL     1      10.363   5.920   7.046  0.00  0.00    -0.100 S 
ATOM     13  C   UNL     1       9.352   5.739   5.676  0.00  0.00    +0.004 A 
ATOM     15  C   UNL     1       8.291   6.618   5.696  0.00  0.00    +0.012 A 
ATOM     16  C   UNL     1       8.308   7.450   6.852  0.00  0.00    +0.008 A 
ATOM     18  C   UNL     1       9.381   7.177   7.671  0.00  0.00    +0.045 A 
ENDBRANCH  11  13
ENDBRANCH   4  11
TORSDOF 4
ENDMDL
