MODEL 1
REMARK VINA RESULT:      -6.9      0.000      0.000
REMARK  Name = 75536297
REMARK  12 active torsions:
REMARK  status: ('A' for Active; 'I' for Inactive)
REMARK    1  A    between atoms: O_2  and  C_9
REMARK    2  A    between atoms: O_4  and  C_20
REMARK    3  A    between atoms: O_4  and  C_26
REMARK    4  A    between atoms: O_5  and  C_22
REMARK    5  A    between atoms: O_5  and  C_27
REMARK    6  A    between atoms: N_6  and  C_13
REMARK    7  A    between atoms: N_6  and  C_16
REMARK    8  A    between atoms: C_8  and  C_13
REMARK    9  A    between atoms: C_10  and  C_14
REMARK   10  A    between atoms: C_14  and  C_15
REMARK   11  A    between atoms: C_16  and  C_18
REMARK   12  A    between atoms: C_19  and  C_22
REMARK                            x       y       z     vdW  Elec       q    Type
REMARK                         _______ _______ _______ _____ _____    ______ ____
ROOT
ATOM      1  O   UNL     1      10.637   8.392  19.585  0.00  0.00    -0.369 OA
ATOM      8  C   UNL     1      10.720   8.423  21.015  0.00  0.00    +0.161 C 
ATOM      9  C   UNL     1      11.473   7.199  21.555  0.00  0.00    +0.145 C 
ATOM     10  C   UNL     1      11.888   8.282  18.903  0.00  0.00    +0.125 C 
ATOM     11  C   UNL     1      12.802   6.972  20.841  0.00  0.00    +0.036 C 
ATOM     12  C   UNL     1      12.621   7.010  19.326  0.00  0.00    +0.034 C 
ENDROOT
BRANCH   9   2
ATOM      2  O   UNL     1      10.665   6.037  21.354  0.00  0.00    -0.389 OA
ATOM     29  H   UNL     1      10.787   5.457  22.127  0.00  0.00    +0.210 HD
ENDBRANCH   9   2
BRANCH   8  13
ATOM     13  C   UNL     1      11.305   9.746  21.504  0.00  0.00    +0.115 C 
BRANCH  13   6
ATOM      6  N   UNL     1      10.573  10.240  22.661  0.00  0.00    -0.309 NA
ATOM     28  H   UNL     1       9.881  10.923  22.353  0.00  0.00    +0.122 HD
BRANCH   6  16
ATOM     16  C   UNL     1      11.475  10.849  23.629  0.00  0.00    +0.120 C 
BRANCH  16  18
ATOM     18  C   UNL     1      11.021  12.227  24.029  0.00  0.00    +0.008 A 
ATOM     20  C   UNL     1      10.741  13.194  23.063  0.00  0.00    +0.124 A 
ATOM     21  C   UNL     1      10.883  12.534  25.383  0.00  0.00    +0.008 A 
ATOM     23  C   UNL     1      10.323  14.467  23.451  0.00  0.00    +0.046 A 
ATOM     24  C   UNL     1      10.464  13.807  25.771  0.00  0.00    +0.001 A 
ATOM     25  C   UNL     1      10.185  14.773  24.805  0.00  0.00    +0.004 A 
BRANCH  20   4
ATOM      4  O   UNL     1      10.873  12.913  21.736  0.00  0.00    -0.495 OA
ATOM     26  C   UNL     1      11.151  14.008  20.866  0.00  0.00    +0.277 C 
ENDBRANCH  20   4
ENDBRANCH  16  18
ENDBRANCH   6  16
ENDBRANCH  13   6
ENDBRANCH   8  13
BRANCH  10  14
ATOM     14  C   UNL     1      11.596   8.268  17.407  0.00  0.00    +0.090 C 
BRANCH  14  15
ATOM      3  O   UNL     1      13.498  10.075  14.936  0.00  0.00    -0.357 OA
ATOM      7  N   UNL     1      12.497   9.188  15.310  0.00  0.00    -0.083 NA
ATOM     15  C   UNL     1      12.554   9.143  16.645  0.00  0.00    +0.086 A 
ATOM     17  C   UNL     1      13.562   9.975  17.163  0.00  0.00    +0.073 A 
ATOM     19  C   UNL     1      14.125  10.537  16.049  0.00  0.00    +0.163 A 
BRANCH  19  22
ATOM     22  C   UNL     1      15.219  11.493  15.835  0.00  0.00    +0.236 C 
BRANCH  22   5
ATOM      5  O   UNL     1      15.150  12.549  16.797  0.00  0.00    -0.375 OA
ATOM     27  C   UNL     1      16.371  12.675  17.507  0.00  0.00    +0.194 C 
ENDBRANCH  22   5
ENDBRANCH  19  22
ENDBRANCH  14  15
ENDBRANCH  10  14
TORSDOF 10
ENDMDL
MODEL 2
REMARK VINA RESULT:      -6.2     26.815     29.264
REMARK  Name = 75536297
REMARK  12 active torsions:
REMARK  status: ('A' for Active; 'I' for Inactive)
REMARK    1  A    between atoms: O_2  and  C_9
REMARK    2  A    between atoms: O_4  and  C_20
REMARK    3  A    between atoms: O_4  and  C_26
REMARK    4  A    between atoms: O_5  and  C_22
REMARK    5  A    between atoms: O_5  and  C_27
REMARK    6  A    between atoms: N_6  and  C_13
REMARK    7  A    between atoms: N_6  and  C_16
REMARK    8  A    between atoms: C_8  and  C_13
REMARK    9  A    between atoms: C_10  and  C_14
REMARK   10  A    between atoms: C_14  and  C_15
REMARK   11  A    between atoms: C_16  and  C_18
REMARK   12  A    between atoms: C_19  and  C_22
REMARK                            x       y       z     vdW  Elec       q    Type
REMARK                         _______ _______ _______ _____ _____    ______ ____
ROOT
ATOM      1  O   UNL     1     -15.767   3.559  26.441  0.00  0.00    -0.369 OA
ATOM      8  C   UNL     1     -15.725   3.339  25.026  0.00  0.00    +0.161 C 
ATOM      9  C   UNL     1     -16.840   2.383  24.578  0.00  0.00    +0.145 C 
ATOM     10  C   UNL     1     -17.015   4.035  26.948  0.00  0.00    +0.125 C 
ATOM     11  C   UNL     1     -18.206   2.787  25.124  0.00  0.00    +0.036 C 
ATOM     12  C   UNL     1     -18.138   3.051  26.625  0.00  0.00    +0.034 C 
ENDROOT
BRANCH   9   2
ATOM      2  O   UNL     1     -16.544   1.072  25.066  0.00  0.00    -0.389 OA
ATOM     29  H   UNL     1     -17.197   0.861  25.755  0.00  0.00    +0.210 HD
ENDBRANCH   9   2
BRANCH   8  13
ATOM     13  C   UNL     1     -15.733   4.662  24.263  0.00  0.00    +0.115 C 
BRANCH  13   6
ATOM      6  N   UNL     1     -14.388   5.026  23.845  0.00  0.00    -0.309 NA
ATOM     28  H   UNL     1     -14.182   5.973  24.164  0.00  0.00    +0.122 HD
BRANCH   6  16
ATOM     16  C   UNL     1     -14.251   4.951  22.396  0.00  0.00    +0.120 C 
BRANCH  16  18
ATOM     18  C   UNL     1     -13.571   6.169  21.832  0.00  0.00    +0.008 A 
ATOM     20  C   UNL     1     -14.221   7.404  21.810  0.00  0.00    +0.124 A 
ATOM     21  C   UNL     1     -12.276   6.054  21.327  0.00  0.00    +0.008 A 
ATOM     23  C   UNL     1     -13.576   8.522  21.283  0.00  0.00    +0.046 A 
ATOM     24  C   UNL     1     -11.630   7.173  20.799  0.00  0.00    +0.001 A 
ATOM     25  C   UNL     1     -12.281   8.407  20.777  0.00  0.00    +0.004 A 
BRANCH  20   4
ATOM      4  O   UNL     1     -15.486   7.534  22.298  0.00  0.00    -0.495 OA
ATOM     26  C   UNL     1     -15.670   8.431  23.392  0.00  0.00    +0.277 C 
ENDBRANCH  20   4
ENDBRANCH  16  18
ENDBRANCH   6  16
ENDBRANCH  13   6
ENDBRANCH   8  13
BRANCH  10  14
ATOM     14  C   UNL     1     -16.863   4.209  28.455  0.00  0.00    +0.090 C 
BRANCH  14  15
ATOM      3  O   UNL     1     -14.249   2.214  29.929  0.00  0.00    -0.357 OA
ATOM      7  N   UNL     1     -14.748   3.407  29.423  0.00  0.00    -0.083 NA
ATOM     15  C   UNL     1     -16.003   3.131  29.055  0.00  0.00    +0.086 A 
ATOM     17  C   UNL     1     -16.348   1.790  29.304  0.00  0.00    +0.073 A 
ATOM     19  C   UNL     1     -15.211   1.258  29.853  0.00  0.00    +0.163 A 
BRANCH  19  22
ATOM     22  C   UNL     1     -14.851  -0.076  30.348  0.00  0.00    +0.236 C 
BRANCH  22   5
ATOM      5  O   UNL     1     -13.444  -0.295  30.206  0.00  0.00    -0.375 OA
ATOM     27  C   UNL     1     -13.175  -1.248  29.190  0.00  0.00    +0.194 C 
ENDBRANCH  22   5
ENDBRANCH  19  22
ENDBRANCH  14  15
ENDBRANCH  10  14
TORSDOF 10
ENDMDL
MODEL 3
REMARK VINA RESULT:      -5.9      3.881      4.602
REMARK  Name = 75536297
REMARK  12 active torsions:
REMARK  status: ('A' for Active; 'I' for Inactive)
REMARK    1  A    between atoms: O_2  and  C_9
REMARK    2  A    between atoms: O_4  and  C_20
REMARK    3  A    between atoms: O_4  and  C_26
REMARK    4  A    between atoms: O_5  and  C_22
REMARK    5  A    between atoms: O_5  and  C_27
REMARK    6  A    between atoms: N_6  and  C_13
REMARK    7  A    between atoms: N_6  and  C_16
REMARK    8  A    between atoms: C_8  and  C_13
REMARK    9  A    between atoms: C_10  and  C_14
REMARK   10  A    between atoms: C_14  and  C_15
REMARK   11  A    between atoms: C_16  and  C_18
REMARK   12  A    between atoms: C_19  and  C_22
REMARK                            x       y       z     vdW  Elec       q    Type
REMARK                         _______ _______ _______ _____ _____    ______ ____
ROOT
ATOM      1  O   UNL     1      13.052   8.726  19.171  0.00  0.00    -0.369 OA
ATOM      8  C   UNL     1      12.286   9.666  19.934  0.00  0.00    +0.161 C 
ATOM      9  C   UNL     1      11.421   8.957  20.985  0.00  0.00    +0.145 C 
ATOM     10  C   UNL     1      13.882   7.850  19.937  0.00  0.00    +0.125 C 
ATOM     11  C   UNL     1      12.219   7.956  21.816  0.00  0.00    +0.036 C 
ATOM     12  C   UNL     1      13.041   7.036  20.919  0.00  0.00    +0.034 C 
ENDROOT
BRANCH   9   2
ATOM      2  O   UNL     1      10.381   8.239  20.316  0.00  0.00    -0.389 OA
ATOM     29  H   UNL     1      10.165   7.461  20.859  0.00  0.00    +0.210 HD
ENDBRANCH   9   2
BRANCH   8  13
ATOM     13  C   UNL     1      13.181  10.749  20.532  0.00  0.00    +0.115 C 
BRANCH  13   6
ATOM      6  N   UNL     1      12.452  11.999  20.682  0.00  0.00    -0.309 NA
ATOM     28  H   UNL     1      12.881  12.712  20.091  0.00  0.00    +0.122 HD
BRANCH   6  16
ATOM     16  C   UNL     1      12.453  12.442  22.070  0.00  0.00    +0.120 C 
BRANCH  16  18
ATOM     18  C   UNL     1      11.285  13.342  22.373  0.00  0.00    +0.008 A 
ATOM     20  C   UNL     1      10.896  13.586  23.691  0.00  0.00    +0.124 A 
ATOM     21  C   UNL     1      10.587  13.932  21.319  0.00  0.00    +0.008 A 
ATOM     23  C   UNL     1       9.810  14.421  23.954  0.00  0.00    +0.046 A 
ATOM     24  C   UNL     1       9.501  14.768  21.583  0.00  0.00    +0.001 A 
ATOM     25  C   UNL     1       9.113  15.012  22.900  0.00  0.00    +0.004 A 
BRANCH  20   4
ATOM      4  O   UNL     1      11.565  13.017  24.732  0.00  0.00    -0.495 OA
ATOM     26  C   UNL     1      11.053  11.784  25.235  0.00  0.00    +0.277 C 
ENDBRANCH  20   4
ENDBRANCH  16  18
ENDBRANCH   6  16
ENDBRANCH  13   6
ENDBRANCH   8  13
BRANCH  10  14
ATOM     14  C   UNL     1      14.612   6.937  18.960  0.00  0.00    +0.090 C 
BRANCH  14  15
ATOM      3  O   UNL     1      17.983   5.749  19.412  0.00  0.00    -0.357 OA
ATOM      7  N   UNL     1      16.753   5.741  18.768  0.00  0.00    -0.083 NA
ATOM     15  C   UNL     1      16.025   6.667  19.399  0.00  0.00    +0.086 A 
ATOM     17  C   UNL     1      16.738   7.286  20.441  0.00  0.00    +0.073 A 
ATOM     19  C   UNL     1      17.962   6.673  20.406  0.00  0.00    +0.163 A 
BRANCH  19  22
ATOM     22  C   UNL     1      19.192   6.815  21.196  0.00  0.00    +0.236 C 
BRANCH  22   5
ATOM      5  O   UNL     1      20.216   5.961  20.678  0.00  0.00    -0.375 OA
ATOM     27  C   UNL     1      21.425   6.674  20.478  0.00  0.00    +0.194 C 
ENDBRANCH  22   5
ENDBRANCH  19  22
ENDBRANCH  14  15
ENDBRANCH  10  14
TORSDOF 10
ENDMDL
MODEL 4
REMARK VINA RESULT:      -5.9     26.364     29.057
REMARK  Name = 75536297
REMARK  12 active torsions:
REMARK  status: ('A' for Active; 'I' for Inactive)
REMARK    1  A    between atoms: O_2  and  C_9
REMARK    2  A    between atoms: O_4  and  C_20
REMARK    3  A    between atoms: O_4  and  C_26
REMARK    4  A    between atoms: O_5  and  C_22
REMARK    5  A    between atoms: O_5  and  C_27
REMARK    6  A    between atoms: N_6  and  C_13
REMARK    7  A    between atoms: N_6  and  C_16
REMARK    8  A    between atoms: C_8  and  C_13
REMARK    9  A    between atoms: C_10  and  C_14
REMARK   10  A    between atoms: C_14  and  C_15
REMARK   11  A    between atoms: C_16  and  C_18
REMARK   12  A    between atoms: C_19  and  C_22
REMARK                            x       y       z     vdW  Elec       q    Type
REMARK                         _______ _______ _______ _____ _____    ______ ____
ROOT
ATOM      1  O   UNL     1      -8.346  -8.626  17.408  0.00  0.00    -0.369 OA
ATOM      8  C   UNL     1      -7.617  -9.860  17.428  0.00  0.00    +0.161 C 
ATOM      9  C   UNL     1      -8.286 -10.888  18.351  0.00  0.00    +0.145 C 
ATOM     10  C   UNL     1      -9.726  -8.739  17.051  0.00  0.00    +0.125 C 
ATOM     11  C   UNL     1      -9.780 -11.032  18.076  0.00  0.00    +0.036 C 
ATOM     12  C   UNL     1     -10.458  -9.666  18.020  0.00  0.00    +0.034 C 
ENDROOT
BRANCH   9   2
ATOM      2  O   UNL     1      -8.131 -10.459  19.706  0.00  0.00    -0.389 OA
ATOM     29  H   UNL     1      -7.178 -10.352  19.873  0.00  0.00    +0.210 HD
ENDBRANCH   9   2
BRANCH   8  13
ATOM     13  C   UNL     1      -7.390 -10.388  16.013  0.00  0.00    +0.115 C 
BRANCH  13   6
ATOM      6  N   UNL     1      -6.292  -9.686  15.368  0.00  0.00    -0.309 NA
ATOM     28  H   UNL     1      -6.662  -8.891  14.846  0.00  0.00    +0.122 HD
BRANCH   6  16
ATOM     16  C   UNL     1      -5.561 -10.570  14.470  0.00  0.00    +0.120 C 
BRANCH  16  18
ATOM     18  C   UNL     1      -4.089 -10.598  14.784  0.00  0.00    +0.008 A 
ATOM     20  C   UNL     1      -3.141 -10.501  13.765  0.00  0.00    +0.124 A 
ATOM     21  C   UNL     1      -3.677 -10.723  16.111  0.00  0.00    +0.008 A 
ATOM     23  C   UNL     1      -1.781 -10.529  14.074  0.00  0.00    +0.046 A 
ATOM     24  C   UNL     1      -2.317 -10.751  16.419  0.00  0.00    +0.001 A 
ATOM     25  C   UNL     1      -1.369 -10.654  15.401  0.00  0.00    +0.004 A 
BRANCH  20   4
ATOM      4  O   UNL     1      -3.526 -10.380  12.463  0.00  0.00    -0.495 OA
ATOM     26  C   UNL     1      -2.837 -11.183  11.507  0.00  0.00    +0.277 C 
ENDBRANCH  20   4
ENDBRANCH  16  18
ENDBRANCH   6  16
ENDBRANCH  13   6
ENDBRANCH   8  13
BRANCH  10  14
ATOM     14  C   UNL     1     -10.324  -7.338  17.083  0.00  0.00    +0.090 C 
BRANCH  14  15
ATOM      3  O   UNL     1     -11.879  -7.324  13.832  0.00  0.00    -0.357 OA
ATOM      7  N   UNL     1     -11.108  -7.916  14.824  0.00  0.00    -0.083 NA
ATOM     15  C   UNL     1     -11.081  -7.027  15.821  0.00  0.00    +0.086 A 
ATOM     17  C   UNL     1     -11.812  -5.865  15.518  0.00  0.00    +0.073 A 
ATOM     19  C   UNL     1     -12.293  -6.102  14.258  0.00  0.00    +0.163 A 
BRANCH  19  22
ATOM     22  C   UNL     1     -13.126  -5.331  13.326  0.00  0.00    +0.236 C 
BRANCH  22   5
ATOM      5  O   UNL     1     -12.784  -3.944  13.386  0.00  0.00    -0.375 OA
ATOM     27  C   UNL     1     -12.276  -3.488  12.143  0.00  0.00    +0.194 C 
ENDBRANCH  22   5
ENDBRANCH  19  22
ENDBRANCH  14  15
ENDBRANCH  10  14
TORSDOF 10
ENDMDL
MODEL 5
REMARK VINA RESULT:      -5.9     27.068     28.098
REMARK  Name = 75536297
REMARK  12 active torsions:
REMARK  status: ('A' for Active; 'I' for Inactive)
REMARK    1  A    between atoms: O_2  and  C_9
REMARK    2  A    between atoms: O_4  and  C_20
REMARK    3  A    between atoms: O_4  and  C_26
REMARK    4  A    between atoms: O_5  and  C_22
REMARK    5  A    between atoms: O_5  and  C_27
REMARK    6  A    between atoms: N_6  and  C_13
REMARK    7  A    between atoms: N_6  and  C_16
REMARK    8  A    between atoms: C_8  and  C_13
REMARK    9  A    between atoms: C_10  and  C_14
REMARK   10  A    between atoms: C_14  and  C_15
REMARK   11  A    between atoms: C_16  and  C_18
REMARK   12  A    between atoms: C_19  and  C_22
REMARK                            x       y       z     vdW  Elec       q    Type
REMARK                         _______ _______ _______ _____ _____    ______ ____
ROOT
ATOM      1  O   UNL     1      -3.985 -10.015  12.275  0.00  0.00    -0.369 OA
ATOM      8  C   UNL     1      -4.151 -10.950  13.348  0.00  0.00    +0.161 C 
ATOM      9  C   UNL     1      -4.456 -12.358  12.820  0.00  0.00    +0.145 C 
ATOM     10  C   UNL     1      -2.996 -10.369  11.305  0.00  0.00    +0.125 C 
ATOM     11  C   UNL     1      -3.477 -12.796  11.734  0.00  0.00    +0.036 C 
ATOM     12  C   UNL     1      -3.328 -11.717  10.666  0.00  0.00    +0.034 C 
ENDROOT
BRANCH   9   2
ATOM      2  O   UNL     1      -5.768 -12.361  12.252  0.00  0.00    -0.389 OA
ATOM     29  H   UNL     1      -5.984 -13.280  12.016  0.00  0.00    +0.210 HD
ENDBRANCH   9   2
BRANCH   8  13
ATOM     13  C   UNL     1      -2.954 -10.916  14.297  0.00  0.00    +0.115 C 
BRANCH  13   6
ATOM      6  N   UNL     1      -3.313 -10.293  15.562  0.00  0.00    -0.309 NA
ATOM     28  H   UNL     1      -2.858 -10.796  16.324  0.00  0.00    +0.122 HD
BRANCH   6  16
ATOM     16  C   UNL     1      -4.757 -10.299  15.757  0.00  0.00    +0.120 C 
BRANCH  16  18
ATOM     18  C   UNL     1      -5.131 -10.640  17.174  0.00  0.00    +0.008 A 
ATOM     20  C   UNL     1      -6.289 -10.120  17.751  0.00  0.00    +0.124 A 
ATOM     21  C   UNL     1      -4.303 -11.486  17.913  0.00  0.00    +0.008 A 
ATOM     23  C   UNL     1      -6.620 -10.445  19.066  0.00  0.00    +0.046 A 
ATOM     24  C   UNL     1      -4.634 -11.811  19.229  0.00  0.00    +0.001 A 
ATOM     25  C   UNL     1      -5.792 -11.290  19.805  0.00  0.00    +0.004 A 
BRANCH  20   4
ATOM      4  O   UNL     1      -7.108  -9.291  17.045  0.00  0.00    -0.495 OA
ATOM     26  C   UNL     1      -8.507  -9.389  17.301  0.00  0.00    +0.277 C 
ENDBRANCH  20   4
ENDBRANCH  16  18
ENDBRANCH   6  16
ENDBRANCH  13   6
ENDBRANCH   8  13
BRANCH  10  14
ATOM     14  C   UNL     1      -2.966  -9.264  10.256  0.00  0.00    +0.090 C 
BRANCH  14  15
ATOM      3  O   UNL     1      -5.882  -9.281   8.140  0.00  0.00    -0.357 OA
ATOM      7  N   UNL     1      -4.581  -9.659   8.442  0.00  0.00    -0.083 NA
ATOM     15  C   UNL     1      -4.312  -9.071   9.611  0.00  0.00    +0.086 A 
ATOM     17  C   UNL     1      -5.396  -8.316  10.090  0.00  0.00    +0.073 A 
ATOM     19  C   UNL     1      -6.357  -8.481   9.129  0.00  0.00    +0.163 A 
BRANCH  19  22
ATOM     22  C   UNL     1      -7.731  -7.986   8.968  0.00  0.00    +0.236 C 
BRANCH  22   5
ATOM      5  O   UNL     1      -7.732  -6.754   8.242  0.00  0.00    -0.375 OA
ATOM     27  C   UNL     1      -8.462  -6.873   7.032  0.00  0.00    +0.194 C 
ENDBRANCH  22   5
ENDBRANCH  19  22
ENDBRANCH  14  15
ENDBRANCH  10  14
TORSDOF 10
ENDMDL
MODEL 6
REMARK VINA RESULT:      -5.8     27.101     29.207
REMARK  Name = 75536297
REMARK  12 active torsions:
REMARK  status: ('A' for Active; 'I' for Inactive)
REMARK    1  A    between atoms: O_2  and  C_9
REMARK    2  A    between atoms: O_4  and  C_20
REMARK    3  A    between atoms: O_4  and  C_26
REMARK    4  A    between atoms: O_5  and  C_22
REMARK    5  A    between atoms: O_5  and  C_27
REMARK    6  A    between atoms: N_6  and  C_13
REMARK    7  A    between atoms: N_6  and  C_16
REMARK    8  A    between atoms: C_8  and  C_13
REMARK    9  A    between atoms: C_10  and  C_14
REMARK   10  A    between atoms: C_14  and  C_15
REMARK   11  A    between atoms: C_16  and  C_18
REMARK   12  A    between atoms: C_19  and  C_22
REMARK                            x       y       z     vdW  Elec       q    Type
REMARK                         _______ _______ _______ _____ _____    ______ ____
ROOT
ATOM      1  O   UNL     1      -5.749 -10.488  18.204  0.00  0.00    -0.369 OA
ATOM      8  C   UNL     1      -4.842 -10.340  17.105  0.00  0.00    +0.161 C 
ATOM      9  C   UNL     1      -3.996 -11.605  16.906  0.00  0.00    +0.145 C 
ATOM     10  C   UNL     1      -6.620 -11.619  18.127  0.00  0.00    +0.125 C 
ATOM     11  C   UNL     1      -4.845 -12.873  16.869  0.00  0.00    +0.036 C 
ATOM     12  C   UNL     1      -5.815 -12.914  18.046  0.00  0.00    +0.034 C 
ENDROOT
BRANCH   9   2
ATOM      2  O   UNL     1      -3.082 -11.724  17.999  0.00  0.00    -0.389 OA
ATOM     29  H   UNL     1      -2.446 -10.990  17.931  0.00  0.00    +0.210 HD
ENDBRANCH   9   2
BRANCH   8  13
ATOM     13  C   UNL     1      -5.578  -9.910  15.837  0.00  0.00    +0.115 C 
BRANCH  13   6
ATOM      6  N   UNL     1      -4.698  -9.974  14.681  0.00  0.00    -0.309 NA
ATOM     28  H   UNL     1      -4.313  -9.046  14.499  0.00  0.00    +0.122 HD
BRANCH   6  16
ATOM     16  C   UNL     1      -5.413 -10.452  13.505  0.00  0.00    +0.120 C 
BRANCH  16  18
ATOM     18  C   UNL     1      -4.802  -9.938  12.229  0.00  0.00    +0.008 A 
ATOM     20  C   UNL     1      -3.504 -10.296  11.864  0.00  0.00    +0.124 A 
ATOM     21  C   UNL     1      -5.549  -9.093  11.407  0.00  0.00    +0.008 A 
ATOM     23  C   UNL     1      -2.954  -9.810  10.679  0.00  0.00    +0.046 A 
ATOM     24  C   UNL     1      -4.998  -8.607  10.221  0.00  0.00    +0.001 A 
ATOM     25  C   UNL     1      -3.701  -8.965   9.857  0.00  0.00    +0.004 A 
BRANCH  20   4
ATOM      4  O   UNL     1      -2.760 -11.119  12.656  0.00  0.00    -0.495 OA
ATOM     26  C   UNL     1      -2.585 -12.462  12.210  0.00  0.00    +0.277 C 
ENDBRANCH  20   4
ENDBRANCH  16  18
ENDBRANCH   6  16
ENDBRANCH  13   6
ENDBRANCH   8  13
BRANCH  10  14
ATOM     14  C   UNL     1      -7.502 -11.605  19.370  0.00  0.00    +0.090 C 
BRANCH  14  15
ATOM      3  O   UNL     1     -10.714  -9.985  19.580  0.00  0.00    -0.357 OA
ATOM      7  N   UNL     1      -9.702 -10.781  20.101  0.00  0.00    -0.083 NA
ATOM     15  C   UNL     1      -8.766 -10.820  19.148  0.00  0.00    +0.086 A 
ATOM     17  C   UNL     1      -9.130 -10.075  18.013  0.00  0.00    +0.073 A 
ATOM     19  C   UNL     1     -10.361  -9.571  18.336  0.00  0.00    +0.163 A 
BRANCH  19  22
ATOM     22  C   UNL     1     -11.325  -8.713  17.633  0.00  0.00    +0.236 C 
BRANCH  22   5
ATOM      5  O   UNL     1     -10.678  -8.005  16.572  0.00  0.00    -0.375 OA
ATOM     27  C   UNL     1     -11.246  -6.718  16.394  0.00  0.00    +0.194 C 
ENDBRANCH  22   5
ENDBRANCH  19  22
ENDBRANCH  14  15
ENDBRANCH  10  14
TORSDOF 10
ENDMDL
MODEL 7
REMARK VINA RESULT:      -5.7     25.995     29.098
REMARK  Name = 75536297
REMARK  12 active torsions:
REMARK  status: ('A' for Active; 'I' for Inactive)
REMARK    1  A    between atoms: O_2  and  C_9
REMARK    2  A    between atoms: O_4  and  C_20
REMARK    3  A    between atoms: O_4  and  C_26
REMARK    4  A    between atoms: O_5  and  C_22
REMARK    5  A    between atoms: O_5  and  C_27
REMARK    6  A    between atoms: N_6  and  C_13
REMARK    7  A    between atoms: N_6  and  C_16
REMARK    8  A    between atoms: C_8  and  C_13
REMARK    9  A    between atoms: C_10  and  C_14
REMARK   10  A    between atoms: C_14  and  C_15
REMARK   11  A    between atoms: C_16  and  C_18
REMARK   12  A    between atoms: C_19  and  C_22
REMARK                            x       y       z     vdW  Elec       q    Type
REMARK                         _______ _______ _______ _____ _____    ______ ____
ROOT
ATOM      1  O   UNL     1      -8.497  -8.762  17.550  0.00  0.00    -0.369 OA
ATOM      8  C   UNL     1      -7.252  -9.459  17.413  0.00  0.00    +0.161 C 
ATOM      9  C   UNL     1      -7.131 -10.591  18.443  0.00  0.00    +0.145 C 
ATOM     10  C   UNL     1      -9.666  -9.582  17.475  0.00  0.00    +0.125 C 
ATOM     11  C   UNL     1      -8.366 -11.486  18.471  0.00  0.00    +0.036 C 
ATOM     12  C   UNL     1      -9.642 -10.654  18.563  0.00  0.00    +0.034 C 
ENDROOT
BRANCH   9   2
ATOM      2  O   UNL     1      -6.980 -10.015  19.743  0.00  0.00    -0.389 OA
ATOM     29  H   UNL     1      -6.536  -9.156  19.634  0.00  0.00    +0.210 HD
ENDBRANCH   9   2
BRANCH   8  13
ATOM     13  C   UNL     1      -7.042  -9.935  15.978  0.00  0.00    +0.115 C 
BRANCH  13   6
ATOM      6  N   UNL     1      -5.722  -9.559  15.495  0.00  0.00    -0.309 NA
ATOM     28  H   UNL     1      -5.821  -8.998  14.649  0.00  0.00    +0.122 HD
BRANCH   6  16
ATOM     16  C   UNL     1      -4.912 -10.737  15.215  0.00  0.00    +0.120 C 
BRANCH  16  18
ATOM     18  C   UNL     1      -4.117 -10.584  13.947  0.00  0.00    +0.008 A 
ATOM     20  C   UNL     1      -2.732 -10.755  13.948  0.00  0.00    +0.124 A 
ATOM     21  C   UNL     1      -4.779 -10.265  12.761  0.00  0.00    +0.008 A 
ATOM     23  C   UNL     1      -2.011 -10.608  12.763  0.00  0.00    +0.046 A 
ATOM     24  C   UNL     1      -4.057 -10.119  11.576  0.00  0.00    +0.001 A 
ATOM     25  C   UNL     1      -2.674 -10.290  11.578  0.00  0.00    +0.004 A 
BRANCH  20   4
ATOM      4  O   UNL     1      -2.069 -11.065  15.097  0.00  0.00    -0.495 OA
ATOM     26  C   UNL     1      -1.118 -10.114  15.572  0.00  0.00    +0.277 C 
ENDBRANCH  20   4
ENDBRANCH  16  18
ENDBRANCH   6  16
ENDBRANCH  13   6
ENDBRANCH   8  13
BRANCH  10  14
ATOM     14  C   UNL     1     -10.877  -8.671  17.637  0.00  0.00    +0.090 C 
BRANCH  14  15
ATOM      3  O   UNL     1     -11.528  -7.646  14.244  0.00  0.00    -0.357 OA
ATOM      7  N   UNL     1     -11.193  -8.599  15.198  0.00  0.00    -0.083 NA
ATOM     15  C   UNL     1     -11.199  -7.941  16.362  0.00  0.00    +0.086 A 
ATOM     17  C   UNL     1     -11.529  -6.583  16.205  0.00  0.00    +0.073 A 
ATOM     19  C   UNL     1     -11.726  -6.450  14.856  0.00  0.00    +0.163 A 
BRANCH  19  22
ATOM     22  C   UNL     1     -12.090  -5.323  13.988  0.00  0.00    +0.236 C 
BRANCH  22   5
ATOM      5  O   UNL     1     -12.382  -5.787  12.667  0.00  0.00    -0.375 OA
ATOM     27  C   UNL     1     -12.271  -4.738  11.720  0.00  0.00    +0.194 C 
ENDBRANCH  22   5
ENDBRANCH  19  22
ENDBRANCH  14  15
ENDBRANCH  10  14
TORSDOF 10
ENDMDL
MODEL 8
REMARK VINA RESULT:      -5.7     16.368     20.292
REMARK  Name = 75536297
REMARK  12 active torsions:
REMARK  status: ('A' for Active; 'I' for Inactive)
REMARK    1  A    between atoms: O_2  and  C_9
REMARK    2  A    between atoms: O_4  and  C_20
REMARK    3  A    between atoms: O_4  and  C_26
REMARK    4  A    between atoms: O_5  and  C_22
REMARK    5  A    between atoms: O_5  and  C_27
REMARK    6  A    between atoms: N_6  and  C_13
REMARK    7  A    between atoms: N_6  and  C_16
REMARK    8  A    between atoms: C_8  and  C_13
REMARK    9  A    between atoms: C_10  and  C_14
REMARK   10  A    between atoms: C_14  and  C_15
REMARK   11  A    between atoms: C_16  and  C_18
REMARK   12  A    between atoms: C_19  and  C_22
REMARK                            x       y       z     vdW  Elec       q    Type
REMARK                         _______ _______ _______ _____ _____    ______ ____
ROOT
ATOM      1  O   UNL     1      12.809   3.137   0.684  0.00  0.00    -0.369 OA
ATOM      8  C   UNL     1      13.252   3.962   1.768  0.00  0.00    +0.161 C 
ATOM      9  C   UNL     1      14.746   4.293   1.643  0.00  0.00    +0.145 C 
ATOM     10  C   UNL     1      13.059   3.660  -0.623  0.00  0.00    +0.125 C 
ATOM     11  C   UNL     1      15.113   4.808   0.255  0.00  0.00    +0.036 C 
ATOM     12  C   UNL     1      14.554   3.894  -0.832  0.00  0.00    +0.034 C 
ENDROOT
BRANCH   9   2
ATOM      2  O   UNL     1      15.502   3.103   1.882  0.00  0.00    -0.389 OA
ATOM     29  H   UNL     1      16.406   3.260   1.560  0.00  0.00    +0.210 HD
ENDBRANCH   9   2
BRANCH   8  13
ATOM     13  C   UNL     1      12.377   5.206   1.906  0.00  0.00    +0.115 C 
BRANCH  13   6
ATOM      6  N   UNL     1      11.955   5.392   3.286  0.00  0.00    -0.309 NA
ATOM     28  H   UNL     1      12.446   4.724   3.881  0.00  0.00    +0.122 HD
BRANCH   6  16
ATOM     16  C   UNL     1      10.516   5.213   3.423  0.00  0.00    +0.120 C 
BRANCH  16  18
ATOM     18  C   UNL     1       9.877   6.349   4.176  0.00  0.00    +0.008 A 
ATOM     20  C   UNL     1      10.299   6.676   5.465  0.00  0.00    +0.124 A 
ATOM     21  C   UNL     1       8.852   7.077   3.572  0.00  0.00    +0.008 A 
ATOM     23  C   UNL     1       9.695   7.731   6.149  0.00  0.00    +0.046 A 
ATOM     24  C   UNL     1       8.248   8.132   4.256  0.00  0.00    +0.001 A 
ATOM     25  C   UNL     1       8.670   8.459   5.544  0.00  0.00    +0.004 A 
BRANCH  20   4
ATOM      4  O   UNL     1      11.298   5.975   6.071  0.00  0.00    -0.495 OA
ATOM     26  C   UNL     1      12.058   6.658   7.066  0.00  0.00    +0.277 C 
ENDBRANCH  20   4
ENDBRANCH  16  18
ENDBRANCH   6  16
ENDBRANCH  13   6
ENDBRANCH   8  13
BRANCH  10  14
ATOM     14  C   UNL     1      12.521   2.652  -1.631  0.00  0.00    +0.090 C 
BRANCH  14  15
ATOM      3  O   UNL     1       9.330   3.019  -3.266  0.00  0.00    -0.357 OA
ATOM      7  N   UNL     1      10.365   2.251  -2.747  0.00  0.00    -0.083 NA
ATOM     15  C   UNL     1      11.251   3.135  -2.277  0.00  0.00    +0.086 A 
ATOM     17  C   UNL     1      10.832   4.463  -2.470  0.00  0.00    +0.073 A 
ATOM     19  C   UNL     1       9.620   4.335  -3.094  0.00  0.00    +0.163 A 
BRANCH  19  22
ATOM     22  C   UNL     1       8.625   5.295  -3.589  0.00  0.00    +0.236 C 
BRANCH  22   5
ATOM      5  O   UNL     1       9.228   6.577  -3.788  0.00  0.00    -0.375 OA
ATOM     27  C   UNL     1       8.268   7.615  -3.684  0.00  0.00    +0.194 C 
ENDBRANCH  22   5
ENDBRANCH  19  22
ENDBRANCH  14  15
ENDBRANCH  10  14
TORSDOF 10
ENDMDL
MODEL 9
REMARK VINA RESULT:      -5.7     26.502     28.204
REMARK  Name = 75536297
REMARK  12 active torsions:
REMARK  status: ('A' for Active; 'I' for Inactive)
REMARK    1  A    between atoms: O_2  and  C_9
REMARK    2  A    between atoms: O_4  and  C_20
REMARK    3  A    between atoms: O_4  and  C_26
REMARK    4  A    between atoms: O_5  and  C_22
REMARK    5  A    between atoms: O_5  and  C_27
REMARK    6  A    between atoms: N_6  and  C_13
REMARK    7  A    between atoms: N_6  and  C_16
REMARK    8  A    between atoms: C_8  and  C_13
REMARK    9  A    between atoms: C_10  and  C_14
REMARK   10  A    between atoms: C_14  and  C_15
REMARK   11  A    between atoms: C_16  and  C_18
REMARK   12  A    between atoms: C_19  and  C_22
REMARK                            x       y       z     vdW  Elec       q    Type
REMARK                         _______ _______ _______ _____ _____    ______ ____
ROOT
ATOM      1  O   UNL     1      -4.456 -11.567  14.586  0.00  0.00    -0.369 OA
ATOM      8  C   UNL     1      -5.178 -11.132  15.745  0.00  0.00    +0.161 C 
ATOM      9  C   UNL     1      -4.340 -11.299  17.019  0.00  0.00    +0.145 C 
ATOM     10  C   UNL     1      -3.186 -10.941  14.389  0.00  0.00    +0.125 C 
ATOM     11  C   UNL     1      -2.941 -10.707  16.878  0.00  0.00    +0.036 C 
ATOM     12  C   UNL     1      -2.275 -11.185  15.591  0.00  0.00    +0.034 C 
ENDROOT
BRANCH   9   2
ATOM      2  O   UNL     1      -4.198 -12.695  17.296  0.00  0.00    -0.389 OA
ATOM     29  H   UNL     1      -3.483 -12.794  17.948  0.00  0.00    +0.210 HD
ENDBRANCH   9   2
BRANCH   8  13
ATOM     13  C   UNL     1      -5.708  -9.711  15.562  0.00  0.00    +0.115 C 
BRANCH  13   6
ATOM      6  N   UNL     1      -6.698  -9.392  16.579  0.00  0.00    -0.309 NA
ATOM     28  H   UNL     1      -6.431  -9.835  17.459  0.00  0.00    +0.122 HD
BRANCH   6  16
ATOM     16  C   UNL     1      -8.024  -9.846  16.179  0.00  0.00    +0.120 C 
BRANCH  16  18
ATOM     18  C   UNL     1      -8.957  -9.959  17.355  0.00  0.00    +0.008 A 
ATOM     20  C   UNL     1      -8.647 -10.786  18.435  0.00  0.00    +0.124 A 
ATOM     21  C   UNL     1     -10.144  -9.226  17.356  0.00  0.00    +0.008 A 
ATOM     23  C   UNL     1      -9.524 -10.880  19.515  0.00  0.00    +0.046 A 
ATOM     24  C   UNL     1     -11.021  -9.319  18.437  0.00  0.00    +0.001 A 
ATOM     25  C   UNL     1     -10.711 -10.146  19.516  0.00  0.00    +0.004 A 
BRANCH  20   4
ATOM      4  O   UNL     1      -7.493 -11.511  18.450  0.00  0.00    -0.495 OA
ATOM     26  C   UNL     1      -7.127 -12.121  19.685  0.00  0.00    +0.277 C 
ENDBRANCH  20   4
ENDBRANCH  16  18
ENDBRANCH   6  16
ENDBRANCH  13   6
ENDBRANCH   8  13
BRANCH  10  14
ATOM     14  C   UNL     1      -2.578 -11.526  13.120  0.00  0.00    +0.090 C 
BRANCH  14  15
ATOM      3  O   UNL     1      -2.231  -9.171  10.415  0.00  0.00    -0.357 OA
ATOM      7  N   UNL     1      -1.726  -9.894  11.488  0.00  0.00    -0.083 NA
ATOM     15  C   UNL     1      -2.760 -10.609  11.941  0.00  0.00    +0.086 A 
ATOM     17  C   UNL     1      -3.932 -10.381  11.199  0.00  0.00    +0.073 A 
ATOM     19  C   UNL     1      -3.545  -9.470  10.252  0.00  0.00    +0.163 A 
BRANCH  19  22
ATOM     22  C   UNL     1      -4.241  -8.789   9.153  0.00  0.00    +0.236 C 
BRANCH  22   5
ATOM      5  O   UNL     1      -5.375  -9.554   8.734  0.00  0.00    -0.375 OA
ATOM     27  C   UNL     1      -5.073 -10.331   7.587  0.00  0.00    +0.194 C 
ENDBRANCH  22   5
ENDBRANCH  19  22
ENDBRANCH  14  15
ENDBRANCH  10  14
TORSDOF 10
ENDMDL
MODEL 10
REMARK VINA RESULT:      -5.6     27.001     28.669
REMARK  Name = 75536297
REMARK  12 active torsions:
REMARK  status: ('A' for Active; 'I' for Inactive)
REMARK    1  A    between atoms: O_2  and  C_9
REMARK    2  A    between atoms: O_4  and  C_20
REMARK    3  A    between atoms: O_4  and  C_26
REMARK    4  A    between atoms: O_5  and  C_22
REMARK    5  A    between atoms: O_5  and  C_27
REMARK    6  A    between atoms: N_6  and  C_13
REMARK    7  A    between atoms: N_6  and  C_16
REMARK    8  A    between atoms: C_8  and  C_13
REMARK    9  A    between atoms: C_10  and  C_14
REMARK   10  A    between atoms: C_14  and  C_15
REMARK   11  A    between atoms: C_16  and  C_18
REMARK   12  A    between atoms: C_19  and  C_22
REMARK                            x       y       z     vdW  Elec       q    Type
REMARK                         _______ _______ _______ _____ _____    ______ ____
ROOT
ATOM      1  O   UNL     1      -4.091 -11.843  14.154  0.00  0.00    -0.369 OA
ATOM      8  C   UNL     1      -2.703 -12.092  14.408  0.00  0.00    +0.161 C 
ATOM      9  C   UNL     1      -1.866 -11.941  13.130  0.00  0.00    +0.145 C 
ATOM     10  C   UNL     1      -4.384 -10.578  13.556  0.00  0.00    +0.125 C 
ATOM     11  C   UNL     1      -2.159 -10.637  12.394  0.00  0.00    +0.036 C 
ATOM     12  C   UNL     1      -3.661 -10.435  12.218  0.00  0.00    +0.034 C 
ENDROOT
BRANCH   9   2
ATOM      2  O   UNL     1      -2.178 -13.021  12.246  0.00  0.00    -0.389 OA
ATOM     29  H   UNL     1      -1.419 -13.142  11.650  0.00  0.00    +0.210 HD
ENDBRANCH   9   2
BRANCH   8  13
ATOM     13  C   UNL     1      -2.191 -11.230  15.560  0.00  0.00    +0.115 C 
BRANCH  13   6
ATOM      6  N   UNL     1      -3.290 -10.783  16.401  0.00  0.00    -0.309 NA
ATOM     28  H   UNL     1      -3.186  -9.786  16.589  0.00  0.00    +0.122 HD
BRANCH   6  16
ATOM     16  C   UNL     1      -3.324 -11.522  17.656  0.00  0.00    +0.120 C 
BRANCH  16  18
ATOM     18  C   UNL     1      -4.730 -11.720  18.154  0.00  0.00    +0.008 A 
ATOM     20  C   UNL     1      -5.554 -12.697  17.595  0.00  0.00    +0.124 A 
ATOM     21  C   UNL     1      -5.208 -10.912  19.186  0.00  0.00    +0.008 A 
ATOM     23  C   UNL     1      -6.855 -12.865  18.067  0.00  0.00    +0.046 A 
ATOM     24  C   UNL     1      -6.509 -11.081  19.660  0.00  0.00    +0.001 A 
ATOM     25  C   UNL     1      -7.333 -12.057  19.100  0.00  0.00    +0.004 A 
BRANCH  20   4
ATOM      4  O   UNL     1      -5.105 -13.493  16.584  0.00  0.00    -0.495 OA
ATOM     26  C   UNL     1      -6.023 -14.448  16.055  0.00  0.00    +0.277 C 
ENDBRANCH  20   4
ENDBRANCH  16  18
ENDBRANCH   6  16
ENDBRANCH  13   6
ENDBRANCH   8  13
BRANCH  10  14
ATOM     14  C   UNL     1      -5.894 -10.499  13.368  0.00  0.00    +0.090 C 
BRANCH  14  15
ATOM      3  O   UNL     1      -6.824  -9.281  16.630  0.00  0.00    -0.357 OA
ATOM      7  N   UNL     1      -5.890  -9.544  15.635  0.00  0.00    -0.083 NA
ATOM     15  C   UNL     1      -6.592 -10.084  14.634  0.00  0.00    +0.086 A 
ATOM     17  C   UNL     1      -7.962 -10.185  14.937  0.00  0.00    +0.073 A 
ATOM     19  C   UNL     1      -8.054  -9.667  16.202  0.00  0.00    +0.163 A 
BRANCH  19  22
ATOM     22  C   UNL     1      -9.167  -9.460  17.137  0.00  0.00    +0.236 C 
BRANCH  22   5
ATOM      5  O   UNL     1      -9.360  -8.063  17.377  0.00  0.00    -0.375 OA
ATOM     27  C   UNL     1     -10.339  -7.524  16.504  0.00  0.00    +0.194 C 
ENDBRANCH  22   5
ENDBRANCH  19  22
ENDBRANCH  14  15
ENDBRANCH  10  14
TORSDOF 10
ENDMDL
