REMARK  Name = 11885142
REMARK  2 active torsions:
REMARK  status: ('A' for Active; 'I' for Inactive)
REMARK    1  A    between atoms: C_15  and  C_18
REMARK    2  A    between atoms: C_16  and  C_19
REMARK                            x       y       z     vdW  Elec       q    Type
REMARK                         _______ _______ _______ _____ _____    ______ ____
ROOT
ATOM      1  O   UNL     1      -0.830  -1.893   1.559  0.00  0.00    -0.267 OA
ATOM      2  O   UNL     1       2.523   1.131   2.157  0.00  0.00    -0.267 OA
ATOM      4  N   UNL     1       3.690  -0.092   0.571  0.00  0.00    -0.294 N 
ATOM      5  N   UNL     1       1.085  -1.838   0.229  0.00  0.00    -0.311 N 
ATOM      6  C   UNL     1       3.397  -2.502   1.113  0.00  0.00    +0.027 C 
ATOM      7  C   UNL     1       3.148  -1.732  -1.212  0.00  0.00    +0.054 C 
ATOM      8  C   UNL     1       3.694  -2.861  -0.339  0.00  0.00    +0.018 C 
ATOM      9  C   UNL     1       1.876  -2.451   1.306  0.00  0.00    +0.130 C 
ATOM     10  C   UNL     1       4.074  -1.170   1.485  0.00  0.00    +0.113 C 
ATOM     11  C   UNL     1       3.862  -0.411  -0.857  0.00  0.00    +0.117 C 
ATOM     12  C   UNL     1       1.653  -1.568  -1.020  0.00  0.00    +0.027 A 
ATOM     13  C   UNL     1       0.885  -1.122  -2.027  0.00  0.00    +0.022 A 
ATOM     14  C   UNL     1      -0.285  -1.636   0.484  0.00  0.00    +0.259 A 
ATOM     15  C   UNL     1       3.130   1.092   1.086  0.00  0.00    +0.282 C 
ATOM     16  C   UNL     1      -1.109  -1.091  -0.651  0.00  0.00    +0.047 A 
ATOM     17  C   UNL     1      -0.515  -0.877  -1.835  0.00  0.00    +0.015 A 
ENDROOT
BRANCH  16  19
ATOM     19  C   UNL     1      -2.538  -0.779  -0.475  0.00  0.00    -0.012 A 
ATOM     20  C   UNL     1      -2.928   0.490  -0.044  0.00  0.00    +0.017 A 
ATOM     22  C   UNL     1      -3.500  -1.750  -0.738  0.00  0.00    +0.009 A 
ATOM     23  C   UNL     1      -4.286   0.803   0.129  0.00  0.00    -0.017 A 
ATOM     24  C   UNL     1      -4.854  -1.457  -0.572  0.00  0.00    +0.009 A 
ATOM     25  C   UNL     1      -5.263  -0.185  -0.140  0.00  0.00    -0.018 A 
ATOM     28  C   UNL     1      -4.696   2.075   0.561  0.00  0.00    +0.008 A 
ATOM     29  C   UNL     1      -6.622   0.128   0.033  0.00  0.00    +0.008 A 
ATOM     30  C   UNL     1      -6.050   2.368   0.727  0.00  0.00    +0.001 A 
ATOM     31  C   UNL     1      -7.011   1.397   0.464  0.00  0.00    +0.001 A 
ENDBRANCH  16  19
BRANCH  15  18
ATOM      3  O   UNL     1       4.361   2.397  -0.513  0.00  0.00    -0.458 OA
ATOM     18  C   UNL     1       3.268   2.297   0.280  0.00  0.00    +0.189 A 
ATOM     21  C   UNL     1       2.468   3.401   0.164  0.00  0.00    +0.054 A 
ATOM     26  C   UNL     1       3.112   4.247  -0.770  0.00  0.00    +0.042 A 
ATOM     27  C   UNL     1       4.259   3.591  -1.152  0.00  0.00    +0.196 A 
ENDBRANCH  15  18
TORSDOF 2
