MODEL 1
REMARK VINA RESULT:      -6.9      0.000      0.000
REMARK  Name = 71692863
REMARK  7 active torsions:
REMARK  status: ('A' for Active; 'I' for Inactive)
REMARK    1  A    between atoms: N_6  and  C_21
REMARK    2  A    between atoms: N_6  and  C_22
REMARK    3  A    between atoms: N_8  and  C_29
REMARK    4  A    between atoms: C_10  and  C_15
REMARK    5  A    between atoms: C_15  and  C_18
REMARK    6  A    between atoms: C_21  and  C_26
REMARK    7  A    between atoms: C_22  and  C_27
REMARK                            x       y       z     vdW  Elec       q    Type
REMARK                         _______ _______ _______ _____ _____    ______ ____
ROOT
ATOM      1  O   UNL     1      15.602   9.911  20.163  0.00  0.00    -0.492 OA
ATOM      2  O   UNL     1      12.677   8.902  18.269  0.00  0.00    -0.274 OA
ATOM      5  N   UNL     1      11.626   8.679  20.321  0.00  0.00    -0.300 N 
ATOM      7  N   UNL     1      14.237   6.916  20.106  0.00  0.00    -0.304 NA
ATOM      9  C   UNL     1      11.715  10.746  21.675  0.00  0.00    +0.010 C 
ATOM     10  C   UNL     1      11.003   9.990  22.833  0.00  0.00    +0.004 C 
ATOM     11  C   UNL     1      11.330   8.487  22.792  0.00  0.00    +0.023 C 
ATOM     12  C   UNL     1      11.251  10.097  20.356  0.00  0.00    +0.111 C 
ATOM     13  C   UNL     1      13.255  10.734  21.823  0.00  0.00    +0.008 C 
ATOM     14  C   UNL     1      11.065   7.874  21.415  0.00  0.00    +0.108 C 
ATOM     16  C   UNL     1      14.019  11.577  20.791  0.00  0.00    +0.041 C 
ATOM     17  C   UNL     1      12.400   8.212  19.258  0.00  0.00    +0.229 C 
ATOM     19  C   UNL     1      15.502  11.190  20.791  0.00  0.00    +0.229 C 
ATOM     20  C   UNL     1      12.987   6.815  19.350  0.00  0.00    +0.178 C 
ATOM     23  C   UNL     1      15.369   7.275  19.244  0.00  0.00    +0.120 C 
ATOM     24  C   UNL     1      16.661   9.101  20.477  0.00  0.00    +0.125 A 
ATOM     25  C   UNL     1      16.562   7.762  20.041  0.00  0.00    +0.010 A 
ATOM     28  C   UNL     1      17.592   6.861  20.352  0.00  0.00    +0.031 A 
ATOM     29  C   UNL     1      18.715   7.286  21.058  0.00  0.00    +0.030 A 
ATOM     30  C   UNL     1      17.803   9.523  21.165  0.00  0.00    +0.048 A 
ATOM     31  C   UNL     1      18.824   8.616  21.457  0.00  0.00    +0.027 A 
ATOM     36  H   UNL     1      14.438   6.017  20.545  0.00  0.00    +0.123 HD
ENDROOT
BRANCH  29   8
ATOM      4  O   UNL     1      21.566   4.373  22.092  0.00  0.00    -0.377 OA
ATOM      8  N   UNL     1      19.730   6.376  21.374  0.00  0.00    -0.326 N 
ATOM     32  C   UNL     1      19.807   5.128  20.603  0.00  0.00    +0.133 C 
ATOM     33  C   UNL     1      20.235   6.293  22.749  0.00  0.00    +0.133 C 
ATOM     34  C   UNL     1      21.207   4.536  20.720  0.00  0.00    +0.178 C 
ATOM     35  C   UNL     1      21.612   5.638  22.752  0.00  0.00    +0.178 C 
ENDBRANCH  29   8
BRANCH  10  15
ATOM     15  C   UNL     1      11.302  10.571  24.214  0.00  0.00    +0.100 C 
BRANCH  15  18
ATOM      3  O   UNL     1       9.786  12.414  23.993  0.00  0.00    -0.276 OA
ATOM      6  N   UNL     1      11.899  12.895  24.818  0.00  0.00    -0.302 N 
ATOM     18  C   UNL     1      10.913  12.036  24.325  0.00  0.00    +0.216 C 
BRANCH   6  21
ATOM     21  C   UNL     1      11.677  14.327  24.982  0.00  0.00    +0.104 C 
ATOM     26  C   UNL     1      11.648  14.720  26.445  0.00  0.00    +0.024 C 
ENDBRANCH   6  21
BRANCH   6  22
ATOM     22  C   UNL     1      13.227  12.425  25.205  0.00  0.00    +0.104 C 
ATOM     27  C   UNL     1      14.313  13.093  24.387  0.00  0.00    +0.024 C 
ENDBRANCH   6  22
ENDBRANCH  15  18
ENDBRANCH  10  15
TORSDOF 5
ENDMDL
MODEL 2
REMARK VINA RESULT:      -6.7     27.874     30.890
REMARK  Name = 71692863
REMARK  7 active torsions:
REMARK  status: ('A' for Active; 'I' for Inactive)
REMARK    1  A    between atoms: N_6  and  C_21
REMARK    2  A    between atoms: N_6  and  C_22
REMARK    3  A    between atoms: N_8  and  C_29
REMARK    4  A    between atoms: C_10  and  C_15
REMARK    5  A    between atoms: C_15  and  C_18
REMARK    6  A    between atoms: C_21  and  C_26
REMARK    7  A    between atoms: C_22  and  C_27
REMARK                            x       y       z     vdW  Elec       q    Type
REMARK                         _______ _______ _______ _____ _____    ______ ____
ROOT
ATOM      1  O   UNL     1      -3.546 -11.746  16.451  0.00  0.00    -0.492 OA
ATOM      2  O   UNL     1      -2.266 -14.637  14.671  0.00  0.00    -0.274 OA
ATOM      5  N   UNL     1      -3.126 -13.641  12.764  0.00  0.00    -0.300 N 
ATOM      7  N   UNL     1      -5.326 -14.095  14.984  0.00  0.00    -0.304 NA
ATOM      9  C   UNL     1      -2.272 -11.347  12.412  0.00  0.00    +0.010 C 
ATOM     10  C   UNL     1      -3.199 -11.219  11.170  0.00  0.00    +0.004 C 
ATOM     11  C   UNL     1      -4.455 -12.093  11.328  0.00  0.00    +0.023 C 
ATOM     12  C   UNL     1      -1.914 -12.840  12.559  0.00  0.00    +0.111 C 
ATOM     13  C   UNL     1      -2.921 -10.772  13.693  0.00  0.00    +0.008 C 
ATOM     14  C   UNL     1      -4.113 -13.542  11.680  0.00  0.00    +0.108 C 
ATOM     16  C   UNL     1      -2.011 -10.741  14.931  0.00  0.00    +0.041 C 
ATOM     17  C   UNL     1      -3.213 -14.453  13.897  0.00  0.00    +0.229 C 
ATOM     19  C   UNL     1      -2.851 -10.524  16.194  0.00  0.00    +0.229 C 
ATOM     20  C   UNL     1      -4.553 -15.084  14.231  0.00  0.00    +0.178 C 
ATOM     23  C   UNL     1      -5.012 -14.132  16.417  0.00  0.00    +0.120 C 
ATOM     24  C   UNL     1      -4.720 -11.704  17.153  0.00  0.00    +0.125 A 
ATOM     25  C   UNL     1      -5.489 -12.889  17.139  0.00  0.00    +0.010 A 
ATOM     28  C   UNL     1      -6.722 -12.915  17.809  0.00  0.00    +0.031 A 
ATOM     29  C   UNL     1      -7.172 -11.796  18.506  0.00  0.00    +0.030 A 
ATOM     30  C   UNL     1      -5.171 -10.594  17.875  0.00  0.00    +0.048 A 
ATOM     31  C   UNL     1      -6.395 -10.642  18.545  0.00  0.00    +0.027 A 
ATOM     36  H   UNL     1      -6.321 -14.286  14.867  0.00  0.00    +0.123 HD
ENDROOT
BRANCH  29   8
ATOM      4  O   UNL     1     -11.001 -11.996  20.233  0.00  0.00    -0.377 OA
ATOM      8  N   UNL     1      -8.409 -11.830  19.159  0.00  0.00    -0.326 N 
ATOM     32  C   UNL     1      -9.029 -13.139  19.404  0.00  0.00    +0.133 C 
ATOM     33  C   UNL     1      -9.348 -10.713  19.004  0.00  0.00    +0.133 C 
ATOM     34  C   UNL     1     -10.053 -13.022  20.527  0.00  0.00    +0.178 C 
ATOM     35  C   UNL     1     -10.356 -10.726  20.148  0.00  0.00    +0.178 C 
ENDBRANCH  29   8
BRANCH  10  15
ATOM     15  C   UNL     1      -3.582  -9.776  10.842  0.00  0.00    +0.100 C 
BRANCH  15  18
ATOM      3  O   UNL     1      -4.544 -10.033   8.662  0.00  0.00    -0.276 OA
ATOM      6  N   UNL     1      -5.935  -9.211  10.327  0.00  0.00    -0.302 N 
ATOM     18  C   UNL     1      -4.717  -9.691   9.836  0.00  0.00    +0.216 C 
BRANCH   6  21
ATOM     21  C   UNL     1      -7.117  -9.071   9.485  0.00  0.00    +0.104 C 
ATOM     26  C   UNL     1      -7.161  -7.716   8.809  0.00  0.00    +0.024 C 
ENDBRANCH   6  21
BRANCH   6  22
ATOM     22  C   UNL     1      -6.116  -8.811  11.721  0.00  0.00    +0.104 C 
ATOM     27  C   UNL     1      -7.128  -9.692  12.423  0.00  0.00    +0.024 C 
ENDBRANCH   6  22
ENDBRANCH  15  18
ENDBRANCH  10  15
TORSDOF 5
ENDMDL
MODEL 3
REMARK VINA RESULT:      -6.4      3.184     10.176
REMARK  Name = 71692863
REMARK  7 active torsions:
REMARK  status: ('A' for Active; 'I' for Inactive)
REMARK    1  A    between atoms: N_6  and  C_21
REMARK    2  A    between atoms: N_6  and  C_22
REMARK    3  A    between atoms: N_8  and  C_29
REMARK    4  A    between atoms: C_10  and  C_15
REMARK    5  A    between atoms: C_15  and  C_18
REMARK    6  A    between atoms: C_21  and  C_26
REMARK    7  A    between atoms: C_22  and  C_27
REMARK                            x       y       z     vdW  Elec       q    Type
REMARK                         _______ _______ _______ _____ _____    ______ ____
ROOT
ATOM      1  O   UNL     1      18.594   7.431  20.460  0.00  0.00    -0.492 OA
ATOM      2  O   UNL     1      20.795  10.290  20.839  0.00  0.00    -0.274 OA
ATOM      5  N   UNL     1      21.353   9.383  22.896  0.00  0.00    -0.300 N 
ATOM      7  N   UNL     1      18.251   9.902  22.609  0.00  0.00    -0.304 NA
ATOM      9  C   UNL     1      22.173   7.055  22.727  0.00  0.00    +0.010 C 
ATOM     10  C   UNL     1      22.271   7.003  24.278  0.00  0.00    +0.004 C 
ATOM     11  C   UNL     1      21.236   7.938  24.927  0.00  0.00    +0.023 C 
ATOM     12  C   UNL     1      22.388   8.524  22.308  0.00  0.00    +0.111 C 
ATOM     13  C   UNL     1      20.834   6.487  22.202  0.00  0.00    +0.008 C 
ATOM     14  C   UNL     1      21.305   9.360  24.364  0.00  0.00    +0.108 C 
ATOM     16  C   UNL     1      20.721   6.381  20.673  0.00  0.00    +0.041 C 
ATOM     17  C   UNL     1      20.573  10.172  22.050  0.00  0.00    +0.229 C 
ATOM     19  C   UNL     1      19.257   6.180  20.267  0.00  0.00    +0.229 C 
ATOM     20  C   UNL     1      19.353  10.866  22.631  0.00  0.00    +0.178 C 
ATOM     23  C   UNL     1      17.561   9.891  21.314  0.00  0.00    +0.120 C 
ATOM     24  C   UNL     1      17.243   7.435  20.688  0.00  0.00    +0.125 A 
ATOM     25  C   UNL     1      16.699   8.658  21.137  0.00  0.00    +0.010 A 
ATOM     28  C   UNL     1      15.327   8.734  21.424  0.00  0.00    +0.031 A 
ATOM     29  C   UNL     1      14.504   7.626  21.243  0.00  0.00    +0.030 A 
ATOM     30  C   UNL     1      16.404   6.335  20.488  0.00  0.00    +0.048 A 
ATOM     31  C   UNL     1      15.040   6.431  20.768  0.00  0.00    +0.027 A 
ATOM     36  H   UNL     1      17.576  10.147  23.332  0.00  0.00    +0.123 HD
ENDROOT
BRANCH  29   8
ATOM      4  O   UNL     1      10.360   7.942  21.884  0.00  0.00    -0.377 OA
ATOM      8  N   UNL     1      13.140   7.709  21.545  0.00  0.00    -0.326 N 
ATOM     32  C   UNL     1      12.232   6.731  20.931  0.00  0.00    +0.133 C 
ATOM     33  C   UNL     1      12.538   9.011  21.856  0.00  0.00    +0.133 C 
ATOM     34  C   UNL     1      10.942   6.647  21.739  0.00  0.00    +0.178 C 
ATOM     35  C   UNL     1      11.231   8.806  22.613  0.00  0.00    +0.178 C 
ENDBRANCH  29   8
BRANCH  10  15
ATOM     15  C   UNL     1      22.156   5.590  24.848  0.00  0.00    +0.100 C 
BRANCH  15  18
ATOM      3  O   UNL     1      24.422   5.231  25.542  0.00  0.00    -0.276 OA
ATOM      6  N   UNL     1      23.555   3.736  23.995  0.00  0.00    -0.302 N 
ATOM     18  C   UNL     1      23.483   4.850  24.838  0.00  0.00    +0.216 C 
BRANCH   6  21
ATOM     21  C   UNL     1      24.759   2.923  23.875  0.00  0.00    +0.104 C 
ATOM     26  C   UNL     1      24.577   1.563  24.517  0.00  0.00    +0.024 C 
ENDBRANCH   6  21
BRANCH   6  22
ATOM     22  C   UNL     1      22.429   3.303  23.171  0.00  0.00    +0.104 C 
ATOM     27  C   UNL     1      22.811   3.227  21.707  0.00  0.00    +0.024 C 
ENDBRANCH   6  22
ENDBRANCH  15  18
ENDBRANCH  10  15
TORSDOF 5
ENDMDL
MODEL 4
REMARK VINA RESULT:      -6.1     17.331     21.928
REMARK  Name = 71692863
REMARK  7 active torsions:
REMARK  status: ('A' for Active; 'I' for Inactive)
REMARK    1  A    between atoms: N_6  and  C_21
REMARK    2  A    between atoms: N_6  and  C_22
REMARK    3  A    between atoms: N_8  and  C_29
REMARK    4  A    between atoms: C_10  and  C_15
REMARK    5  A    between atoms: C_15  and  C_18
REMARK    6  A    between atoms: C_21  and  C_26
REMARK    7  A    between atoms: C_22  and  C_27
REMARK                            x       y       z     vdW  Elec       q    Type
REMARK                         _______ _______ _______ _____ _____    ______ ____
ROOT
ATOM      1  O   UNL     1       9.239   9.713   3.078  0.00  0.00    -0.492 OA
ATOM      2  O   UNL     1      11.003   9.031   6.173  0.00  0.00    -0.274 OA
ATOM      5  N   UNL     1      10.624   6.794   5.707  0.00  0.00    -0.300 N 
ATOM      7  N   UNL     1       7.949   8.467   5.838  0.00  0.00    -0.304 NA
ATOM      9  C   UNL     1      11.477   6.119   3.485  0.00  0.00    +0.010 C 
ATOM     10  C   UNL     1      10.890   4.698   3.718  0.00  0.00    +0.004 C 
ATOM     11  C   UNL     1       9.659   4.755   4.639  0.00  0.00    +0.023 C 
ATOM     12  C   UNL     1      11.827   6.699   4.871  0.00  0.00    +0.111 C 
ATOM     13  C   UNL     1      10.512   7.034   2.696  0.00  0.00    +0.008 C 
ATOM     14  C   UNL     1       9.941   5.514   5.938  0.00  0.00    +0.108 C 
ATOM     16  C   UNL     1      11.079   8.409   2.311  0.00  0.00    +0.041 C 
ATOM     17  C   UNL     1      10.277   8.032   6.249  0.00  0.00    +0.229 C 
ATOM     19  C   UNL     1       9.942   9.347   1.889  0.00  0.00    +0.229 C 
ATOM     20  C   UNL     1       8.914   8.178   6.902  0.00  0.00    +0.178 C 
ATOM     23  C   UNL     1       7.893   9.899   5.527  0.00  0.00    +0.120 C 
ATOM     24  C   UNL     1       7.924  10.085   2.980  0.00  0.00    +0.125 A 
ATOM     25  C   UNL     1       7.216  10.169   4.199  0.00  0.00    +0.010 A 
ATOM     28  C   UNL     1       5.856  10.512   4.180  0.00  0.00    +0.031 A 
ATOM     29  C   UNL     1       5.214  10.795   2.976  0.00  0.00    +0.030 A 
ATOM     30  C   UNL     1       7.276  10.392   1.780  0.00  0.00    +0.048 A 
ATOM     31  C   UNL     1       5.925  10.742   1.780  0.00  0.00    +0.027 A 
ATOM     36  H   UNL     1       7.022   8.165   6.135  0.00  0.00    +0.123 HD
ENDROOT
BRANCH  29   8
ATOM      4  O   UNL     1       1.178  11.952   2.738  0.00  0.00    -0.377 OA
ATOM      8  N   UNL     1       3.853  11.123   2.968  0.00  0.00    -0.326 N 
ATOM     32  C   UNL     1       3.054  10.734   1.799  0.00  0.00    +0.133 C 
ATOM     33  C   UNL     1       3.386  12.320   3.676  0.00  0.00    +0.133 C 
ATOM     34  C   UNL     1       1.576  10.703   2.173  0.00  0.00    +0.178 C 
ATOM     35  C   UNL     1       1.890  12.204   3.949  0.00  0.00    +0.178 C 
ENDBRANCH  29   8
BRANCH  10  15
ATOM     15  C   UNL     1      10.563   3.955   2.423  0.00  0.00    +0.100 C 
BRANCH  15  18
ATOM      3  O   UNL     1      12.795   3.151   2.080  0.00  0.00    -0.276 OA
ATOM      6  N   UNL     1      11.723   4.072   0.240  0.00  0.00    -0.302 N 
ATOM     18  C   UNL     1      11.799   3.684   1.582  0.00  0.00    +0.216 C 
BRANCH   6  21
ATOM     21  C   UNL     1      12.826   3.878  -0.693  0.00  0.00    +0.104 C 
ATOM     26  C   UNL     1      12.492   2.834  -1.738  0.00  0.00    +0.024 C 
ENDBRANCH   6  21
BRANCH   6  22
ATOM     22  C   UNL     1      10.533   4.702  -0.327  0.00  0.00    +0.104 C 
ATOM     27  C   UNL     1      10.835   6.094  -0.842  0.00  0.00    +0.024 C 
ENDBRANCH   6  22
ENDBRANCH  15  18
ENDBRANCH  10  15
TORSDOF 5
ENDMDL
MODEL 5
REMARK VINA RESULT:      -6.1     27.969     31.358
REMARK  Name = 71692863
REMARK  7 active torsions:
REMARK  status: ('A' for Active; 'I' for Inactive)
REMARK    1  A    between atoms: N_6  and  C_21
REMARK    2  A    between atoms: N_6  and  C_22
REMARK    3  A    between atoms: N_8  and  C_29
REMARK    4  A    between atoms: C_10  and  C_15
REMARK    5  A    between atoms: C_15  and  C_18
REMARK    6  A    between atoms: C_21  and  C_26
REMARK    7  A    between atoms: C_22  and  C_27
REMARK                            x       y       z     vdW  Elec       q    Type
REMARK                         _______ _______ _______ _____ _____    ______ ____
ROOT
ATOM      1  O   UNL     1      -9.762 -10.634  14.341  0.00  0.00    -0.492 OA
ATOM      2  O   UNL     1     -11.919  -9.916  17.168  0.00  0.00    -0.274 OA
ATOM      5  N   UNL     1     -12.032  -7.761  16.328  0.00  0.00    -0.300 N 
ATOM      7  N   UNL     1      -9.064  -8.679  16.896  0.00  0.00    -0.304 NA
ATOM      9  C   UNL     1     -12.807  -7.686  13.980  0.00  0.00    +0.010 C 
ATOM     10  C   UNL     1     -12.592  -6.146  13.984  0.00  0.00    +0.004 C 
ATOM     11  C   UNL     1     -11.474  -5.748  14.962  0.00  0.00    +0.023 C 
ATOM     12  C   UNL     1     -13.140  -8.102  15.428  0.00  0.00    +0.111 C 
ATOM     13  C   UNL     1     -11.584  -8.450  13.419  0.00  0.00    +0.008 C 
ATOM     14  C   UNL     1     -11.691  -6.332  16.360  0.00  0.00    +0.108 C 
ATOM     16  C   UNL     1     -11.775  -9.966  13.258  0.00  0.00    +0.041 C 
ATOM     17  C   UNL     1     -11.457  -8.771  17.100  0.00  0.00    +0.229 C 
ATOM     19  C   UNL     1     -10.417 -10.650  13.071  0.00  0.00    +0.229 C 
ATOM     20  C   UNL     1     -10.165  -8.468  17.839  0.00  0.00    +0.178 C 
ATOM     23  C   UNL     1      -8.646 -10.084  16.850  0.00  0.00    +0.120 C 
ATOM     24  C   UNL     1      -8.394 -10.681  14.380  0.00  0.00    +0.125 A 
ATOM     25  C   UNL     1      -7.803 -10.390  15.629  0.00  0.00    +0.010 A 
ATOM     28  C   UNL     1      -6.404 -10.386  15.742  0.00  0.00    +0.031 A 
ATOM     29  C   UNL     1      -5.605 -10.692  14.644  0.00  0.00    +0.030 A 
ATOM     30  C   UNL     1      -7.582 -11.009  13.290  0.00  0.00    +0.048 A 
ATOM     31  C   UNL     1      -6.192 -11.011  13.423  0.00  0.00    +0.027 A 
ATOM     36  H   UNL     1      -8.265  -8.114  17.181  0.00  0.00    +0.123 HD
ENDROOT
BRANCH  29   8
ATOM      4  O   UNL     1      -1.414 -10.898  14.931  0.00  0.00    -0.377 OA
ATOM      8  N   UNL     1      -4.210 -10.671  14.766  0.00  0.00    -0.326 N 
ATOM     32  C   UNL     1      -3.406 -10.840  13.548  0.00  0.00    +0.133 C 
ATOM     33  C   UNL     1      -3.577 -11.140  16.004  0.00  0.00    +0.133 C 
ATOM     34  C   UNL     1      -2.002 -10.293  13.779  0.00  0.00    +0.178 C 
ATOM     35  C   UNL     1      -2.163 -10.578  16.103  0.00  0.00    +0.178 C 
ENDBRANCH  29   8
BRANCH  10  15
ATOM     15  C   UNL     1     -12.328  -5.564  12.595  0.00  0.00    +0.100 C 
BRANCH  15  18
ATOM      3  O   UNL     1     -12.479  -3.174  12.688  0.00  0.00    -0.276 OA
ATOM      6  N   UNL     1     -14.310  -4.302  11.821  0.00  0.00    -0.302 N 
ATOM     18  C   UNL     1     -13.030  -4.234  12.380  0.00  0.00    +0.216 C 
BRANCH   6  21
ATOM     21  C   UNL     1     -15.110  -3.113  11.553  0.00  0.00    +0.104 C 
ATOM     26  C   UNL     1     -14.931  -2.632  10.127  0.00  0.00    +0.024 C 
ENDBRANCH   6  21
BRANCH   6  22
ATOM     22  C   UNL     1     -14.943  -5.569  11.463  0.00  0.00    +0.104 C 
ATOM     27  C   UNL     1     -16.001  -5.965  12.472  0.00  0.00    +0.024 C 
ENDBRANCH   6  22
ENDBRANCH  15  18
ENDBRANCH  10  15
TORSDOF 5
ENDMDL
MODEL 6
REMARK VINA RESULT:      -5.9      3.776      9.087
REMARK  Name = 71692863
REMARK  7 active torsions:
REMARK  status: ('A' for Active; 'I' for Inactive)
REMARK    1  A    between atoms: N_6  and  C_21
REMARK    2  A    between atoms: N_6  and  C_22
REMARK    3  A    between atoms: N_8  and  C_29
REMARK    4  A    between atoms: C_10  and  C_15
REMARK    5  A    between atoms: C_15  and  C_18
REMARK    6  A    between atoms: C_21  and  C_26
REMARK    7  A    between atoms: C_22  and  C_27
REMARK                            x       y       z     vdW  Elec       q    Type
REMARK                         _______ _______ _______ _____ _____    ______ ____
ROOT
ATOM      1  O   UNL     1      18.792   7.724  20.988  0.00  0.00    -0.492 OA
ATOM      2  O   UNL     1      20.782  10.750  21.200  0.00  0.00    -0.274 OA
ATOM      5  N   UNL     1      21.220  10.116  23.384  0.00  0.00    -0.300 N 
ATOM      7  N   UNL     1      18.128  10.387  22.805  0.00  0.00    -0.304 NA
ATOM      9  C   UNL     1      22.187   7.846  23.548  0.00  0.00    +0.010 C 
ATOM     10  C   UNL     1      22.159   7.972  25.098  0.00  0.00    +0.004 C 
ATOM     11  C   UNL     1      21.020   8.900  25.554  0.00  0.00    +0.023 C 
ATOM     12  C   UNL     1      22.349   9.270  22.979  0.00  0.00    +0.111 C 
ATOM     13  C   UNL     1      20.932   7.133  22.993  0.00  0.00    +0.008 C 
ATOM     14  C   UNL     1      21.051  10.252  24.837  0.00  0.00    +0.108 C 
ATOM     16  C   UNL     1      20.953   6.851  21.482  0.00  0.00    +0.041 C 
ATOM     17  C   UNL     1      20.468  10.752  22.396  0.00  0.00    +0.229 C 
ATOM     19  C   UNL     1      19.543   6.507  20.993  0.00  0.00    +0.229 C 
ATOM     20  C   UNL     1      19.165  11.421  22.798  0.00  0.00    +0.178 C 
ATOM     23  C   UNL     1      17.549  10.186  21.472  0.00  0.00    +0.120 C 
ATOM     24  C   UNL     1      17.430   7.661  21.112  0.00  0.00    +0.125 A 
ATOM     25  C   UNL     1      16.779   8.886  21.373  0.00  0.00    +0.010 A 
ATOM     28  C   UNL     1      15.386   8.899  21.545  0.00  0.00    +0.031 A 
ATOM     29  C   UNL     1      14.648   7.724  21.432  0.00  0.00    +0.030 A 
ATOM     30  C   UNL     1      16.676   6.490  20.977  0.00  0.00    +0.048 A 
ATOM     31  C   UNL     1      15.290   6.524  21.140  0.00  0.00    +0.027 A 
ATOM     36  H   UNL     1      17.381  10.665  23.442  0.00  0.00    +0.123 HD
ENDROOT
BRANCH  29   8
ATOM      4  O   UNL     1      10.454   7.855  21.721  0.00  0.00    -0.377 OA
ATOM      8  N   UNL     1      13.261   7.748  21.618  0.00  0.00    -0.326 N 
ATOM     32  C   UNL     1      12.453   6.723  20.943  0.00  0.00    +0.133 C 
ATOM     33  C   UNL     1      12.577   9.023  21.861  0.00  0.00    +0.133 C 
ATOM     34  C   UNL     1      11.105   6.588  21.641  0.00  0.00    +0.178 C 
ATOM     35  C   UNL     1      11.221   8.765  22.510  0.00  0.00    +0.178 C 
ENDBRANCH  29   8
BRANCH  10  15
ATOM     15  C   UNL     1      22.081   6.626  25.818  0.00  0.00    +0.100 C 
BRANCH  15  18
ATOM      3  O   UNL     1      19.755   6.330  26.316  0.00  0.00    -0.276 OA
ATOM      6  N   UNL     1      21.169   6.705  28.116  0.00  0.00    -0.302 N 
ATOM     18  C   UNL     1      20.889   6.538  26.756  0.00  0.00    +0.216 C 
BRANCH   6  21
ATOM     21  C   UNL     1      20.133   6.647  29.140  0.00  0.00    +0.104 C 
ATOM     26  C   UNL     1      20.440   5.592  30.183  0.00  0.00    +0.024 C 
ENDBRANCH   6  21
BRANCH   6  22
ATOM     22  C   UNL     1      22.520   6.950  28.614  0.00  0.00    +0.104 C 
ATOM     27  C   UNL     1      22.698   8.390  29.050  0.00  0.00    +0.024 C 
ENDBRANCH   6  22
ENDBRANCH  15  18
ENDBRANCH  10  15
TORSDOF 5
ENDMDL
MODEL 7
REMARK VINA RESULT:      -5.8     15.469     18.314
REMARK  Name = 71692863
REMARK  7 active torsions:
REMARK  status: ('A' for Active; 'I' for Inactive)
REMARK    1  A    between atoms: N_6  and  C_21
REMARK    2  A    between atoms: N_6  and  C_22
REMARK    3  A    between atoms: N_8  and  C_29
REMARK    4  A    between atoms: C_10  and  C_15
REMARK    5  A    between atoms: C_15  and  C_18
REMARK    6  A    between atoms: C_21  and  C_26
REMARK    7  A    between atoms: C_22  and  C_27
REMARK                            x       y       z     vdW  Elec       q    Type
REMARK                         _______ _______ _______ _____ _____    ______ ____
ROOT
ATOM      1  O   UNL     1      12.434   6.721   4.060  0.00  0.00    -0.492 OA
ATOM      2  O   UNL     1      10.158   4.995   6.297  0.00  0.00    -0.274 OA
ATOM      5  N   UNL     1       8.882   6.927   6.228  0.00  0.00    -0.300 N 
ATOM      7  N   UNL     1      11.834   7.467   7.210  0.00  0.00    -0.304 NA
ATOM      9  C   UNL     1       8.272   7.592   3.925  0.00  0.00    +0.010 C 
ATOM     10  C   UNL     1       7.585   8.863   4.500  0.00  0.00    +0.004 C 
ATOM     11  C   UNL     1       8.257   9.307   5.811  0.00  0.00    +0.023 C 
ATOM     12  C   UNL     1       8.185   6.499   5.010  0.00  0.00    +0.111 C 
ATOM     13  C   UNL     1       9.729   7.860   3.480  0.00  0.00    +0.008 C 
ATOM     14  C   UNL     1       8.361   8.165   6.824  0.00  0.00    +0.108 C 
ATOM     16  C   UNL     1      10.426   6.685   2.777  0.00  0.00    +0.041 C 
ATOM     17  C   UNL     1       9.900   6.121   6.739  0.00  0.00    +0.229 C 
ATOM     19  C   UNL     1      11.940   6.922   2.734  0.00  0.00    +0.229 C 
ATOM     20  C   UNL     1      10.776   6.680   7.846  0.00  0.00    +0.178 C 
ATOM     23  C   UNL     1      12.970   6.631   6.807  0.00  0.00    +0.120 C 
ATOM     24  C   UNL     1      13.590   7.350   4.436  0.00  0.00    +0.125 A 
ATOM     25  C   UNL     1      13.877   7.335   5.819  0.00  0.00    +0.010 A 
ATOM     28  C   UNL     1      15.028   7.987   6.288  0.00  0.00    +0.031 A 
ATOM     29  C   UNL     1      15.896   8.617   5.400  0.00  0.00    +0.030 A 
ATOM     30  C   UNL     1      14.480   7.967   3.551  0.00  0.00    +0.048 A 
ATOM     31  C   UNL     1      15.626   8.601   4.034  0.00  0.00    +0.027 A 
ATOM     36  H   UNL     1      12.170   8.172   7.866  0.00  0.00    +0.123 HD
ENDROOT
BRANCH  29   8
ATOM      4  O   UNL     1      19.354  10.694   6.587  0.00  0.00    -0.377 OA
ATOM      8  N   UNL     1      17.034   9.275   5.881  0.00  0.00    -0.326 N 
ATOM     32  C   UNL     1      17.028  10.744   5.902  0.00  0.00    +0.133 C 
ATOM     33  C   UNL     1      18.355   8.657   5.726  0.00  0.00    +0.133 C 
ATOM     34  C   UNL     1      18.074  11.248   6.890  0.00  0.00    +0.178 C 
ATOM     35  C   UNL     1      19.331   9.274   6.723  0.00  0.00    +0.178 C 
ENDBRANCH  29   8
BRANCH  10  15
ATOM     15  C   UNL     1       7.521  10.023   3.506  0.00  0.00    +0.100 C 
BRANCH  15  18
ATOM      3  O   UNL     1       5.178   9.829   3.040  0.00  0.00    -0.276 OA
ATOM      6  N   UNL     1       6.598   9.962   1.211  0.00  0.00    -0.302 N 
ATOM     18  C   UNL     1       6.319   9.928   2.581  0.00  0.00    +0.216 C 
BRANCH   6  21
ATOM     21  C   UNL     1       5.552   9.881   0.198  0.00  0.00    +0.104 C 
ATOM     26  C   UNL     1       4.999  11.251  -0.139  0.00  0.00    +0.024 C 
ENDBRANCH   6  21
BRANCH   6  22
ATOM     22  C   UNL     1       7.958  10.079   0.691  0.00  0.00    +0.104 C 
ATOM     27  C   UNL     1       8.438   8.773   0.094  0.00  0.00    +0.024 C 
ENDBRANCH   6  22
ENDBRANCH  15  18
ENDBRANCH  10  15
TORSDOF 5
ENDMDL
MODEL 8
REMARK VINA RESULT:      -5.8     28.419     31.364
REMARK  Name = 71692863
REMARK  7 active torsions:
REMARK  status: ('A' for Active; 'I' for Inactive)
REMARK    1  A    between atoms: N_6  and  C_21
REMARK    2  A    between atoms: N_6  and  C_22
REMARK    3  A    between atoms: N_8  and  C_29
REMARK    4  A    between atoms: C_10  and  C_15
REMARK    5  A    between atoms: C_15  and  C_18
REMARK    6  A    between atoms: C_21  and  C_26
REMARK    7  A    between atoms: C_22  and  C_27
REMARK                            x       y       z     vdW  Elec       q    Type
REMARK                         _______ _______ _______ _____ _____    ______ ____
ROOT
ATOM      1  O   UNL     1      -6.961 -12.554  12.838  0.00  0.00    -0.492 OA
ATOM      2  O   UNL     1      -3.646 -13.559  13.912  0.00  0.00    -0.274 OA
ATOM      5  N   UNL     1      -3.857 -11.929  15.544  0.00  0.00    -0.300 N 
ATOM      7  N   UNL     1      -4.204 -10.768  12.628  0.00  0.00    -0.304 NA
ATOM      9  C   UNL     1      -5.878 -12.222  16.938  0.00  0.00    +0.010 C 
ATOM     10  C   UNL     1      -5.524 -10.906  17.686  0.00  0.00    +0.004 C 
ATOM     11  C   UNL     1      -4.744  -9.945  16.771  0.00  0.00    +0.023 C 
ATOM     12  C   UNL     1      -4.550 -12.843  16.458  0.00  0.00    +0.111 C 
ATOM     13  C   UNL     1      -6.870 -11.990  15.773  0.00  0.00    +0.008 C 
ATOM     14  C   UNL     1      -3.532 -10.618  16.123  0.00  0.00    +0.108 C 
ATOM     16  C   UNL     1      -7.370 -13.264  15.075  0.00  0.00    +0.041 C 
ATOM     17  C   UNL     1      -3.515 -12.382  14.269  0.00  0.00    +0.229 C 
ATOM     19  C   UNL     1      -8.018 -12.907  13.733  0.00  0.00    +0.229 C 
ATOM     20  C   UNL     1      -3.023 -11.369  13.250  0.00  0.00    +0.178 C 
ATOM     23  C   UNL     1      -4.701 -11.574  11.507  0.00  0.00    +0.120 C 
ATOM     24  C   UNL     1      -7.235 -11.717  11.789  0.00  0.00    +0.125 A 
ATOM     25  C   UNL     1      -6.112 -11.194  11.111  0.00  0.00    +0.010 A 
ATOM     28  C   UNL     1      -6.309 -10.302  10.045  0.00  0.00    +0.031 A 
ATOM     29  C   UNL     1      -7.596  -9.957   9.640  0.00  0.00    +0.030 A 
ATOM     30  C   UNL     1      -8.523 -11.381  11.359  0.00  0.00    +0.048 A 
ATOM     31  C   UNL     1      -8.700 -10.502  10.290  0.00  0.00    +0.027 A 
ATOM     36  H   UNL     1      -3.964  -9.841  12.277  0.00  0.00    +0.123 HD
ENDROOT
BRANCH  29   8
ATOM      4  O   UNL     1      -7.885  -7.167   6.506  0.00  0.00    -0.377 OA
ATOM      8  N   UNL     1      -7.780  -9.056   8.584  0.00  0.00    -0.326 N 
ATOM     32  C   UNL     1      -7.002  -9.260   7.355  0.00  0.00    +0.133 C 
ATOM     33  C   UNL     1      -8.149  -7.664   8.867  0.00  0.00    +0.133 C 
ATOM     34  C   UNL     1      -7.679  -8.544   6.192  0.00  0.00    +0.178 C 
ATOM     35  C   UNL     1      -8.765  -7.033   7.622  0.00  0.00    +0.178 C 
ENDBRANCH  29   8
BRANCH  10  15
ATOM     15  C   UNL     1      -6.739 -10.206  18.294  0.00  0.00    +0.100 C 
BRANCH  15  18
ATOM      3  O   UNL     1      -6.837 -11.565  20.266  0.00  0.00    -0.276 OA
ATOM      6  N   UNL     1      -8.825 -11.256  19.112  0.00  0.00    -0.302 N 
ATOM     18  C   UNL     1      -7.454 -11.071  19.318  0.00  0.00    +0.216 C 
BRANCH   6  21
ATOM     21  C   UNL     1      -9.649 -12.059  20.007  0.00  0.00    +0.104 C 
ATOM     26  C   UNL     1      -9.614 -13.525  19.629  0.00  0.00    +0.024 C 
ENDBRANCH   6  21
BRANCH   6  22
ATOM     22  C   UNL     1      -9.535 -10.659  17.983  0.00  0.00    +0.104 C 
ATOM     27  C   UNL     1     -10.640  -9.733  18.449  0.00  0.00    +0.024 C 
ENDBRANCH   6  22
ENDBRANCH  15  18
ENDBRANCH  10  15
TORSDOF 5
ENDMDL
MODEL 9
REMARK VINA RESULT:      -5.8     28.099     30.977
REMARK  Name = 71692863
REMARK  7 active torsions:
REMARK  status: ('A' for Active; 'I' for Inactive)
REMARK    1  A    between atoms: N_6  and  C_21
REMARK    2  A    between atoms: N_6  and  C_22
REMARK    3  A    between atoms: N_8  and  C_29
REMARK    4  A    between atoms: C_10  and  C_15
REMARK    5  A    between atoms: C_15  and  C_18
REMARK    6  A    between atoms: C_21  and  C_26
REMARK    7  A    between atoms: C_22  and  C_27
REMARK                            x       y       z     vdW  Elec       q    Type
REMARK                         _______ _______ _______ _____ _____    ______ ____
ROOT
ATOM      1  O   UNL     1      -5.334 -12.800  11.332  0.00  0.00    -0.492 OA
ATOM      2  O   UNL     1      -1.918 -12.729  12.552  0.00  0.00    -0.274 OA
ATOM      5  N   UNL     1      -2.806 -11.867  14.510  0.00  0.00    -0.300 N 
ATOM      7  N   UNL     1      -3.537 -10.120  11.983  0.00  0.00    -0.304 NA
ATOM      9  C   UNL     1      -4.562 -13.312  15.484  0.00  0.00    +0.010 C 
ATOM     10  C   UNL     1      -4.789 -12.246  16.593  0.00  0.00    +0.004 C 
ATOM     11  C   UNL     1      -4.448 -10.836  16.081  0.00  0.00    +0.023 C 
ATOM     12  C   UNL     1      -3.087 -13.204  15.046  0.00  0.00    +0.111 C 
ATOM     13  C   UNL     1      -5.538 -13.143  14.296  0.00  0.00    +0.008 C 
ATOM     14  C   UNL     1      -3.054 -10.769  15.453  0.00  0.00    +0.108 C 
ATOM     16  C   UNL     1      -5.463 -14.241  13.224  0.00  0.00    +0.041 C 
ATOM     17  C   UNL     1      -2.284 -11.755  13.220  0.00  0.00    +0.229 C 
ATOM     19  C   UNL     1      -6.174 -13.779  11.948  0.00  0.00    +0.229 C 
ATOM     20  C   UNL     1      -2.226 -10.378  12.582  0.00  0.00    +0.178 C 
ATOM     23  C   UNL     1      -3.640 -10.682  10.632  0.00  0.00    +0.120 C 
ATOM     24  C   UNL     1      -5.903 -11.861  10.514  0.00  0.00    +0.125 A 
ATOM     25  C   UNL     1      -5.076 -10.772  10.159  0.00  0.00    +0.010 A 
ATOM     28  C   UNL     1      -5.597  -9.751   9.349  0.00  0.00    +0.031 A 
ATOM     29  C   UNL     1      -6.905  -9.822   8.875  0.00  0.00    +0.030 A 
ATOM     30  C   UNL     1      -7.207 -11.933  10.013  0.00  0.00    +0.048 A 
ATOM     31  C   UNL     1      -7.705 -10.914   9.200  0.00  0.00    +0.027 A 
ATOM     36  H   UNL     1      -3.688  -9.113  11.926  0.00  0.00    +0.123 HD
ENDROOT
BRANCH  29   8
ATOM      4  O   UNL     1      -8.702  -6.811   6.554  0.00  0.00    -0.377 OA
ATOM      8  N   UNL     1      -7.418  -8.791   8.079  0.00  0.00    -0.326 N 
ATOM     32  C   UNL     1      -8.152  -7.704   8.740  0.00  0.00    +0.133 C 
ATOM     33  C   UNL     1      -7.822  -9.068   6.696  0.00  0.00    +0.133 C 
ATOM     34  C   UNL     1      -8.177  -6.476   7.838  0.00  0.00    +0.178 C 
ATOM     35  C   UNL     1      -7.865  -7.766   5.902  0.00  0.00    +0.178 C 
ENDBRANCH  29   8
BRANCH  10  15
ATOM     15  C   UNL     1      -6.196 -12.280  17.191  0.00  0.00    +0.100 C 
BRANCH  15  18
ATOM      3  O   UNL     1      -6.183 -10.399  18.676  0.00  0.00    -0.276 OA
ATOM      6  N   UNL     1      -7.637 -10.294  16.872  0.00  0.00    -0.302 N 
ATOM     18  C   UNL     1      -6.659 -10.911  17.659  0.00  0.00    +0.216 C 
BRANCH   6  21
ATOM     21  C   UNL     1      -8.183  -8.981  17.191  0.00  0.00    +0.104 C 
ATOM     26  C   UNL     1      -9.647  -9.065  17.574  0.00  0.00    +0.024 C 
ENDBRANCH   6  21
BRANCH   6  22
ATOM     22  C   UNL     1      -8.187 -10.920  15.672  0.00  0.00    +0.104 C 
ATOM     27  C   UNL     1      -7.799 -10.157  14.422  0.00  0.00    +0.024 C 
ENDBRANCH   6  22
ENDBRANCH  15  18
ENDBRANCH  10  15
TORSDOF 5
ENDMDL
MODEL 10
REMARK VINA RESULT:      -5.7     28.683     31.347
REMARK  Name = 71692863
REMARK  7 active torsions:
REMARK  status: ('A' for Active; 'I' for Inactive)
REMARK    1  A    between atoms: N_6  and  C_21
REMARK    2  A    between atoms: N_6  and  C_22
REMARK    3  A    between atoms: N_8  and  C_29
REMARK    4  A    between atoms: C_10  and  C_15
REMARK    5  A    between atoms: C_15  and  C_18
REMARK    6  A    between atoms: C_21  and  C_26
REMARK    7  A    between atoms: C_22  and  C_27
REMARK                            x       y       z     vdW  Elec       q    Type
REMARK                         _______ _______ _______ _____ _____    ______ ____
ROOT
ATOM      1  O   UNL     1      -3.413 -11.615  12.790  0.00  0.00    -0.492 OA
ATOM      2  O   UNL     1      -3.602 -14.406  10.482  0.00  0.00    -0.274 OA
ATOM      5  N   UNL     1      -5.294 -13.219   9.437  0.00  0.00    -0.300 N 
ATOM      7  N   UNL     1      -5.901 -13.750  12.490  0.00  0.00    -0.304 NA
ATOM      9  C   UNL     1      -4.594 -10.946   8.759  0.00  0.00    +0.010 C 
ATOM     10  C   UNL     1      -6.043 -10.674   8.264  0.00  0.00    +0.004 C 
ATOM     11  C   UNL     1      -7.063 -11.498   9.068  0.00  0.00    +0.023 C 
ATOM     12  C   UNL     1      -4.343 -12.461   8.616  0.00  0.00    +0.111 C 
ATOM     13  C   UNL     1      -4.362 -10.449  10.205  0.00  0.00    +0.008 C 
ATOM     14  C   UNL     1      -6.706 -12.986   9.105  0.00  0.00    +0.108 C 
ATOM     16  C   UNL     1      -2.916 -10.561  10.712  0.00  0.00    +0.041 C 
ATOM     17  C   UNL     1      -4.800 -14.116  10.386  0.00  0.00    +0.229 C 
ATOM     19  C   UNL     1      -2.881 -10.409  12.237  0.00  0.00    +0.229 C 
ATOM     20  C   UNL     1      -5.770 -14.709  11.392  0.00  0.00    +0.178 C 
ATOM     23  C   UNL     1      -4.842 -13.919  13.492  0.00  0.00    +0.120 C 
ATOM     24  C   UNL     1      -3.984 -11.575  14.035  0.00  0.00    +0.125 A 
ATOM     25  C   UNL     1      -4.725 -12.718  14.408  0.00  0.00    +0.010 A 
ATOM     28  C   UNL     1      -5.368 -12.741  15.655  0.00  0.00    +0.031 A 
ATOM     29  C   UNL     1      -5.254 -11.663  16.530  0.00  0.00    +0.030 A 
ATOM     30  C   UNL     1      -3.857 -10.508  14.930  0.00  0.00    +0.048 A 
ATOM     31  C   UNL     1      -4.494 -10.553  16.171  0.00  0.00    +0.027 A 
ATOM     36  H   UNL     1      -6.802 -13.884  12.948  0.00  0.00    +0.123 HD
ENDROOT
BRANCH  29   8
ATOM      4  O   UNL     1      -7.000 -11.876  20.350  0.00  0.00    -0.377 OA
ATOM      8  N   UNL     1      -5.910 -11.692  17.766  0.00  0.00    -0.326 N 
ATOM     32  C   UNL     1      -5.353 -10.892  18.865  0.00  0.00    +0.133 C 
ATOM     33  C   UNL     1      -6.643 -12.896  18.177  0.00  0.00    +0.133 C 
ATOM     34  C   UNL     1      -6.429 -10.642  19.916  0.00  0.00    +0.178 C 
ATOM     35  C   UNL     1      -7.649 -12.538  19.265  0.00  0.00    +0.178 C 
ENDBRANCH  29   8
BRANCH  10  15
ATOM     15  C   UNL     1      -6.420  -9.192   8.270  0.00  0.00    +0.100 C 
BRANCH  15  18
ATOM      3  O   UNL     1      -6.671  -9.201   5.886  0.00  0.00    -0.276 OA
ATOM      6  N   UNL     1      -8.111  -7.832   7.083  0.00  0.00    -0.302 N 
ATOM     18  C   UNL     1      -7.065  -8.753   6.967  0.00  0.00    +0.216 C 
BRANCH   6  21
ATOM     21  C   UNL     1      -8.830  -7.315   5.924  0.00  0.00    +0.104 C 
ATOM     26  C   UNL     1     -10.049  -8.158   5.606  0.00  0.00    +0.024 C 
ENDBRANCH   6  21
BRANCH   6  22
ATOM     22  C   UNL     1      -8.562  -7.316   8.373  0.00  0.00    +0.104 C 
ATOM     27  C   UNL     1      -8.915  -5.845   8.290  0.00  0.00    +0.024 C 
ENDBRANCH   6  22
ENDBRANCH  15  18
ENDBRANCH  10  15
TORSDOF 5
ENDMDL
