MODEL 1
REMARK VINA RESULT:      -6.8      0.000      0.000
REMARK  Name = 26742127
REMARK  9 active torsions:
REMARK  status: ('A' for Active; 'I' for Inactive)
REMARK    1  A    between atoms: O_2  and  C_12
REMARK    2  A    between atoms: O_5  and  C_27
REMARK    3  A    between atoms: O_5  and  C_30
REMARK    4  A    between atoms: N_8  and  C_11
REMARK    5  A    between atoms: N_9  and  C_20
REMARK    6  A    between atoms: C_18  and  C_19
REMARK    7  A    between atoms: C_30  and  C_32
REMARK    8  A    between atoms: C_33  and  C_35
REMARK    9  A    between atoms: C_34  and  C_36
REMARK                            x       y       z     vdW  Elec       q    Type
REMARK                         _______ _______ _______ _____ _____    ______ ____
ROOT
ATOM      3  O   UNL     1     -10.872  -9.895  15.171  0.00  0.00    -0.252 OA
ATOM      7  N   UNL     1     -10.364 -11.467  16.788  0.00  0.00    -0.284 N 
ATOM      9  N   UNL     1      -9.055 -11.300  14.827  0.00  0.00    -0.269 N 
ATOM     11  C   UNL     1      -8.334 -11.970  18.192  0.00  0.00    +0.119 C 
ATOM     12  C   UNL     1      -8.597 -10.701  19.023  0.00  0.00    +0.136 C 
ATOM     13  C   UNL     1      -9.983 -10.602  19.668  0.00  0.00    +0.035 C 
ATOM     14  C   UNL     1      -9.517 -12.512  17.378  0.00  0.00    +0.134 C 
ATOM     15  C   UNL     1     -11.054 -10.059  18.719  0.00  0.00    +0.022 C 
ATOM     16  C   UNL     1     -11.482 -11.030  17.627  0.00  0.00    +0.109 C 
ATOM     17  C   UNL     1     -10.144 -10.815  15.550  0.00  0.00    +0.307 C 
ATOM     39  H   UNL     1      -8.767 -12.259  14.988  0.00  0.00    +0.156 HD
ENDROOT
BRANCH   9  20
ATOM      1  F   UNL     1      -5.789  -8.522  11.309  0.00  0.00    -0.205 F 
ATOM     20  C   UNL     1      -8.220 -10.589  13.928  0.00  0.00    +0.035 A 
ATOM     25  C   UNL     1      -6.922 -10.246  14.305  0.00  0.00    +0.026 A 
ATOM     26  C   UNL     1      -8.697 -10.233  12.666  0.00  0.00    +0.026 A 
ATOM     28  C   UNL     1      -6.100  -9.547  13.421  0.00  0.00    +0.040 A 
ATOM     29  C   UNL     1      -7.876  -9.535  11.781  0.00  0.00    +0.040 A 
ATOM     31  C   UNL     1      -6.578  -9.192  12.158  0.00  0.00    +0.124 A 
ENDBRANCH   9  20
BRANCH  11   8
ATOM      4  O   UNL     1      -5.598 -12.605  18.784  0.00  0.00    -0.270 OA
ATOM      8  N   UNL     1      -7.187 -11.742  17.334  0.00  0.00    -0.305 N 
ATOM     18  C   UNL     1      -5.904 -12.086  17.714  0.00  0.00    +0.244 C 
ATOM     37  H   UNL     1      -7.373 -11.423  16.389  0.00  0.00    +0.149 HD
BRANCH  18  19
ATOM     19  C   UNL     1      -4.835 -11.763  16.733  0.00  0.00    +0.037 A 
ATOM     21  C   UNL     1      -4.080 -10.600  16.882  0.00  0.00    +0.016 A 
ATOM     22  C   UNL     1      -4.589 -12.622  15.662  0.00  0.00    +0.016 A 
ATOM     23  C   UNL     1      -3.079 -10.296  15.961  0.00  0.00    +0.046 A 
ATOM     24  C   UNL     1      -3.586 -12.318  14.741  0.00  0.00    +0.046 A 
ATOM     27  C   UNL     1      -2.831 -11.155  14.891  0.00  0.00    +0.121 A 
BRANCH  27   5
ATOM      5  O   UNL     1      -1.853 -10.859  13.991  0.00  0.00    -0.487 OA
BRANCH   5  30
ATOM     30  C   UNL     1      -1.829 -11.621  12.785  0.00  0.00    +0.269 C 
BRANCH  30  32
ATOM      6  O   UNL     1      -2.632  -9.172  10.144  0.00  0.00    -0.359 OA
ATOM     10  N   UNL     1      -3.704 -10.040   9.975  0.00  0.00    -0.083 NA
ATOM     32  C   UNL     1      -2.368 -10.780  11.664  0.00  0.00    +0.054 A 
ATOM     33  C   UNL     1      -1.844  -9.623  11.152  0.00  0.00    +0.141 A 
ATOM     34  C   UNL     1      -3.525 -10.992  10.894  0.00  0.00    +0.087 A 
ATOM     35  C   UNL     1      -0.657  -8.817  11.463  0.00  0.00    +0.089 C 
ATOM     36  C   UNL     1      -4.496 -12.094  10.999  0.00  0.00    +0.069 C 
ENDBRANCH  30  32
ENDBRANCH   5  30
ENDBRANCH  27   5
ENDBRANCH  18  19
ENDBRANCH  11   8
BRANCH  12   2
ATOM      2  O   UNL     1      -7.636 -10.672  20.089  0.00  0.00    -0.390 OA
ATOM     38  H   UNL     1      -7.341  -9.751  20.193  0.00  0.00    +0.210 HD
ENDBRANCH  12   2
TORSDOF 7
ENDMDL
MODEL 2
REMARK VINA RESULT:      -6.7     24.745     28.100
REMARK  Name = 26742127
REMARK  9 active torsions:
REMARK  status: ('A' for Active; 'I' for Inactive)
REMARK    1  A    between atoms: O_2  and  C_12
REMARK    2  A    between atoms: O_5  and  C_27
REMARK    3  A    between atoms: O_5  and  C_30
REMARK    4  A    between atoms: N_8  and  C_11
REMARK    5  A    between atoms: N_9  and  C_20
REMARK    6  A    between atoms: C_18  and  C_19
REMARK    7  A    between atoms: C_30  and  C_32
REMARK    8  A    between atoms: C_33  and  C_35
REMARK    9  A    between atoms: C_34  and  C_36
REMARK                            x       y       z     vdW  Elec       q    Type
REMARK                         _______ _______ _______ _____ _____    ______ ____
ROOT
ATOM      3  O   UNL     1       8.584   5.449   5.595  0.00  0.00    -0.252 OA
ATOM      7  N   UNL     1      10.270   6.181   6.996  0.00  0.00    -0.284 N 
ATOM      9  N   UNL     1      10.789   5.180   4.919  0.00  0.00    -0.269 N 
ATOM     11  C   UNL     1      12.174   7.815   6.771  0.00  0.00    +0.119 C 
ATOM     12  C   UNL     1      11.173   8.984   6.806  0.00  0.00    +0.136 C 
ATOM     13  C   UNL     1      10.247   9.032   8.026  0.00  0.00    +0.035 C 
ATOM     14  C   UNL     1      11.675   6.470   7.315  0.00  0.00    +0.134 C 
ATOM     15  C   UNL     1       9.014   8.136   7.885  0.00  0.00    +0.022 C 
ATOM     16  C   UNL     1       9.302   6.643   7.993  0.00  0.00    +0.109 C 
ATOM     17  C   UNL     1       9.792   5.584   5.805  0.00  0.00    +0.307 C 
ATOM     39  H   UNL     1      11.703   4.960   5.300  0.00  0.00    +0.156 HD
ENDROOT
BRANCH   9  20
ATOM      1  F   UNL     1      10.530   4.904  -0.615  0.00  0.00    -0.205 F 
ATOM     20  C   UNL     1      10.722   5.110   3.504  0.00  0.00    +0.035 A 
ATOM     25  C   UNL     1      10.170   6.165   2.779  0.00  0.00    +0.026 A 
ATOM     26  C   UNL     1      11.209   3.985   2.838  0.00  0.00    +0.026 A 
ATOM     28  C   UNL     1      10.104   6.095   1.387  0.00  0.00    +0.040 A 
ATOM     29  C   UNL     1      11.145   3.915   1.447  0.00  0.00    +0.040 A 
ATOM     31  C   UNL     1      10.592   4.970   0.721  0.00  0.00    +0.124 A 
ENDBRANCH   9  20
BRANCH  11   8
ATOM      4  O   UNL     1      14.905   8.047   5.918  0.00  0.00    -0.270 OA
ATOM      8  N   UNL     1      12.674   7.664   5.418  0.00  0.00    -0.305 N 
ATOM     18  C   UNL     1      14.015   7.795   5.110  0.00  0.00    +0.244 C 
ATOM     37  H   UNL     1      12.017   7.343   4.715  0.00  0.00    +0.149 HD
BRANCH  18  19
ATOM     19  C   UNL     1      14.363   7.637   3.675  0.00  0.00    +0.037 A 
ATOM     21  C   UNL     1      13.352   7.552   2.717  0.00  0.00    +0.016 A 
ATOM     22  C   UNL     1      15.700   7.572   3.284  0.00  0.00    +0.016 A 
ATOM     23  C   UNL     1      13.678   7.402   1.370  0.00  0.00    +0.046 A 
ATOM     24  C   UNL     1      16.026   7.423   1.936  0.00  0.00    +0.046 A 
ATOM     27  C   UNL     1      15.015   7.338   0.979  0.00  0.00    +0.121 A 
BRANCH  27   5
ATOM      5  O   UNL     1      15.334   7.192  -0.337  0.00  0.00    -0.487 OA
BRANCH   5  30
ATOM     30  C   UNL     1      15.982   5.979  -0.716  0.00  0.00    +0.269 C 
BRANCH  30  32
ATOM      6  O   UNL     1      13.577   3.183  -0.588  0.00  0.00    -0.359 OA
ATOM     10  N   UNL     1      13.342   3.618  -1.887  0.00  0.00    -0.083 NA
ATOM     32  C   UNL     1      14.946   4.912  -0.915  0.00  0.00    +0.054 A 
ATOM     33  C   UNL     1      14.533   3.960  -0.020  0.00  0.00    +0.141 A 
ATOM     34  C   UNL     1      14.171   4.651  -2.060  0.00  0.00    +0.087 A 
ATOM     35  C   UNL     1      14.903   3.634   1.363  0.00  0.00    +0.089 C 
ATOM     36  C   UNL     1      14.187   5.364  -3.348  0.00  0.00    +0.069 C 
ENDBRANCH  30  32
ENDBRANCH   5  30
ENDBRANCH  27   5
ENDBRANCH  18  19
ENDBRANCH  11   8
BRANCH  12   2
ATOM      2  O   UNL     1      11.927  10.205   6.805  0.00  0.00    -0.390 OA
ATOM     38  H   UNL     1      12.864   9.972   6.922  0.00  0.00    +0.210 HD
ENDBRANCH  12   2
TORSDOF 7
ENDMDL
MODEL 3
REMARK VINA RESULT:      -6.5      2.374      8.495
REMARK  Name = 26742127
REMARK  9 active torsions:
REMARK  status: ('A' for Active; 'I' for Inactive)
REMARK    1  A    between atoms: O_2  and  C_12
REMARK    2  A    between atoms: O_5  and  C_27
REMARK    3  A    between atoms: O_5  and  C_30
REMARK    4  A    between atoms: N_8  and  C_11
REMARK    5  A    between atoms: N_9  and  C_20
REMARK    6  A    between atoms: C_18  and  C_19
REMARK    7  A    between atoms: C_30  and  C_32
REMARK    8  A    between atoms: C_33  and  C_35
REMARK    9  A    between atoms: C_34  and  C_36
REMARK                            x       y       z     vdW  Elec       q    Type
REMARK                         _______ _______ _______ _____ _____    ______ ____
ROOT
ATOM      3  O   UNL     1      -1.801 -10.322  14.640  0.00  0.00    -0.252 OA
ATOM      7  N   UNL     1      -2.572 -11.171  12.633  0.00  0.00    -0.284 N 
ATOM      9  N   UNL     1      -3.767 -11.559  14.634  0.00  0.00    -0.269 N 
ATOM     11  C   UNL     1      -4.705 -10.937  11.314  0.00  0.00    +0.119 C 
ATOM     12  C   UNL     1      -4.317  -9.494  10.944  0.00  0.00    +0.136 C 
ATOM     13  C   UNL     1      -2.956  -9.324  10.260  0.00  0.00    +0.035 C 
ATOM     14  C   UNL     1      -3.569 -11.850  11.794  0.00  0.00    +0.134 C 
ATOM     15  C   UNL     1      -1.787  -9.261  11.245  0.00  0.00    +0.022 C 
ATOM     16  C   UNL     1      -1.442 -10.591  11.903  0.00  0.00    +0.109 C 
ATOM     17  C   UNL     1      -2.656 -10.971  14.031  0.00  0.00    +0.307 C 
ATOM     39  H   UNL     1      -4.182 -12.366  14.181  0.00  0.00    +0.156 HD
ENDROOT
BRANCH   9  20
ATOM      1  F   UNL     1      -6.505  -9.842  19.143  0.00  0.00    -0.205 F 
ATOM     20  C   UNL     1      -4.467 -11.120  15.787  0.00  0.00    +0.035 A 
ATOM     25  C   UNL     1      -4.054 -11.535  17.053  0.00  0.00    +0.026 A 
ATOM     26  C   UNL     1      -5.569 -10.275  15.655  0.00  0.00    +0.026 A 
ATOM     28  C   UNL     1      -4.743 -11.104  18.187  0.00  0.00    +0.040 A 
ATOM     29  C   UNL     1      -6.257  -9.843  16.788  0.00  0.00    +0.040 A 
ATOM     31  C   UNL     1      -5.845 -10.257  18.054  0.00  0.00    +0.124 A 
ENDBRANCH   9  20
BRANCH  11   8
ATOM      4  O   UNL     1      -7.520 -11.074  10.771  0.00  0.00    -0.270 OA
ATOM      8  N   UNL     1      -5.777 -10.902  12.289  0.00  0.00    -0.305 N 
ATOM     18  C   UNL     1      -7.108 -10.976  11.924  0.00  0.00    +0.244 C 
ATOM     37  H   UNL     1      -5.513 -10.936  13.269  0.00  0.00    +0.149 HD
BRANCH  18  19
ATOM     19  C   UNL     1      -8.086 -10.899  13.039  0.00  0.00    +0.037 A 
ATOM     21  C   UNL     1      -8.560  -9.659  13.468  0.00  0.00    +0.016 A 
ATOM     22  C   UNL     1      -8.528 -12.068  13.660  0.00  0.00    +0.016 A 
ATOM     23  C   UNL     1      -9.476  -9.588  14.517  0.00  0.00    +0.046 A 
ATOM     24  C   UNL     1      -9.446 -11.996  14.709  0.00  0.00    +0.046 A 
ATOM     27  C   UNL     1      -9.920 -10.756  15.137  0.00  0.00    +0.121 A 
BRANCH  27   5
ATOM      5  O   UNL     1     -10.815 -10.687  16.160  0.00  0.00    -0.487 OA
BRANCH   5  30
ATOM     30  C   UNL     1     -10.942 -11.840  16.990  0.00  0.00    +0.269 C 
BRANCH  30  32
ATOM      6  O   UNL     1      -8.761 -11.642  19.960  0.00  0.00    -0.359 OA
ATOM     10  N   UNL     1      -9.761 -10.764  20.360  0.00  0.00    -0.083 NA
ATOM     32  C   UNL     1     -10.237 -11.588  18.291  0.00  0.00    +0.054 A 
ATOM     33  C   UNL     1      -9.055 -12.125  18.727  0.00  0.00    +0.141 A 
ATOM     34  C   UNL     1     -10.632 -10.748  19.347  0.00  0.00    +0.087 A 
ATOM     35  C   UNL     1      -8.093 -13.074  18.151  0.00  0.00    +0.089 C 
ATOM     36  C   UNL     1     -11.837  -9.908  19.437  0.00  0.00    +0.069 C 
ENDBRANCH  30  32
ENDBRANCH   5  30
ENDBRANCH  27   5
ENDBRANCH  18  19
ENDBRANCH  11   8
BRANCH  12   2
ATOM      2  O   UNL     1      -5.308  -8.995  10.036  0.00  0.00    -0.390 OA
ATOM     38  H   UNL     1      -6.139  -9.465  10.219  0.00  0.00    +0.210 HD
ENDBRANCH  12   2
TORSDOF 7
ENDMDL
MODEL 4
REMARK VINA RESULT:      -6.5      2.858      5.243
REMARK  Name = 26742127
REMARK  9 active torsions:
REMARK  status: ('A' for Active; 'I' for Inactive)
REMARK    1  A    between atoms: O_2  and  C_12
REMARK    2  A    between atoms: O_5  and  C_27
REMARK    3  A    between atoms: O_5  and  C_30
REMARK    4  A    between atoms: N_8  and  C_11
REMARK    5  A    between atoms: N_9  and  C_20
REMARK    6  A    between atoms: C_18  and  C_19
REMARK    7  A    between atoms: C_30  and  C_32
REMARK    8  A    between atoms: C_33  and  C_35
REMARK    9  A    between atoms: C_34  and  C_36
REMARK                            x       y       z     vdW  Elec       q    Type
REMARK                         _______ _______ _______ _____ _____    ______ ____
ROOT
ATOM      3  O   UNL     1      -4.626 -11.491  18.563  0.00  0.00    -0.252 OA
ATOM      7  N   UNL     1      -6.535 -10.233  18.218  0.00  0.00    -0.284 N 
ATOM      9  N   UNL     1      -4.722 -10.097  16.707  0.00  0.00    -0.269 N 
ATOM     11  C   UNL     1      -8.209 -10.033  16.346  0.00  0.00    +0.119 C 
ATOM     12  C   UNL     1      -8.776 -11.417  16.707  0.00  0.00    +0.136 C 
ATOM     13  C   UNL     1      -9.246 -11.588  18.156  0.00  0.00    +0.035 C 
ATOM     14  C   UNL     1      -7.383  -9.328  17.430  0.00  0.00    +0.134 C 
ATOM     15  C   UNL     1      -8.111 -11.932  19.123  0.00  0.00    +0.022 C 
ATOM     16  C   UNL     1      -7.164 -10.776  19.423  0.00  0.00    +0.109 C 
ATOM     17  C   UNL     1      -5.233 -10.669  17.872  0.00  0.00    +0.307 C 
ATOM     39  H   UNL     1      -5.076  -9.187  16.430  0.00  0.00    +0.156 HD
ENDROOT
BRANCH   9  20
ATOM      1  F   UNL     1      -1.137 -12.318  13.105  0.00  0.00    -0.205 F 
ATOM     20  C   UNL     1      -3.806 -10.665  15.787  0.00  0.00    +0.035 A 
ATOM     25  C   UNL     1      -4.274 -11.261  14.615  0.00  0.00    +0.026 A 
ATOM     26  C   UNL     1      -2.437 -10.629  16.052  0.00  0.00    +0.026 A 
ATOM     28  C   UNL     1      -3.372 -11.820  13.709  0.00  0.00    +0.040 A 
ATOM     29  C   UNL     1      -1.535 -11.187  15.146  0.00  0.00    +0.040 A 
ATOM     31  C   UNL     1      -2.003 -11.783  13.975  0.00  0.00    +0.124 A 
ENDBRANCH   9  20
BRANCH  11   8
ATOM      4  O   UNL     1      -9.183  -9.574  13.685  0.00  0.00    -0.270 OA
ATOM      8  N   UNL     1      -7.449 -10.141  15.116  0.00  0.00    -0.305 N 
ATOM     18  C   UNL     1      -8.014  -9.897  13.878  0.00  0.00    +0.244 C 
ATOM     37  H   UNL     1      -6.449 -10.292  15.202  0.00  0.00    +0.149 HD
BRANCH  18  19
ATOM     19  C   UNL     1      -7.109 -10.077  12.713  0.00  0.00    +0.037 A 
ATOM     21  C   UNL     1      -7.118 -11.277  12.001  0.00  0.00    +0.016 A 
ATOM     22  C   UNL     1      -6.249  -9.047  12.333  0.00  0.00    +0.016 A 
ATOM     23  C   UNL     1      -6.268 -11.446  10.909  0.00  0.00    +0.046 A 
ATOM     24  C   UNL     1      -5.400  -9.216  11.239  0.00  0.00    +0.046 A 
ATOM     27  C   UNL     1      -5.409 -10.416  10.528  0.00  0.00    +0.121 A 
BRANCH  27   5
ATOM      5  O   UNL     1      -4.579 -10.580   9.461  0.00  0.00    -0.487 OA
BRANCH   5  30
ATOM     30  C   UNL     1      -4.571  -9.544   8.480  0.00  0.00    +0.269 C 
BRANCH  30  32
ATOM      6  O   UNL     1      -7.663  -9.673   6.469  0.00  0.00    -0.359 OA
ATOM     10  N   UNL     1      -6.900 -10.595   5.762  0.00  0.00    -0.083 NA
ATOM     32  C   UNL     1      -5.697  -9.776   7.514  0.00  0.00    +0.054 A 
ATOM     33  C   UNL     1      -6.936  -9.193   7.509  0.00  0.00    +0.141 A 
ATOM     34  C   UNL     1      -5.730 -10.640   6.405  0.00  0.00    +0.087 A 
ATOM     35  C   UNL     1      -7.599  -8.200   8.365  0.00  0.00    +0.089 C 
ATOM     36  C   UNL     1      -4.665 -11.532   5.918  0.00  0.00    +0.069 C 
ENDBRANCH  30  32
ENDBRANCH   5  30
ENDBRANCH  27   5
ENDBRANCH  18  19
ENDBRANCH  11   8
BRANCH  12   2
ATOM      2  O   UNL     1      -9.915 -11.655  15.867  0.00  0.00    -0.390 OA
ATOM     38  H   UNL     1      -9.811 -11.108  15.070  0.00  0.00    +0.210 HD
ENDBRANCH  12   2
TORSDOF 7
ENDMDL
MODEL 5
REMARK VINA RESULT:      -6.4      2.662      8.862
REMARK  Name = 26742127
REMARK  9 active torsions:
REMARK  status: ('A' for Active; 'I' for Inactive)
REMARK    1  A    between atoms: O_2  and  C_12
REMARK    2  A    between atoms: O_5  and  C_27
REMARK    3  A    between atoms: O_5  and  C_30
REMARK    4  A    between atoms: N_8  and  C_11
REMARK    5  A    between atoms: N_9  and  C_20
REMARK    6  A    between atoms: C_18  and  C_19
REMARK    7  A    between atoms: C_30  and  C_32
REMARK    8  A    between atoms: C_33  and  C_35
REMARK    9  A    between atoms: C_34  and  C_36
REMARK                            x       y       z     vdW  Elec       q    Type
REMARK                         _______ _______ _______ _____ _____    ______ ____
ROOT
ATOM      3  O   UNL     1      -2.032 -11.448  15.399  0.00  0.00    -0.252 OA
ATOM      7  N   UNL     1      -3.071 -12.037  13.419  0.00  0.00    -0.284 N 
ATOM      9  N   UNL     1      -4.230 -12.197  15.473  0.00  0.00    -0.269 N 
ATOM     11  C   UNL     1      -5.151 -11.278  12.218  0.00  0.00    +0.119 C 
ATOM     12  C   UNL     1      -4.456  -9.953  11.855  0.00  0.00    +0.136 C 
ATOM     13  C   UNL     1      -3.127 -10.082  11.104  0.00  0.00    +0.035 C 
ATOM     14  C   UNL     1      -4.236 -12.442  12.621  0.00  0.00    +0.134 C 
ATOM     15  C   UNL     1      -1.930 -10.319  12.028  0.00  0.00    +0.022 C 
ATOM     16  C   UNL     1      -1.873 -11.712  12.643  0.00  0.00    +0.109 C 
ATOM     17  C   UNL     1      -3.042 -11.864  14.824  0.00  0.00    +0.307 C 
ATOM     39  H   UNL     1      -4.841 -12.873  15.028  0.00  0.00    +0.156 HD
ENDROOT
BRANCH   9  20
ATOM      1  F   UNL     1      -6.285 -10.034  20.149  0.00  0.00    -0.205 F 
ATOM     20  C   UNL     1      -4.755 -11.643  16.668  0.00  0.00    +0.035 A 
ATOM     25  C   UNL     1      -5.694 -10.614  16.606  0.00  0.00    +0.026 A 
ATOM     26  C   UNL     1      -4.332 -12.128  17.906  0.00  0.00    +0.026 A 
ATOM     28  C   UNL     1      -6.211 -10.070  17.782  0.00  0.00    +0.040 A 
ATOM     29  C   UNL     1      -4.848 -11.585  19.082  0.00  0.00    +0.040 A 
ATOM     31  C   UNL     1      -5.788 -10.556  19.020  0.00  0.00    +0.124 A 
ENDBRANCH   9  20
BRANCH  11   8
ATOM      4  O   UNL     1      -7.954 -11.881  12.088  0.00  0.00    -0.270 OA
ATOM      8  N   UNL     1      -6.139 -11.025  13.248  0.00  0.00    -0.305 N 
ATOM     18  C   UNL     1      -7.471 -11.355  13.087  0.00  0.00    +0.244 C 
ATOM     37  H   UNL     1      -5.798 -10.697  14.146  0.00  0.00    +0.149 HD
BRANCH  18  19
ATOM     19  C   UNL     1      -8.362 -11.006  14.225  0.00  0.00    +0.037 A 
ATOM     21  C   UNL     1      -8.826 -12.006  15.079  0.00  0.00    +0.016 A 
ATOM     22  C   UNL     1      -8.735  -9.679  14.437  0.00  0.00    +0.016 A 
ATOM     23  C   UNL     1      -9.663 -11.679  16.145  0.00  0.00    +0.046 A 
ATOM     24  C   UNL     1      -9.571  -9.352  15.504  0.00  0.00    +0.046 A 
ATOM     27  C   UNL     1     -10.035 -10.352  16.358  0.00  0.00    +0.121 A 
BRANCH  27   5
ATOM      5  O   UNL     1     -10.852 -10.032  17.400  0.00  0.00    -0.487 OA
BRANCH   5  30
ATOM     30  C   UNL     1     -10.242  -9.888  18.682  0.00  0.00    +0.269 C 
BRANCH  30  32
ATOM      6  O   UNL     1     -12.112 -12.090  20.978  0.00  0.00    -0.359 OA
ATOM     10  N   UNL     1     -10.946 -12.835  20.856  0.00  0.00    -0.083 NA
ATOM     32  C   UNL     1     -10.786 -10.940  19.604  0.00  0.00    +0.054 A 
ATOM     33  C   UNL     1     -12.005 -10.964  20.228  0.00  0.00    +0.141 A 
ATOM     34  C   UNL     1     -10.169 -12.129  20.031  0.00  0.00    +0.087 A 
ATOM     35  C   UNL     1     -13.160 -10.057  20.244  0.00  0.00    +0.089 C 
ATOM     36  C   UNL     1      -8.833 -12.636  19.677  0.00  0.00    +0.069 C 
ENDBRANCH  30  32
ENDBRANCH   5  30
ENDBRANCH  27   5
ENDBRANCH  18  19
ENDBRANCH  11   8
BRANCH  12   2
ATOM      2  O   UNL     1      -5.346  -9.212  11.008  0.00  0.00    -0.390 OA
ATOM     38  H   UNL     1      -6.204  -9.668  11.012  0.00  0.00    +0.210 HD
ENDBRANCH  12   2
TORSDOF 7
ENDMDL
MODEL 6
REMARK VINA RESULT:      -6.4      2.465      3.297
REMARK  Name = 26742127
REMARK  9 active torsions:
REMARK  status: ('A' for Active; 'I' for Inactive)
REMARK    1  A    between atoms: O_2  and  C_12
REMARK    2  A    between atoms: O_5  and  C_27
REMARK    3  A    between atoms: O_5  and  C_30
REMARK    4  A    between atoms: N_8  and  C_11
REMARK    5  A    between atoms: N_9  and  C_20
REMARK    6  A    between atoms: C_18  and  C_19
REMARK    7  A    between atoms: C_30  and  C_32
REMARK    8  A    between atoms: C_33  and  C_35
REMARK    9  A    between atoms: C_34  and  C_36
REMARK                            x       y       z     vdW  Elec       q    Type
REMARK                         _______ _______ _______ _____ _____    ______ ____
ROOT
ATOM      3  O   UNL     1     -10.849 -14.364  16.353  0.00  0.00    -0.252 OA
ATOM      7  N   UNL     1     -10.176 -14.191  18.558  0.00  0.00    -0.284 N 
ATOM      9  N   UNL     1      -8.575 -14.348  16.827  0.00  0.00    -0.269 N 
ATOM     11  C   UNL     1      -8.736 -12.577  19.848  0.00  0.00    +0.119 C 
ATOM     12  C   UNL     1      -9.842 -11.511  19.746  0.00  0.00    +0.136 C 
ATOM     13  C   UNL     1     -11.218 -11.925  20.281  0.00  0.00    +0.035 C 
ATOM     14  C   UNL     1      -9.163 -14.031  19.610  0.00  0.00    +0.134 C 
ATOM     15  C   UNL     1     -12.048 -12.714  19.266  0.00  0.00    +0.022 C 
ATOM     16  C   UNL     1     -11.564 -14.138  19.023  0.00  0.00    +0.109 C 
ATOM     17  C   UNL     1      -9.926 -14.308  17.170  0.00  0.00    +0.307 C 
ATOM     39  H   UNL     1      -7.918 -14.687  17.522  0.00  0.00    +0.156 HD
ENDROOT
BRANCH   9  20
ATOM      1  F   UNL     1      -6.186 -12.558  12.152  0.00  0.00    -0.205 F 
ATOM     20  C   UNL     1      -7.965 -13.890  15.632  0.00  0.00    +0.035 A 
ATOM     25  C   UNL     1      -7.821 -12.522  15.402  0.00  0.00    +0.026 A 
ATOM     26  C   UNL     1      -7.509 -14.808  14.685  0.00  0.00    +0.026 A 
ATOM     28  C   UNL     1      -7.221 -12.071  14.226  0.00  0.00    +0.040 A 
ATOM     29  C   UNL     1      -6.908 -14.358  13.510  0.00  0.00    +0.040 A 
ATOM     31  C   UNL     1      -6.764 -12.990  13.280  0.00  0.00    +0.124 A 
ENDBRANCH   9  20
BRANCH  11   8
ATOM      4  O   UNL     1      -6.359 -11.131  20.555  0.00  0.00    -0.270 OA
ATOM      8  N   UNL     1      -7.648 -12.213  18.961  0.00  0.00    -0.305 N 
ATOM     18  C   UNL     1      -6.541 -11.513  19.402  0.00  0.00    +0.244 C 
ATOM     37  H   UNL     1      -7.673 -12.592  18.020  0.00  0.00    +0.149 HD
BRANCH  18  19
ATOM     19  C   UNL     1      -5.527 -11.194  18.364  0.00  0.00    +0.037 A 
ATOM     21  C   UNL     1      -5.841 -10.312  17.330  0.00  0.00    +0.016 A 
ATOM     22  C   UNL     1      -4.263 -11.780  18.421  0.00  0.00    +0.016 A 
ATOM     23  C   UNL     1      -4.890 -10.014  16.355  0.00  0.00    +0.046 A 
ATOM     24  C   UNL     1      -3.311 -11.481  17.446  0.00  0.00    +0.046 A 
ATOM     27  C   UNL     1      -3.625 -10.598  16.413  0.00  0.00    +0.121 A 
BRANCH  27   5
ATOM      5  O   UNL     1      -2.696 -10.308  15.461  0.00  0.00    -0.487 OA
BRANCH   5  30
ATOM     30  C   UNL     1      -1.821 -11.363  15.065  0.00  0.00    +0.269 C 
BRANCH  30  32
ATOM      6  O   UNL     1      -3.344 -13.446  12.427  0.00  0.00    -0.359 OA
ATOM     10  N   UNL     1      -2.917 -12.377  11.648  0.00  0.00    -0.083 NA
ATOM     32  C   UNL     1      -2.366 -12.013  13.827  0.00  0.00    +0.054 A 
ATOM     33  C   UNL     1      -3.010 -13.218  13.722  0.00  0.00    +0.141 A 
ATOM     34  C   UNL     1      -2.336 -11.535  12.506  0.00  0.00    +0.087 A 
ATOM     35  C   UNL     1      -3.392 -14.256  14.687  0.00  0.00    +0.089 C 
ATOM     36  C   UNL     1      -1.760 -10.273  12.010  0.00  0.00    +0.069 C 
ENDBRANCH  30  32
ENDBRANCH   5  30
ENDBRANCH  27   5
ENDBRANCH  18  19
ENDBRANCH  11   8
BRANCH  12   2
ATOM      2  O   UNL     1      -9.422 -10.372  20.510  0.00  0.00    -0.390 OA
ATOM     38  H   UNL     1      -9.825  -9.583  20.109  0.00  0.00    +0.210 HD
ENDBRANCH  12   2
TORSDOF 7
ENDMDL
MODEL 7
REMARK VINA RESULT:      -6.3      3.525      6.292
REMARK  Name = 26742127
REMARK  9 active torsions:
REMARK  status: ('A' for Active; 'I' for Inactive)
REMARK    1  A    between atoms: O_2  and  C_12
REMARK    2  A    between atoms: O_5  and  C_27
REMARK    3  A    between atoms: O_5  and  C_30
REMARK    4  A    between atoms: N_8  and  C_11
REMARK    5  A    between atoms: N_9  and  C_20
REMARK    6  A    between atoms: C_18  and  C_19
REMARK    7  A    between atoms: C_30  and  C_32
REMARK    8  A    between atoms: C_33  and  C_35
REMARK    9  A    between atoms: C_34  and  C_36
REMARK                            x       y       z     vdW  Elec       q    Type
REMARK                         _______ _______ _______ _____ _____    ______ ____
ROOT
ATOM      3  O   UNL     1      -7.246 -12.322  15.712  0.00  0.00    -0.252 OA
ATOM      7  N   UNL     1      -5.000 -12.849  15.576  0.00  0.00    -0.284 N 
ATOM      9  N   UNL     1      -6.349 -12.850  13.636  0.00  0.00    -0.269 N 
ATOM     11  C   UNL     1      -3.037 -11.915  14.304  0.00  0.00    +0.119 C 
ATOM     12  C   UNL     1      -3.039 -10.674  15.213  0.00  0.00    +0.136 C 
ATOM     13  C   UNL     1      -2.932 -10.948  16.716  0.00  0.00    +0.035 C 
ATOM     14  C   UNL     1      -3.769 -13.155  14.836  0.00  0.00    +0.134 C 
ATOM     15  C   UNL     1      -4.276 -11.282  17.368  0.00  0.00    +0.022 C 
ATOM     16  C   UNL     1      -4.823 -12.660  17.018  0.00  0.00    +0.109 C 
ATOM     17  C   UNL     1      -6.284 -12.649  15.014  0.00  0.00    +0.307 C 
ATOM     39  H   UNL     1      -5.668 -13.472  13.213  0.00  0.00    +0.156 HD
ENDROOT
BRANCH   9  20
ATOM      1  F   UNL     1      -9.730 -10.394   9.988  0.00  0.00    -0.205 F 
ATOM     20  C   UNL     1      -7.213 -12.221  12.704  0.00  0.00    +0.035 A 
ATOM     25  C   UNL     1      -6.827 -11.033  12.086  0.00  0.00    +0.026 A 
ATOM     26  C   UNL     1      -8.451 -12.792  12.405  0.00  0.00    +0.026 A 
ATOM     28  C   UNL     1      -7.677 -10.414  11.169  0.00  0.00    +0.040 A 
ATOM     29  C   UNL     1      -9.301 -12.176  11.488  0.00  0.00    +0.040 A 
ATOM     31  C   UNL     1      -8.914 -10.987  10.870  0.00  0.00    +0.124 A 
ENDBRANCH   9  20
BRANCH  11   8
ATOM      4  O   UNL     1      -1.504 -10.943  12.080  0.00  0.00    -0.270 OA
ATOM      8  N   UNL     1      -3.546 -11.544  12.997  0.00  0.00    -0.305 N 
ATOM     18  C   UNL     1      -2.720 -11.085  11.989  0.00  0.00    +0.244 C 
ATOM     37  H   UNL     1      -4.523 -11.742  12.809  0.00  0.00    +0.149 HD
BRANCH  18  19
ATOM     19  C   UNL     1      -3.400 -10.722  10.718  0.00  0.00    +0.037 A 
ATOM     21  C   UNL     1      -3.466  -9.386  10.320  0.00  0.00    +0.016 A 
ATOM     22  C   UNL     1      -3.973 -11.715   9.925  0.00  0.00    +0.016 A 
ATOM     23  C   UNL     1      -4.106  -9.045   9.129  0.00  0.00    +0.046 A 
ATOM     24  C   UNL     1      -4.612 -11.373   8.732  0.00  0.00    +0.046 A 
ATOM     27  C   UNL     1      -4.678 -10.038   8.335  0.00  0.00    +0.121 A 
BRANCH  27   5
ATOM      5  O   UNL     1      -5.302  -9.705   7.171  0.00  0.00    -0.487 OA
BRANCH   5  30
ATOM     30  C   UNL     1      -6.665 -10.101   7.030  0.00  0.00    +0.269 C 
BRANCH  30  32
ATOM      6  O   UNL     1      -8.585  -7.510   5.236  0.00  0.00    -0.359 OA
ATOM     10  N   UNL     1      -8.640  -6.979   6.519  0.00  0.00    -0.083 NA
ATOM     32  C   UNL     1      -7.467  -8.931   6.540  0.00  0.00    +0.054 A 
ATOM     33  C   UNL     1      -7.884  -8.672   5.261  0.00  0.00    +0.141 A 
ATOM     34  C   UNL     1      -7.966  -7.845   7.280  0.00  0.00    +0.087 A 
ATOM     35  C   UNL     1      -7.730  -9.369   3.978  0.00  0.00    +0.089 C 
ATOM     36  C   UNL     1      -7.823  -7.588   8.723  0.00  0.00    +0.069 C 
ENDBRANCH  30  32
ENDBRANCH   5  30
ENDBRANCH  27   5
ENDBRANCH  18  19
ENDBRANCH  11   8
BRANCH  12   2
ATOM      2  O   UNL     1      -1.909  -9.867  14.853  0.00  0.00    -0.390 OA
ATOM     38  H   UNL     1      -1.367  -9.746  15.651  0.00  0.00    +0.210 HD
ENDBRANCH  12   2
TORSDOF 7
ENDMDL
MODEL 8
REMARK VINA RESULT:      -6.2     24.371     28.280
REMARK  Name = 26742127
REMARK  9 active torsions:
REMARK  status: ('A' for Active; 'I' for Inactive)
REMARK    1  A    between atoms: O_2  and  C_12
REMARK    2  A    between atoms: O_5  and  C_27
REMARK    3  A    between atoms: O_5  and  C_30
REMARK    4  A    between atoms: N_8  and  C_11
REMARK    5  A    between atoms: N_9  and  C_20
REMARK    6  A    between atoms: C_18  and  C_19
REMARK    7  A    between atoms: C_30  and  C_32
REMARK    8  A    between atoms: C_33  and  C_35
REMARK    9  A    between atoms: C_34  and  C_36
REMARK                            x       y       z     vdW  Elec       q    Type
REMARK                         _______ _______ _______ _____ _____    ______ ____
ROOT
ATOM      3  O   UNL     1       9.064   7.405  -3.990  0.00  0.00    -0.252 OA
ATOM      7  N   UNL     1      10.701   5.780  -4.142  0.00  0.00    -0.284 N 
ATOM      9  N   UNL     1      10.630   7.238  -2.283  0.00  0.00    -0.269 N 
ATOM     11  C   UNL     1      11.414   3.846  -2.694  0.00  0.00    +0.119 C 
ATOM     12  C   UNL     1      10.139   3.080  -3.091  0.00  0.00    +0.136 C 
ATOM     13  C   UNL     1       9.919   2.887  -4.595  0.00  0.00    +0.035 C 
ATOM     14  C   UNL     1      11.830   5.004  -3.611  0.00  0.00    +0.134 C 
ATOM     15  C   UNL     1       9.262   4.093  -5.270  0.00  0.00    +0.022 C 
ATOM     16  C   UNL     1      10.173   5.305  -5.423  0.00  0.00    +0.109 C 
ATOM     17  C   UNL     1      10.055   6.861  -3.496  0.00  0.00    +0.307 C 
ATOM     39  H   UNL     1      11.614   7.038  -2.141  0.00  0.00    +0.156 HD
ENDROOT
BRANCH   9  20
ATOM      1  F   UNL     1       8.117   9.462   2.134  0.00  0.00    -0.205 F 
ATOM     20  C   UNL     1       9.988   7.807  -1.154  0.00  0.00    +0.035 A 
ATOM     25  C   UNL     1       9.402   9.069  -1.248  0.00  0.00    +0.026 A 
ATOM     26  C   UNL     1       9.943   7.105   0.050  0.00  0.00    +0.026 A 
ATOM     28  C   UNL     1       8.771   9.629  -0.137  0.00  0.00    +0.040 A 
ATOM     29  C   UNL     1       9.311   7.663   1.161  0.00  0.00    +0.040 A 
ATOM     31  C   UNL     1       8.725   8.926   1.068  0.00  0.00    +0.124 A 
ENDBRANCH   9  20
BRANCH  11   8
ATOM      4  O   UNL     1      13.195   3.266  -0.519  0.00  0.00    -0.270 OA
ATOM      8  N   UNL     1      11.284   4.301  -1.324  0.00  0.00    -0.305 N 
ATOM     18  C   UNL     1      12.200   3.965  -0.346  0.00  0.00    +0.244 C 
ATOM     37  H   UNL     1      10.550   4.976  -1.128  0.00  0.00    +0.149 HD
BRANCH  18  19
ATOM     19  C   UNL     1      11.910   4.489   1.014  0.00  0.00    +0.037 A 
ATOM     21  C   UNL     1      10.824   3.993   1.736  0.00  0.00    +0.016 A 
ATOM     22  C   UNL     1      12.721   5.479   1.568  0.00  0.00    +0.016 A 
ATOM     23  C   UNL     1      10.550   4.486   3.011  0.00  0.00    +0.046 A 
ATOM     24  C   UNL     1      12.447   5.972   2.844  0.00  0.00    +0.046 A 
ATOM     27  C   UNL     1      11.362   5.475   3.565  0.00  0.00    +0.121 A 
BRANCH  27   5
ATOM      5  O   UNL     1      11.096   5.956   4.811  0.00  0.00    -0.487 OA
BRANCH   5  30
ATOM     30  C   UNL     1      10.149   5.233   5.597  0.00  0.00    +0.269 C 
BRANCH  30  32
ATOM      6  O   UNL     1       8.115   7.861   7.202  0.00  0.00    -0.359 OA
ATOM     10  N   UNL     1       8.618   7.243   8.340  0.00  0.00    -0.083 NA
ATOM     32  C   UNL     1       9.408   6.195   6.479  0.00  0.00    +0.054 A 
ATOM     33  C   UNL     1       8.592   7.229   6.100  0.00  0.00    +0.141 A 
ATOM     34  C   UNL     1       9.387   6.251   7.883  0.00  0.00    +0.087 A 
ATOM     35  C   UNL     1       8.156   7.759   4.802  0.00  0.00    +0.089 C 
ATOM     36  C   UNL     1      10.089   5.376   8.837  0.00  0.00    +0.069 C 
ENDBRANCH  30  32
ENDBRANCH   5  30
ENDBRANCH  27   5
ENDBRANCH  18  19
ENDBRANCH  11   8
BRANCH  12   2
ATOM      2  O   UNL     1      10.216   1.772  -2.507  0.00  0.00    -0.390 OA
ATOM     38  H   UNL     1      10.937   1.783  -1.854  0.00  0.00    +0.210 HD
ENDBRANCH  12   2
TORSDOF 7
ENDMDL
MODEL 9
REMARK VINA RESULT:      -6.2      1.733      2.407
REMARK  Name = 26742127
REMARK  9 active torsions:
REMARK  status: ('A' for Active; 'I' for Inactive)
REMARK    1  A    between atoms: O_2  and  C_12
REMARK    2  A    between atoms: O_5  and  C_27
REMARK    3  A    between atoms: O_5  and  C_30
REMARK    4  A    between atoms: N_8  and  C_11
REMARK    5  A    between atoms: N_9  and  C_20
REMARK    6  A    between atoms: C_18  and  C_19
REMARK    7  A    between atoms: C_30  and  C_32
REMARK    8  A    between atoms: C_33  and  C_35
REMARK    9  A    between atoms: C_34  and  C_36
REMARK                            x       y       z     vdW  Elec       q    Type
REMARK                         _______ _______ _______ _____ _____    ______ ____
ROOT
ATOM      3  O   UNL     1     -12.072 -11.167  15.435  0.00  0.00    -0.252 OA
ATOM      7  N   UNL     1     -11.597 -12.172  17.462  0.00  0.00    -0.284 N 
ATOM      9  N   UNL     1      -9.993 -12.161  15.727  0.00  0.00    -0.269 N 
ATOM     11  C   UNL     1      -9.815 -11.865  19.216  0.00  0.00    +0.119 C 
ATOM     12  C   UNL     1     -10.464 -10.536  19.640  0.00  0.00    +0.136 C 
ATOM     13  C   UNL     1     -11.942 -10.612  20.038  0.00  0.00    +0.035 C 
ATOM     14  C   UNL     1     -10.699 -12.833  18.418  0.00  0.00    +0.134 C 
ATOM     15  C   UNL     1     -12.894 -10.558  18.841  0.00  0.00    +0.022 C 
ATOM     16  C   UNL     1     -12.917 -11.824  17.994  0.00  0.00    +0.109 C 
ATOM     17  C   UNL     1     -11.271 -11.786  16.140  0.00  0.00    +0.307 C 
ATOM     39  H   UNL     1      -9.566 -12.966  16.172  0.00  0.00    +0.156 HD
ENDROOT
BRANCH   9  20
ATOM      1  F   UNL     1      -6.695  -9.581  12.089  0.00  0.00    -0.205 F 
ATOM     20  C   UNL     1      -9.149 -11.501  14.797  0.00  0.00    +0.035 A 
ATOM     25  C   UNL     1      -8.243 -12.237  14.034  0.00  0.00    +0.026 A 
ATOM     26  C   UNL     1      -9.225 -10.117  14.646  0.00  0.00    +0.026 A 
ATOM     28  C   UNL     1      -7.413 -11.589  13.119  0.00  0.00    +0.040 A 
ATOM     29  C   UNL     1      -8.397  -9.467  13.732  0.00  0.00    +0.040 A 
ATOM     31  C   UNL     1      -7.491 -10.203  12.968  0.00  0.00    +0.124 A 
ENDBRANCH   9  20
BRANCH  11   8
ATOM      4  O   UNL     1      -7.161 -11.807  20.308  0.00  0.00    -0.270 OA
ATOM      8  N   UNL     1      -8.589 -11.583  18.496  0.00  0.00    -0.305 N 
ATOM     18  C   UNL     1      -7.354 -11.580  19.116  0.00  0.00    +0.244 C 
ATOM     37  H   UNL     1      -8.654 -11.498  17.486  0.00  0.00    +0.149 HD
BRANCH  18  19
ATOM     19  C   UNL     1      -6.198 -11.245  18.246  0.00  0.00    +0.037 A 
ATOM     21  C   UNL     1      -6.391 -10.490  17.089  0.00  0.00    +0.016 A 
ATOM     22  C   UNL     1      -4.919 -11.689  18.584  0.00  0.00    +0.016 A 
ATOM     23  C   UNL     1      -5.306 -10.178  16.270  0.00  0.00    +0.046 A 
ATOM     24  C   UNL     1      -3.834 -11.375  17.765  0.00  0.00    +0.046 A 
ATOM     27  C   UNL     1      -4.028 -10.620  16.609  0.00  0.00    +0.121 A 
BRANCH  27   5
ATOM      5  O   UNL     1      -2.968 -10.315  15.810  0.00  0.00    -0.487 OA
BRANCH   5  30
ATOM     30  C   UNL     1      -2.197 -11.406  15.311  0.00  0.00    +0.269 C 
BRANCH  30  32
ATOM      6  O   UNL     1      -3.439 -12.219  11.932  0.00  0.00    -0.359 OA
ATOM     10  N   UNL     1      -4.121 -13.188  12.659  0.00  0.00    -0.083 NA
ATOM     32  C   UNL     1      -2.840 -11.929  14.060  0.00  0.00    +0.054 A 
ATOM     33  C   UNL     1      -2.680 -11.477  12.777  0.00  0.00    +0.141 A 
ATOM     34  C   UNL     1      -3.748 -12.995  13.926  0.00  0.00    +0.087 A 
ATOM     35  C   UNL     1      -1.888 -10.400  12.168  0.00  0.00    +0.089 C 
ATOM     36  C   UNL     1      -4.292 -13.862  14.985  0.00  0.00    +0.069 C 
ENDBRANCH  30  32
ENDBRANCH   5  30
ENDBRANCH  27   5
ENDBRANCH  18  19
ENDBRANCH  11   8
BRANCH  12   2
ATOM      2  O   UNL     1      -9.747 -10.046  20.783  0.00  0.00    -0.390 OA
ATOM     38  H   UNL     1     -10.399  -9.678  21.404  0.00  0.00    +0.210 HD
ENDBRANCH  12   2
TORSDOF 7
ENDMDL
MODEL 10
REMARK VINA RESULT:      -6.1      2.545      4.764
REMARK  Name = 26742127
REMARK  9 active torsions:
REMARK  status: ('A' for Active; 'I' for Inactive)
REMARK    1  A    between atoms: O_2  and  C_12
REMARK    2  A    between atoms: O_5  and  C_27
REMARK    3  A    between atoms: O_5  and  C_30
REMARK    4  A    between atoms: N_8  and  C_11
REMARK    5  A    between atoms: N_9  and  C_20
REMARK    6  A    between atoms: C_18  and  C_19
REMARK    7  A    between atoms: C_30  and  C_32
REMARK    8  A    between atoms: C_33  and  C_35
REMARK    9  A    between atoms: C_34  and  C_36
REMARK                            x       y       z     vdW  Elec       q    Type
REMARK                         _______ _______ _______ _____ _____    ______ ____
ROOT
ATOM      3  O   UNL     1     -10.370 -12.219  20.829  0.00  0.00    -0.252 OA
ATOM      7  N   UNL     1     -11.554 -10.565  19.730  0.00  0.00    -0.284 N 
ATOM      9  N   UNL     1      -9.208 -10.716  19.494  0.00  0.00    -0.269 N 
ATOM     11  C   UNL     1     -11.831  -9.891  17.320  0.00  0.00    +0.119 C 
ATOM     12  C   UNL     1     -12.688 -11.144  17.068  0.00  0.00    +0.136 C 
ATOM     13  C   UNL     1     -13.911 -11.308  17.976  0.00  0.00    +0.035 C 
ATOM     14  C   UNL     1     -11.674  -9.451  18.781  0.00  0.00    +0.134 C 
ATOM     15  C   UNL     1     -13.582 -11.949  19.326  0.00  0.00    +0.022 C 
ATOM     16  C   UNL     1     -12.822 -11.043  20.287  0.00  0.00    +0.109 C 
ATOM     17  C   UNL     1     -10.360 -11.243  20.075  0.00  0.00    +0.307 C 
ATOM     39  H   UNL     1      -9.213  -9.736  19.232  0.00  0.00    +0.156 HD
ENDROOT
BRANCH   9  20
ATOM      1  F   UNL     1      -4.563 -13.401  18.084  0.00  0.00    -0.205 F 
ATOM     20  C   UNL     1      -8.021 -11.403  19.134  0.00  0.00    +0.035 A 
ATOM     25  C   UNL     1      -8.071 -12.442  18.205  0.00  0.00    +0.026 A 
ATOM     26  C   UNL     1      -6.803 -11.040  19.708  0.00  0.00    +0.026 A 
ATOM     28  C   UNL     1      -6.903 -13.118  17.850  0.00  0.00    +0.040 A 
ATOM     29  C   UNL     1      -5.634 -11.714  19.354  0.00  0.00    +0.040 A 
ATOM     31  C   UNL     1      -5.685 -12.753  18.425  0.00  0.00    +0.124 A 
ENDBRANCH   9  20
BRANCH  11   8
ATOM      4  O   UNL     1      -9.889  -7.849  16.771  0.00  0.00    -0.270 OA
ATOM      8  N   UNL     1     -10.533 -10.075  16.700  0.00  0.00    -0.305 N 
ATOM     18  C   UNL     1      -9.666  -9.021  16.479  0.00  0.00    +0.244 C 
ATOM     37  H   UNL     1     -10.230 -11.030  16.535  0.00  0.00    +0.149 HD
BRANCH  18  19
ATOM     19  C   UNL     1      -8.387  -9.372  15.810  0.00  0.00    +0.037 A 
ATOM     21  C   UNL     1      -7.192  -9.339  16.530  0.00  0.00    +0.016 A 
ATOM     22  C   UNL     1      -8.380  -9.732  14.463  0.00  0.00    +0.016 A 
ATOM     23  C   UNL     1      -5.991  -9.665  15.901  0.00  0.00    +0.046 A 
ATOM     24  C   UNL     1      -7.178 -10.059  13.835  0.00  0.00    +0.046 A 
ATOM     27  C   UNL     1      -5.983 -10.026  14.554  0.00  0.00    +0.121 A 
BRANCH  27   5
ATOM      5  O   UNL     1      -4.811 -10.346  13.941  0.00  0.00    -0.487 OA
BRANCH   5  30
ATOM     30  C   UNL     1      -4.898 -11.000  12.676  0.00  0.00    +0.269 C 
BRANCH  30  32
ATOM      6  O   UNL     1      -3.757  -8.771   9.966  0.00  0.00    -0.359 OA
ATOM     10  N   UNL     1      -2.523  -9.231  10.409  0.00  0.00    -0.083 NA
ATOM     32  C   UNL     1      -4.188 -10.171  11.646  0.00  0.00    +0.054 A 
ATOM     33  C   UNL     1      -4.740  -9.337  10.709  0.00  0.00    +0.141 A 
ATOM     34  C   UNL     1      -2.806 -10.066  11.412  0.00  0.00    +0.087 A 
ATOM     35  C   UNL     1      -6.117  -8.955  10.370  0.00  0.00    +0.089 C 
ATOM     36  C   UNL     1      -1.711 -10.746  12.124  0.00  0.00    +0.069 C 
ENDBRANCH  30  32
ENDBRANCH   5  30
ENDBRANCH  27   5
ENDBRANCH  18  19
ENDBRANCH  11   8
BRANCH  12   2
ATOM      2  O   UNL     1     -13.172 -11.078  15.719  0.00  0.00    -0.390 OA
ATOM     38  H   UNL     1     -13.506 -11.960  15.483  0.00  0.00    +0.210 HD
ENDBRANCH  12   2
TORSDOF 7
ENDMDL
