MODEL 1
REMARK VINA RESULT:      -7.8      0.000      0.000
REMARK  Name = 26742911
REMARK  7 active torsions:
REMARK  status: ('A' for Active; 'I' for Inactive)
REMARK    1  A    between atoms: N_5  and  C_18
REMARK    2  A    between atoms: C_7  and  C_13
REMARK    3  A    between atoms: C_8  and  C_12
REMARK    4  A    between atoms: C_12  and  C_14
REMARK    5  A    between atoms: C_13  and  C_15
REMARK    6  A    between atoms: C_17  and  C_19
REMARK    7  A    between atoms: C_18  and  C_20
REMARK                            x       y       z     vdW  Elec       q    Type
REMARK                         _______ _______ _______ _____ _____    ______ ____
ROOT
ATOM      4  N   UNL     1     -18.531   4.810  26.951  0.00  0.00    -0.316 NA
ATOM      7  C   UNL     1     -16.103   3.225  27.497  0.00  0.00    +0.004 C 
ATOM      8  C   UNL     1     -16.436   3.788  26.095  0.00  0.00    +0.012 C 
ATOM      9  C   UNL     1     -16.806   4.083  28.563  0.00  0.00    +0.019 C 
ATOM     10  C   UNL     1     -17.951   3.972  25.901  0.00  0.00    +0.085 C 
ATOM     11  C   UNL     1     -18.299   4.253  28.282  0.00  0.00    +0.081 C 
ATOM     31  H   UNL     1     -19.535   4.901  26.794  0.00  0.00    +0.122 HD
ENDROOT
BRANCH   8  12
ATOM     12  C   UNL     1     -15.846   2.953  24.958  0.00  0.00    +0.064 C 
BRANCH  12  14
ATOM      3  O   UNL     1     -15.731   4.669  21.795  0.00  0.00    -0.354 OA
ATOM      6  N   UNL     1     -16.313   3.782  22.692  0.00  0.00    -0.083 NA
ATOM     14  C   UNL     1     -15.519   3.807  23.766  0.00  0.00    +0.085 A 
ATOM     16  C   UNL     1     -14.431   4.682  23.606  0.00  0.00    +0.076 A 
ATOM     17  C   UNL     1     -14.610   5.198  22.350  0.00  0.00    +0.167 A 
BRANCH  17  19
ATOM      1  F   UNL     1     -11.843   8.844  19.190  0.00  0.00    -0.205 F 
ATOM     19  C   UNL     1     -13.897   6.138  21.536  0.00  0.00    +0.020 A 
ATOM     21  C   UNL     1     -14.591   7.136  20.852  0.00  0.00    +0.014 A 
ATOM     22  C   UNL     1     -12.509   6.055  21.429  0.00  0.00    +0.014 A 
ATOM     25  C   UNL     1     -13.897   8.050  20.059  0.00  0.00    +0.039 A 
ATOM     26  C   UNL     1     -11.815   6.969  20.637  0.00  0.00    +0.039 A 
ATOM     29  C   UNL     1     -12.509   7.967  19.952  0.00  0.00    +0.123 A 
ENDBRANCH  17  19
ENDBRANCH  12  14
ENDBRANCH   8  12
BRANCH   7  13
ATOM     13  C   UNL     1     -16.453   1.742  27.672  0.00  0.00    +0.099 C 
BRANCH  13  15
ATOM      2  O   UNL     1     -16.364   0.310  29.620  0.00  0.00    -0.276 OA
ATOM      5  N   UNL     1     -14.545   1.667  29.119  0.00  0.00    -0.311 N 
ATOM     15  C   UNL     1     -15.814   1.146  28.909  0.00  0.00    +0.214 C 
ATOM     32  H   UNL     1     -14.186   2.371  28.480  0.00  0.00    +0.149 HD
BRANCH   5  18
ATOM     18  C   UNL     1     -13.706   1.278  30.228  0.00  0.00    +0.139 C 
BRANCH  18  20
ATOM     20  C   UNL     1     -14.011   2.066  31.468  0.00  0.00    -0.030 A 
ATOM     23  C   UNL     1     -14.579   1.433  32.574  0.00  0.00    +0.005 A 
ATOM     24  C   UNL     1     -13.727   3.430  31.516  0.00  0.00    +0.005 A 
ATOM     27  C   UNL     1     -14.863   2.165  33.727  0.00  0.00    +0.000 A 
ATOM     28  C   UNL     1     -14.011   4.163  32.668  0.00  0.00    +0.000 A 
ATOM     30  C   UNL     1     -14.579   3.530  33.774  0.00  0.00    +0.000 A 
ENDBRANCH  18  20
ENDBRANCH   5  18
ENDBRANCH  13  15
ENDBRANCH   7  13
TORSDOF 7
ENDMDL
MODEL 2
REMARK VINA RESULT:      -7.4     21.277     23.604
REMARK  Name = 26742911
REMARK  7 active torsions:
REMARK  status: ('A' for Active; 'I' for Inactive)
REMARK    1  A    between atoms: N_5  and  C_18
REMARK    2  A    between atoms: C_7  and  C_13
REMARK    3  A    between atoms: C_8  and  C_12
REMARK    4  A    between atoms: C_12  and  C_14
REMARK    5  A    between atoms: C_13  and  C_15
REMARK    6  A    between atoms: C_17  and  C_19
REMARK    7  A    between atoms: C_18  and  C_20
REMARK                            x       y       z     vdW  Elec       q    Type
REMARK                         _______ _______ _______ _____ _____    ______ ____
ROOT
ATOM      4  N   UNL     1      -3.870  -8.805   9.654  0.00  0.00    -0.316 NA
ATOM      7  C   UNL     1      -4.070 -11.223  11.334  0.00  0.00    +0.004 C 
ATOM      8  C   UNL     1      -3.158 -10.027  11.696  0.00  0.00    +0.012 C 
ATOM      9  C   UNL     1      -5.212 -10.728  10.431  0.00  0.00    +0.019 C 
ATOM     10  C   UNL     1      -2.720  -9.247  10.445  0.00  0.00    +0.085 C 
ATOM     11  C   UNL     1      -4.702  -9.929   9.231  0.00  0.00    +0.081 C 
ATOM     31  H   UNL     1      -3.540  -8.301   8.832  0.00  0.00    +0.122 HD
ENDROOT
BRANCH   8  12
ATOM     12  C   UNL     1      -1.941 -10.431  12.530  0.00  0.00    +0.064 C 
BRANCH  12  14
ATOM      3  O   UNL     1      -1.978 -10.632  16.124  0.00  0.00    -0.354 OA
ATOM      6  N   UNL     1      -1.321 -10.510  14.906  0.00  0.00    -0.083 NA
ATOM     14  C   UNL     1      -2.289 -10.540  13.987  0.00  0.00    +0.085 A 
ATOM     16  C   UNL     1      -3.565 -10.677  14.559  0.00  0.00    +0.076 A 
ATOM     17  C   UNL     1      -3.314 -10.731  15.905  0.00  0.00    +0.167 A 
BRANCH  17  19
ATOM      1  F   UNL     1      -6.477 -11.244  20.452  0.00  0.00    -0.205 F 
ATOM     19  C   UNL     1      -4.129 -10.863  17.077  0.00  0.00    +0.020 A 
ATOM     21  C   UNL     1      -3.705 -11.669  18.134  0.00  0.00    +0.014 A 
ATOM     22  C   UNL     1      -5.345 -10.184  17.161  0.00  0.00    +0.014 A 
ATOM     25  C   UNL     1      -4.499 -11.798  19.274  0.00  0.00    +0.039 A 
ATOM     26  C   UNL     1      -6.138 -10.313  18.301  0.00  0.00    +0.039 A 
ATOM     29  C   UNL     1      -5.715 -11.120  19.357  0.00  0.00    +0.123 A 
ENDBRANCH  17  19
ENDBRANCH  12  14
ENDBRANCH   8  12
BRANCH   7  13
ATOM     13  C   UNL     1      -3.328 -12.397  10.683  0.00  0.00    +0.099 C 
BRANCH  13  15
ATOM      2  O   UNL     1      -3.277 -14.797  10.982  0.00  0.00    -0.276 OA
ATOM      5  N   UNL     1      -3.979 -13.444  12.736  0.00  0.00    -0.311 N 
ATOM     15  C   UNL     1      -3.514 -13.688  11.452  0.00  0.00    +0.214 C 
ATOM     32  H   UNL     1      -4.163 -12.487  13.024  0.00  0.00    +0.149 HD
BRANCH   5  18
ATOM     18  C   UNL     1      -4.248 -14.495  13.691  0.00  0.00    +0.139 C 
BRANCH  18  20
ATOM     20  C   UNL     1      -5.268 -14.080  14.711  0.00  0.00    -0.030 A 
ATOM     23  C   UNL     1      -5.163 -14.531  16.026  0.00  0.00    +0.005 A 
ATOM     24  C   UNL     1      -6.321 -13.243  14.343  0.00  0.00    +0.005 A 
ATOM     27  C   UNL     1      -6.111 -14.146  16.974  0.00  0.00    +0.000 A 
ATOM     28  C   UNL     1      -7.270 -12.857  15.291  0.00  0.00    +0.000 A 
ATOM     30  C   UNL     1      -7.165 -13.308  16.606  0.00  0.00    +0.000 A 
ENDBRANCH  18  20
ENDBRANCH   5  18
ENDBRANCH  13  15
ENDBRANCH   7  13
TORSDOF 7
ENDMDL
MODEL 3
REMARK VINA RESULT:      -7.1     19.091     21.434
REMARK  Name = 26742911
REMARK  7 active torsions:
REMARK  status: ('A' for Active; 'I' for Inactive)
REMARK    1  A    between atoms: N_5  and  C_18
REMARK    2  A    between atoms: C_7  and  C_13
REMARK    3  A    between atoms: C_8  and  C_12
REMARK    4  A    between atoms: C_12  and  C_14
REMARK    5  A    between atoms: C_13  and  C_15
REMARK    6  A    between atoms: C_17  and  C_19
REMARK    7  A    between atoms: C_18  and  C_20
REMARK                            x       y       z     vdW  Elec       q    Type
REMARK                         _______ _______ _______ _____ _____    ______ ____
ROOT
ATOM      4  N   UNL     1      -1.353  -9.920  14.994  0.00  0.00    -0.316 NA
ATOM      7  C   UNL     1      -3.954 -11.311  14.908  0.00  0.00    +0.004 C 
ATOM      8  C   UNL     1      -3.391 -10.670  16.198  0.00  0.00    +0.012 C 
ATOM      9  C   UNL     1      -3.332 -10.612  13.687  0.00  0.00    +0.019 C 
ATOM     10  C   UNL     1      -1.854 -10.613  16.181  0.00  0.00    +0.085 C 
ATOM     11  C   UNL     1      -1.806 -10.559  13.760  0.00  0.00    +0.081 C 
ATOM     31  H   UNL     1      -0.334  -9.911  15.014  0.00  0.00    +0.122 HD
ENDROOT
BRANCH   8  12
ATOM     12  C   UNL     1      -3.889 -11.352  17.473  0.00  0.00    +0.064 C 
BRANCH  12  14
ATOM      3  O   UNL     1      -7.414 -11.947  17.909  0.00  0.00    -0.354 OA
ATOM      6  N   UNL     1      -6.089 -12.367  17.883  0.00  0.00    -0.083 NA
ATOM     14  C   UNL     1      -5.385 -11.272  17.587  0.00  0.00    +0.085 A 
ATOM     16  C   UNL     1      -6.202 -10.141  17.417  0.00  0.00    +0.076 A 
ATOM     17  C   UNL     1      -7.468 -10.619  17.629  0.00  0.00    +0.167 A 
BRANCH  17  19
ATOM      1  F   UNL     1     -12.554  -8.367  17.597  0.00  0.00    -0.205 F 
ATOM     19  C   UNL     1      -8.779 -10.039  17.621  0.00  0.00    +0.020 A 
ATOM     21  C   UNL     1      -8.951  -8.711  17.231  0.00  0.00    +0.014 A 
ATOM     22  C   UNL     1      -9.882 -10.803  18.001  0.00  0.00    +0.014 A 
ATOM     25  C   UNL     1     -10.226  -8.145  17.223  0.00  0.00    +0.039 A 
ATOM     26  C   UNL     1     -11.157 -10.238  17.993  0.00  0.00    +0.039 A 
ATOM     29  C   UNL     1     -11.329  -8.910  17.604  0.00  0.00    +0.123 A 
ENDBRANCH  17  19
ENDBRANCH  12  14
ENDBRANCH   8  12
BRANCH   7  13
ATOM     13  C   UNL     1      -3.753 -12.830  14.827  0.00  0.00    +0.099 C 
BRANCH  13  15
ATOM      2  O   UNL     1      -5.130 -14.781  14.441  0.00  0.00    -0.276 OA
ATOM      5  N   UNL     1      -6.141 -12.703  14.690  0.00  0.00    -0.311 N 
ATOM     15  C   UNL     1      -5.059 -13.570  14.629  0.00  0.00    +0.214 C 
ATOM     32  H   UNL     1      -5.974 -11.710  14.832  0.00  0.00    +0.149 HD
BRANCH   5  18
ATOM     18  C   UNL     1      -7.510 -13.137  14.532  0.00  0.00    +0.139 C 
BRANCH  18  20
ATOM     20  C   UNL     1      -8.444 -11.981  14.319  0.00  0.00    -0.030 A 
ATOM     23  C   UNL     1      -7.953 -10.764  13.848  0.00  0.00    +0.005 A 
ATOM     24  C   UNL     1      -9.805 -12.126  14.591  0.00  0.00    +0.005 A 
ATOM     27  C   UNL     1      -8.822  -9.691  13.650  0.00  0.00    +0.000 A 
ATOM     28  C   UNL     1     -10.674 -11.053  14.392  0.00  0.00    +0.000 A 
ATOM     30  C   UNL     1     -10.182  -9.835  13.922  0.00  0.00    +0.000 A 
ENDBRANCH  18  20
ENDBRANCH   5  18
ENDBRANCH  13  15
ENDBRANCH   7  13
TORSDOF 7
ENDMDL
MODEL 4
REMARK VINA RESULT:      -7.0     20.619     22.575
REMARK  Name = 26742911
REMARK  7 active torsions:
REMARK  status: ('A' for Active; 'I' for Inactive)
REMARK    1  A    between atoms: N_5  and  C_18
REMARK    2  A    between atoms: C_7  and  C_13
REMARK    3  A    between atoms: C_8  and  C_12
REMARK    4  A    between atoms: C_12  and  C_14
REMARK    5  A    between atoms: C_13  and  C_15
REMARK    6  A    between atoms: C_17  and  C_19
REMARK    7  A    between atoms: C_18  and  C_20
REMARK                            x       y       z     vdW  Elec       q    Type
REMARK                         _______ _______ _______ _____ _____    ______ ____
ROOT
ATOM      4  N   UNL     1      -2.941 -15.356  11.431  0.00  0.00    -0.316 NA
ATOM      7  C   UNL     1      -3.153 -13.358  13.592  0.00  0.00    +0.004 C 
ATOM      8  C   UNL     1      -4.015 -13.296  12.309  0.00  0.00    +0.012 C 
ATOM      9  C   UNL     1      -2.709 -14.812  13.829  0.00  0.00    +0.019 C 
ATOM     10  C   UNL     1      -3.315 -13.975  11.120  0.00  0.00    +0.085 C 
ATOM     11  C   UNL     1      -2.058 -15.431  12.593  0.00  0.00    +0.081 C 
ATOM     31  H   UNL     1      -2.474 -15.768  10.624  0.00  0.00    +0.122 HD
ENDROOT
BRANCH   8  12
ATOM     12  C   UNL     1      -4.441 -11.874  11.941  0.00  0.00    +0.064 C 
BRANCH  12  14
ATOM      3  O   UNL     1      -5.878  -9.738  14.458  0.00  0.00    -0.354 OA
ATOM      6  N   UNL     1      -4.957 -10.006  13.452  0.00  0.00    -0.083 NA
ATOM     14  C   UNL     1      -5.247 -11.243  13.040  0.00  0.00    +0.085 A 
ATOM     16  C   UNL     1      -6.329 -11.800  13.742  0.00  0.00    +0.076 A 
ATOM     17  C   UNL     1      -6.689 -10.814  14.622  0.00  0.00    +0.167 A 
BRANCH  17  19
ATOM      1  F   UNL     1     -10.602 -10.308  18.543  0.00  0.00    -0.205 F 
ATOM     19  C   UNL     1      -7.697 -10.684  15.633  0.00  0.00    +0.020 A 
ATOM     21  C   UNL     1      -8.653 -11.686  15.797  0.00  0.00    +0.014 A 
ATOM     22  C   UNL     1      -7.722  -9.555  16.452  0.00  0.00    +0.014 A 
ATOM     25  C   UNL     1      -9.635 -11.560  16.781  0.00  0.00    +0.039 A 
ATOM     26  C   UNL     1      -8.703  -9.428  17.435  0.00  0.00    +0.039 A 
ATOM     29  C   UNL     1      -9.660 -10.430  17.599  0.00  0.00    +0.123 A 
ENDBRANCH  17  19
ENDBRANCH  12  14
ENDBRANCH   8  12
BRANCH   7  13
ATOM     13  C   UNL     1      -1.944 -12.414  13.577  0.00  0.00    +0.099 C 
BRANCH  13  15
ATOM      2  O   UNL     1      -1.242 -10.432  14.773  0.00  0.00    -0.276 OA
ATOM      5  N   UNL     1      -3.006 -11.698  15.600  0.00  0.00    -0.311 N 
ATOM     15  C   UNL     1      -1.999 -11.395  14.696  0.00  0.00    +0.214 C 
ATOM     32  H   UNL     1      -3.569 -12.532  15.456  0.00  0.00    +0.149 HD
BRANCH   5  18
ATOM     18  C   UNL     1      -3.286 -10.896  16.769  0.00  0.00    +0.139 C 
BRANCH  18  20
ATOM     20  C   UNL     1      -4.462 -11.418  17.541  0.00  0.00    -0.030 A 
ATOM     23  C   UNL     1      -4.994 -10.671  18.592  0.00  0.00    +0.005 A 
ATOM     24  C   UNL     1      -5.024 -12.651  17.208  0.00  0.00    +0.005 A 
ATOM     27  C   UNL     1      -6.088 -11.156  19.310  0.00  0.00    +0.000 A 
ATOM     28  C   UNL     1      -6.117 -13.136  17.926  0.00  0.00    +0.000 A 
ATOM     30  C   UNL     1      -6.649 -12.389  18.977  0.00  0.00    +0.000 A 
ENDBRANCH  18  20
ENDBRANCH   5  18
ENDBRANCH  13  15
ENDBRANCH   7  13
TORSDOF 7
ENDMDL
MODEL 5
REMARK VINA RESULT:      -6.7     16.202     19.437
REMARK  Name = 26742911
REMARK  7 active torsions:
REMARK  status: ('A' for Active; 'I' for Inactive)
REMARK    1  A    between atoms: N_5  and  C_18
REMARK    2  A    between atoms: C_7  and  C_13
REMARK    3  A    between atoms: C_8  and  C_12
REMARK    4  A    between atoms: C_12  and  C_14
REMARK    5  A    between atoms: C_13  and  C_15
REMARK    6  A    between atoms: C_17  and  C_19
REMARK    7  A    between atoms: C_18  and  C_20
REMARK                            x       y       z     vdW  Elec       q    Type
REMARK                         _______ _______ _______ _____ _____    ______ ____
ROOT
ATOM      4  N   UNL     1     -13.593  -9.780  14.665  0.00  0.00    -0.316 NA
ATOM      7  C   UNL     1     -12.090  -7.247  14.485  0.00  0.00    +0.004 C 
ATOM      8  C   UNL     1     -11.796  -8.319  15.561  0.00  0.00    +0.012 C 
ATOM      9  C   UNL     1     -12.752  -7.921  13.271  0.00  0.00    +0.019 C 
ATOM     10  C   UNL     1     -13.040  -9.167  15.873  0.00  0.00    +0.085 C 
ATOM     11  C   UNL     1     -13.955  -8.777  13.665  0.00  0.00    +0.081 C 
ATOM     31  H   UNL     1     -14.419 -10.325  14.911  0.00  0.00    +0.122 HD
ENDROOT
BRANCH   8  12
ATOM     12  C   UNL     1     -11.208  -7.733  16.845  0.00  0.00    +0.064 C 
BRANCH  12  14
ATOM      3  O   UNL     1      -9.338 -10.213  18.666  0.00  0.00    -0.354 OA
ATOM      6  N   UNL     1     -10.519  -9.560  18.339  0.00  0.00    -0.083 NA
ATOM     14  C   UNL     1     -10.167  -8.643  17.434  0.00  0.00    +0.085 A 
ATOM     16  C   UNL     1      -8.790  -8.670  17.154  0.00  0.00    +0.076 A 
ATOM     17  C   UNL     1      -8.315  -9.674  17.955  0.00  0.00    +0.167 A 
BRANCH  17  19
ATOM      1  F   UNL     1      -3.303 -11.910  18.860  0.00  0.00    -0.205 F 
ATOM     19  C   UNL     1      -7.023 -10.251  18.188  0.00  0.00    +0.020 A 
ATOM     21  C   UNL     1      -6.737 -10.848  19.416  0.00  0.00    +0.014 A 
ATOM     22  C   UNL     1      -6.053 -10.216  17.186  0.00  0.00    +0.014 A 
ATOM     25  C   UNL     1      -5.480 -11.409  19.643  0.00  0.00    +0.039 A 
ATOM     26  C   UNL     1      -4.796 -10.776  17.414  0.00  0.00    +0.039 A 
ATOM     29  C   UNL     1      -4.510 -11.372  18.641  0.00  0.00    +0.123 A 
ENDBRANCH  17  19
ENDBRANCH  12  14
ENDBRANCH   8  12
BRANCH   7  13
ATOM     13  C   UNL     1     -12.942  -6.075  14.989  0.00  0.00    +0.099 C 
BRANCH  13  15
ATOM      2  O   UNL     1     -14.510  -4.988  13.502  0.00  0.00    -0.276 OA
ATOM      5  N   UNL     1     -12.246  -4.492  13.332  0.00  0.00    -0.311 N 
ATOM     15  C   UNL     1     -13.349  -5.140  13.870  0.00  0.00    +0.214 C 
ATOM     32  H   UNL     1     -11.320  -4.702  13.697  0.00  0.00    +0.149 HD
BRANCH   5  18
ATOM     18  C   UNL     1     -12.340  -3.543  12.248  0.00  0.00    +0.139 C 
BRANCH  18  20
ATOM     20  C   UNL     1     -11.883  -4.131  10.944  0.00  0.00    -0.030 A 
ATOM     23  C   UNL     1     -11.307  -3.312   9.973  0.00  0.00    +0.005 A 
ATOM     24  C   UNL     1     -12.035  -5.496  10.704  0.00  0.00    +0.005 A 
ATOM     27  C   UNL     1     -10.882  -3.859   8.762  0.00  0.00    +0.000 A 
ATOM     28  C   UNL     1     -11.611  -6.043   9.493  0.00  0.00    +0.000 A 
ATOM     30  C   UNL     1     -11.035  -5.224   8.521  0.00  0.00    +0.000 A 
ENDBRANCH  18  20
ENDBRANCH   5  18
ENDBRANCH  13  15
ENDBRANCH   7  13
TORSDOF 7
ENDMDL
MODEL 6
REMARK VINA RESULT:      -6.7     35.215     38.067
REMARK  Name = 26742911
REMARK  7 active torsions:
REMARK  status: ('A' for Active; 'I' for Inactive)
REMARK    1  A    between atoms: N_5  and  C_18
REMARK    2  A    between atoms: C_7  and  C_13
REMARK    3  A    between atoms: C_8  and  C_12
REMARK    4  A    between atoms: C_12  and  C_14
REMARK    5  A    between atoms: C_13  and  C_15
REMARK    6  A    between atoms: C_17  and  C_19
REMARK    7  A    between atoms: C_18  and  C_20
REMARK                            x       y       z     vdW  Elec       q    Type
REMARK                         _______ _______ _______ _____ _____    ______ ____
ROOT
ATOM      4  N   UNL     1       9.379   8.449  -4.808  0.00  0.00    -0.316 NA
ATOM      7  C   UNL     1       7.273   6.862  -3.484  0.00  0.00    +0.004 C 
ATOM      8  C   UNL     1       8.692   6.307  -3.754  0.00  0.00    +0.012 C 
ATOM      9  C   UNL     1       7.338   8.397  -3.418  0.00  0.00    +0.019 C 
ATOM     10  C   UNL     1       9.350   6.994  -4.963  0.00  0.00    +0.085 C 
ATOM     11  C   UNL     1       8.039   9.004  -4.633  0.00  0.00    +0.081 C 
ATOM     31  H   UNL     1       9.813   8.866  -5.631  0.00  0.00    +0.122 HD
ENDROOT
BRANCH   8  12
ATOM     12  C   UNL     1       8.721   4.787  -3.917  0.00  0.00    +0.064 C 
BRANCH  12  14
ATOM      3  O   UNL     1      10.874   2.593  -2.043  0.00  0.00    -0.354 OA
ATOM      6  N   UNL     1       9.865   2.830  -2.969  0.00  0.00    -0.083 NA
ATOM     14  C   UNL     1       9.737   4.159  -3.008  0.00  0.00    +0.085 A 
ATOM     16  C   UNL     1      10.629   4.807  -2.136  0.00  0.00    +0.076 A 
ATOM     17  C   UNL     1      11.320   3.777  -1.554  0.00  0.00    +0.167 A 
BRANCH  17  19
ATOM      1  F   UNL     1      15.392   3.444   2.222  0.00  0.00    -0.205 F 
ATOM     19  C   UNL     1      12.370   3.692  -0.580  0.00  0.00    +0.020 A 
ATOM     21  C   UNL     1      13.694   3.903  -0.963  0.00  0.00    +0.014 A 
ATOM     22  C   UNL     1      12.066   3.398   0.749  0.00  0.00    +0.014 A 
ATOM     25  C   UNL     1      14.716   3.819  -0.016  0.00  0.00    +0.039 A 
ATOM     26  C   UNL     1      13.087   3.314   1.695  0.00  0.00    +0.039 A 
ATOM     29  C   UNL     1      14.411   3.524   1.313  0.00  0.00    +0.123 A 
ENDBRANCH  17  19
ENDBRANCH  12  14
ENDBRANCH   8  12
BRANCH   7  13
ATOM     13  C   UNL     1       6.220   6.403  -4.501  0.00  0.00    +0.099 C 
BRANCH  13  15
ATOM      2  O   UNL     1       4.612   6.482  -2.696  0.00  0.00    -0.276 OA
ATOM      5  N   UNL     1       3.899   5.918  -4.835  0.00  0.00    -0.311 N 
ATOM     15  C   UNL     1       4.843   6.282  -3.885  0.00  0.00    +0.214 C 
ATOM     32  H   UNL     1       4.196   5.757  -5.793  0.00  0.00    +0.149 HD
BRANCH   5  18
ATOM     18  C   UNL     1       2.501   5.729  -4.526  0.00  0.00    +0.139 C 
BRANCH  18  20
ATOM     20  C   UNL     1       2.067   4.306  -4.733  0.00  0.00    -0.030 A 
ATOM     23  C   UNL     1       2.917   3.404  -5.373  0.00  0.00    +0.005 A 
ATOM     24  C   UNL     1       0.815   3.887  -4.285  0.00  0.00    +0.005 A 
ATOM     27  C   UNL     1       2.514   2.082  -5.565  0.00  0.00    +0.000 A 
ATOM     28  C   UNL     1       0.412   2.565  -4.477  0.00  0.00    +0.000 A 
ATOM     30  C   UNL     1       1.261   1.663  -5.117  0.00  0.00    +0.000 A 
ENDBRANCH  18  20
ENDBRANCH   5  18
ENDBRANCH  13  15
ENDBRANCH   7  13
TORSDOF 7
ENDMDL
MODEL 7
REMARK VINA RESULT:      -6.7     18.712     20.657
REMARK  Name = 26742911
REMARK  7 active torsions:
REMARK  status: ('A' for Active; 'I' for Inactive)
REMARK    1  A    between atoms: N_5  and  C_18
REMARK    2  A    between atoms: C_7  and  C_13
REMARK    3  A    between atoms: C_8  and  C_12
REMARK    4  A    between atoms: C_12  and  C_14
REMARK    5  A    between atoms: C_13  and  C_15
REMARK    6  A    between atoms: C_17  and  C_19
REMARK    7  A    between atoms: C_18  and  C_20
REMARK                            x       y       z     vdW  Elec       q    Type
REMARK                         _______ _______ _______ _____ _____    ______ ____
ROOT
ATOM      4  N   UNL     1       1.270  13.520  35.865  0.00  0.00    -0.316 NA
ATOM      7  C   UNL     1      -0.714  12.092  37.519  0.00  0.00    +0.004 C 
ATOM      8  C   UNL     1       0.069  11.406  36.374  0.00  0.00    +0.012 C 
ATOM      9  C   UNL     1       0.093  13.299  38.026  0.00  0.00    +0.019 C 
ATOM     10  C   UNL     1       0.498  12.415  35.295  0.00  0.00    +0.085 C 
ATOM     11  C   UNL     1       0.516  14.235  36.894  0.00  0.00    +0.081 C 
ATOM     31  H   UNL     1       1.527  14.170  35.123  0.00  0.00    +0.122 HD
ENDROOT
BRANCH   8  12
ATOM     12  C   UNL     1      -0.690  10.237  35.745  0.00  0.00    +0.064 C 
BRANCH  12  14
ATOM      3  O   UNL     1      -2.439   7.930  37.886  0.00  0.00    -0.354 OA
ATOM      6  N   UNL     1      -2.389   8.829  36.827  0.00  0.00    -0.083 NA
ATOM     14  C   UNL     1      -1.119   9.242  36.785  0.00  0.00    +0.085 A 
ATOM     16  C   UNL     1      -0.330   8.644  37.782  0.00  0.00    +0.076 A 
ATOM     17  C   UNL     1      -1.207   7.829  38.447  0.00  0.00    +0.167 A 
BRANCH  17  19
ATOM      1  F   UNL     1      -0.800   4.343  42.763  0.00  0.00    -0.205 F 
ATOM     19  C   UNL     1      -1.102   6.931  39.560  0.00  0.00    +0.020 A 
ATOM     21  C   UNL     1       0.069   6.891  40.316  0.00  0.00    +0.014 A 
ATOM     22  C   UNL     1      -2.172   6.098  39.887  0.00  0.00    +0.014 A 
ATOM     25  C   UNL     1       0.172   6.016  41.398  0.00  0.00    +0.039 A 
ATOM     26  C   UNL     1      -2.070   5.224  40.968  0.00  0.00    +0.039 A 
ATOM     29  C   UNL     1      -0.899   5.183  41.724  0.00  0.00    +0.123 A 
ENDBRANCH  17  19
ENDBRANCH  12  14
ENDBRANCH   8  12
BRANCH   7  13
ATOM     13  C   UNL     1      -2.139  12.510  37.136  0.00  0.00    +0.099 C 
BRANCH  13  15
ATOM      2  O   UNL     1      -3.742  13.219  38.804  0.00  0.00    -0.276 OA
ATOM      5  N   UNL     1      -3.215  10.963  38.614  0.00  0.00    -0.311 N 
ATOM     15  C   UNL     1      -3.121  12.304  38.271  0.00  0.00    +0.214 C 
ATOM     32  H   UNL     1      -2.642  10.283  38.122  0.00  0.00    +0.149 HD
BRANCH   5  18
ATOM     18  C   UNL     1      -4.077  10.477  39.667  0.00  0.00    +0.139 C 
BRANCH  18  20
ATOM     20  C   UNL     1      -3.295   9.886  40.805  0.00  0.00    -0.030 A 
ATOM     23  C   UNL     1      -3.867   8.896  41.603  0.00  0.00    +0.005 A 
ATOM     24  C   UNL     1      -1.998  10.327  41.063  0.00  0.00    +0.005 A 
ATOM     27  C   UNL     1      -3.141   8.347  42.660  0.00  0.00    +0.000 A 
ATOM     28  C   UNL     1      -1.271   9.778  42.120  0.00  0.00    +0.000 A 
ATOM     30  C   UNL     1      -1.843   8.788  42.919  0.00  0.00    +0.000 A 
ENDBRANCH  18  20
ENDBRANCH   5  18
ENDBRANCH  13  15
ENDBRANCH   7  13
TORSDOF 7
ENDMDL
MODEL 8
REMARK VINA RESULT:      -6.6     32.545     36.872
REMARK  Name = 26742911
REMARK  7 active torsions:
REMARK  status: ('A' for Active; 'I' for Inactive)
REMARK    1  A    between atoms: N_5  and  C_18
REMARK    2  A    between atoms: C_7  and  C_13
REMARK    3  A    between atoms: C_8  and  C_12
REMARK    4  A    between atoms: C_12  and  C_14
REMARK    5  A    between atoms: C_13  and  C_15
REMARK    6  A    between atoms: C_17  and  C_19
REMARK    7  A    between atoms: C_18  and  C_20
REMARK                            x       y       z     vdW  Elec       q    Type
REMARK                         _______ _______ _______ _____ _____    ______ ____
ROOT
ATOM      4  N   UNL     1       7.918   7.557   5.371  0.00  0.00    -0.316 NA
ATOM      7  C   UNL     1      10.638   7.222   4.277  0.00  0.00    +0.004 C 
ATOM      8  C   UNL     1       9.567   6.107   4.210  0.00  0.00    +0.012 C 
ATOM      9  C   UNL     1       9.936   8.586   4.387  0.00  0.00    +0.019 C 
ATOM     10  C   UNL     1       8.543   6.234   5.351  0.00  0.00    +0.085 C 
ATOM     11  C   UNL     1       8.907   8.623   5.516  0.00  0.00    +0.081 C 
ATOM     31  H   UNL     1       7.255   7.604   6.144  0.00  0.00    +0.122 HD
ENDROOT
BRANCH   8  12
ATOM     12  C   UNL     1      10.167   4.701   4.179  0.00  0.00    +0.064 C 
BRANCH  12  14
ATOM      3  O   UNL     1      12.269   3.776   1.406  0.00  0.00    -0.354 OA
ATOM      6  N   UNL     1      12.033   3.957   2.764  0.00  0.00    -0.083 NA
ATOM     14  C   UNL     1      10.773   4.394   2.840  0.00  0.00    +0.085 A 
ATOM     16  C   UNL     1      10.170   4.509   1.575  0.00  0.00    +0.076 A 
ATOM     17  C   UNL     1      11.152   4.109   0.709  0.00  0.00    +0.167 A 
BRANCH  17  19
ATOM      1  F   UNL     1      11.512   3.576  -4.817  0.00  0.00    -0.205 F 
ATOM     19  C   UNL     1      11.245   3.972  -0.715  0.00  0.00    +0.020 A 
ATOM     21  C   UNL     1      10.399   4.709  -1.544  0.00  0.00    +0.014 A 
ATOM     22  C   UNL     1      12.183   3.102  -1.273  0.00  0.00    +0.014 A 
ATOM     25  C   UNL     1      10.488   4.575  -2.930  0.00  0.00    +0.039 A 
ATOM     26  C   UNL     1      12.273   2.969  -2.658  0.00  0.00    +0.039 A 
ATOM     29  C   UNL     1      11.426   3.705  -3.486  0.00  0.00    +0.123 A 
ENDBRANCH  17  19
ENDBRANCH  12  14
ENDBRANCH   8  12
BRANCH   7  13
ATOM     13  C   UNL     1      11.658   7.040   5.408  0.00  0.00    +0.099 C 
BRANCH  13  15
ATOM      2  O   UNL     1      14.029   7.478   5.603  0.00  0.00    -0.276 OA
ATOM      5  N   UNL     1      13.173   6.713   3.582  0.00  0.00    -0.311 N 
ATOM     15  C   UNL     1      13.085   7.112   4.908  0.00  0.00    +0.214 C 
ATOM     32  H   UNL     1      12.327   6.444   3.088  0.00  0.00    +0.149 HD
BRANCH   5  18
ATOM     18  C   UNL     1      14.416   6.684   2.847  0.00  0.00    +0.139 C 
BRANCH  18  20
ATOM     20  C   UNL     1      14.192   6.598   1.366  0.00  0.00    -0.030 A 
ATOM     23  C   UNL     1      15.014   5.788   0.582  0.00  0.00    +0.005 A 
ATOM     24  C   UNL     1      13.161   7.327   0.773  0.00  0.00    +0.005 A 
ATOM     27  C   UNL     1      14.805   5.707  -0.795  0.00  0.00    +0.000 A 
ATOM     28  C   UNL     1      12.952   7.246  -0.604  0.00  0.00    +0.000 A 
ATOM     30  C   UNL     1      13.774   6.436  -1.388  0.00  0.00    +0.000 A 
ENDBRANCH  18  20
ENDBRANCH   5  18
ENDBRANCH  13  15
ENDBRANCH   7  13
TORSDOF 7
ENDMDL
MODEL 9
REMARK VINA RESULT:      -6.6     17.357     19.525
REMARK  Name = 26742911
REMARK  7 active torsions:
REMARK  status: ('A' for Active; 'I' for Inactive)
REMARK    1  A    between atoms: N_5  and  C_18
REMARK    2  A    between atoms: C_7  and  C_13
REMARK    3  A    between atoms: C_8  and  C_12
REMARK    4  A    between atoms: C_12  and  C_14
REMARK    5  A    between atoms: C_13  and  C_15
REMARK    6  A    between atoms: C_17  and  C_19
REMARK    7  A    between atoms: C_18  and  C_20
REMARK                            x       y       z     vdW  Elec       q    Type
REMARK                         _______ _______ _______ _____ _____    ______ ____
ROOT
ATOM      4  N   UNL     1     -10.727 -12.462  19.426  0.00  0.00    -0.316 NA
ATOM      7  C   UNL     1      -9.376 -10.621  17.557  0.00  0.00    +0.004 C 
ATOM      8  C   UNL     1      -8.636 -11.321  18.721  0.00  0.00    +0.012 C 
ATOM      9  C   UNL     1     -10.611 -11.453  17.174  0.00  0.00    +0.019 C 
ATOM     10  C   UNL     1      -9.591 -11.659  19.879  0.00  0.00    +0.085 C 
ATOM     11  C   UNL     1     -11.489 -11.782  18.381  0.00  0.00    +0.081 C 
ATOM     31  H   UNL     1     -11.339 -12.657  20.217  0.00  0.00    +0.122 HD
ENDROOT
BRANCH   8  12
ATOM     12  C   UNL     1      -7.433 -10.528  19.231  0.00  0.00    +0.064 C 
BRANCH  12  14
ATOM      3  O   UNL     1      -4.285 -11.524  17.795  0.00  0.00    -0.354 OA
ATOM      6  N   UNL     1      -5.224 -11.524  18.819  0.00  0.00    -0.083 NA
ATOM     14  C   UNL     1      -6.223 -10.758  18.372  0.00  0.00    +0.085 A 
ATOM     16  C   UNL     1      -5.972 -10.252  17.085  0.00  0.00    +0.076 A 
ATOM     17  C   UNL     1      -4.741 -10.762  16.768  0.00  0.00    +0.167 A 
BRANCH  17  19
ATOM      1  F   UNL     1      -1.374 -10.397  12.356  0.00  0.00    -0.205 F 
ATOM     19  C   UNL     1      -3.873 -10.668  15.631  0.00  0.00    +0.020 A 
ATOM     21  C   UNL     1      -4.410 -10.650  14.343  0.00  0.00    +0.014 A 
ATOM     22  C   UNL     1      -2.492 -10.593  15.812  0.00  0.00    +0.014 A 
ATOM     25  C   UNL     1      -3.565 -10.558  13.236  0.00  0.00    +0.039 A 
ATOM     26  C   UNL     1      -1.648 -10.502  14.706  0.00  0.00    +0.039 A 
ATOM     29  C   UNL     1      -2.184 -10.484  13.418  0.00  0.00    +0.123 A 
ENDBRANCH  17  19
ENDBRANCH  12  14
ENDBRANCH   8  12
BRANCH   7  13
ATOM     13  C   UNL     1      -9.767  -9.167  17.851  0.00  0.00    +0.099 C 
BRANCH  13  15
ATOM      2  O   UNL     1      -9.164  -8.620  15.573  0.00  0.00    -0.276 OA
ATOM      5  N   UNL     1     -10.474  -7.139  16.793  0.00  0.00    -0.311 N 
ATOM     15  C   UNL     1      -9.749  -8.307  16.605  0.00  0.00    +0.214 C 
ATOM     32  H   UNL     1     -10.908  -6.963  17.696  0.00  0.00    +0.149 HD
BRANCH   5  18
ATOM     18  C   UNL     1     -10.625  -6.130  15.770  0.00  0.00    +0.139 C 
BRANCH  18  20
ATOM     20  C   UNL     1     -12.025  -6.083  15.229  0.00  0.00    -0.030 A 
ATOM     23  C   UNL     1     -12.299  -5.364  14.066  0.00  0.00    +0.005 A 
ATOM     24  C   UNL     1     -13.051  -6.758  15.890  0.00  0.00    +0.005 A 
ATOM     27  C   UNL     1     -13.600  -5.320  13.564  0.00  0.00    +0.000 A 
ATOM     28  C   UNL     1     -14.352  -6.715  15.388  0.00  0.00    +0.000 A 
ATOM     30  C   UNL     1     -14.626  -5.996  14.225  0.00  0.00    +0.000 A 
ENDBRANCH  18  20
ENDBRANCH   5  18
ENDBRANCH  13  15
ENDBRANCH   7  13
TORSDOF 7
ENDMDL
MODEL 10
REMARK VINA RESULT:      -6.5     30.863     34.256
REMARK  Name = 26742911
REMARK  7 active torsions:
REMARK  status: ('A' for Active; 'I' for Inactive)
REMARK    1  A    between atoms: N_5  and  C_18
REMARK    2  A    between atoms: C_7  and  C_13
REMARK    3  A    between atoms: C_8  and  C_12
REMARK    4  A    between atoms: C_12  and  C_14
REMARK    5  A    between atoms: C_13  and  C_15
REMARK    6  A    between atoms: C_17  and  C_19
REMARK    7  A    between atoms: C_18  and  C_20
REMARK                            x       y       z     vdW  Elec       q    Type
REMARK                         _______ _______ _______ _____ _____    ______ ____
ROOT
ATOM      4  N   UNL     1       8.864   9.374  -1.451  0.00  0.00    -0.316 NA
ATOM      7  C   UNL     1       9.665   9.856   1.348  0.00  0.00    +0.004 C 
ATOM      8  C   UNL     1       8.300   9.237   0.964  0.00  0.00    +0.012 C 
ATOM      9  C   UNL     1      10.673   9.590   0.217  0.00  0.00    +0.019 C 
ATOM     10  C   UNL     1       7.851   9.678  -0.440  0.00  0.00    +0.085 C 
ATOM     11  C   UNL     1      10.141  10.018  -1.150  0.00  0.00    +0.081 C 
ATOM     31  H   UNL     1       8.535   9.689  -2.363  0.00  0.00    +0.122 HD
ENDROOT
BRANCH   8  12
ATOM     12  C   UNL     1       7.203   9.518   1.992  0.00  0.00    +0.064 C 
BRANCH  12  14
ATOM      3  O   UNL     1       7.885   9.021   5.492  0.00  0.00    -0.354 OA
ATOM      6  N   UNL     1       7.452   9.793   4.421  0.00  0.00    -0.083 NA
ATOM     14  C   UNL     1       7.584   9.005   3.351  0.00  0.00    +0.085 A 
ATOM     16  C   UNL     1       8.091   7.737   3.681  0.00  0.00    +0.076 A 
ATOM     17  C   UNL     1       8.264   7.799   5.039  0.00  0.00    +0.167 A 
BRANCH  17  19
ATOM      1  F   UNL     1      10.101   4.253   8.911  0.00  0.00    -0.205 F 
ATOM     19  C   UNL     1       8.738   6.885   6.037  0.00  0.00    +0.020 A 
ATOM     21  C   UNL     1       9.264   5.650   5.658  0.00  0.00    +0.014 A 
ATOM     22  C   UNL     1       8.674   7.232   7.386  0.00  0.00    +0.014 A 
ATOM     25  C   UNL     1       9.725   4.760   6.629  0.00  0.00    +0.039 A 
ATOM     26  C   UNL     1       9.134   6.343   8.357  0.00  0.00    +0.039 A 
ATOM     29  C   UNL     1       9.659   5.107   7.979  0.00  0.00    +0.123 A 
ENDBRANCH  17  19
ENDBRANCH  12  14
ENDBRANCH   8  12
BRANCH   7  13
ATOM     13  C   UNL     1       9.599  11.353   1.680  0.00  0.00    +0.099 C 
BRANCH  13  15
ATOM      2  O   UNL     1      11.003  12.745   3.073  0.00  0.00    -0.276 OA
ATOM      5  N   UNL     1      10.298  10.679   3.869  0.00  0.00    -0.311 N 
ATOM     15  C   UNL     1      10.382  11.697   2.930  0.00  0.00    +0.214 C 
ATOM     32  H   UNL     1       9.771   9.839   3.646  0.00  0.00    +0.149 HD
BRANCH   5  18
ATOM     18  C   UNL     1      10.950  10.738   5.157  0.00  0.00    +0.139 C 
BRANCH  18  20
ATOM     20  C   UNL     1      11.571   9.424   5.533  0.00  0.00    -0.030 A 
ATOM     23  C   UNL     1      11.910   8.503   4.542  0.00  0.00    +0.005 A 
ATOM     24  C   UNL     1      11.808   9.124   6.875  0.00  0.00    +0.005 A 
ATOM     27  C   UNL     1      12.487   7.282   4.892  0.00  0.00    +0.000 A 
ATOM     28  C   UNL     1      12.384   7.903   7.225  0.00  0.00    +0.000 A 
ATOM     30  C   UNL     1      12.724   6.982   6.234  0.00  0.00    +0.000 A 
ENDBRANCH  18  20
ENDBRANCH   5  18
ENDBRANCH  13  15
ENDBRANCH   7  13
TORSDOF 7
ENDMDL
