MODEL 1
REMARK VINA RESULT:      -6.9      0.000      0.000
REMARK  Name = 56775199
REMARK  3 active torsions:
REMARK  status: ('A' for Active; 'I' for Inactive)
REMARK    1  A    between atoms: N_5  and  C_13
REMARK    2  A    between atoms: N_6  and  C_17
REMARK    3  A    between atoms: C_17  and  C_21
REMARK                            x       y       z     vdW  Elec       q    Type
REMARK                         _______ _______ _______ _____ _____    ______ ____
ROOT
ATOM      1  O   UNL     1      12.059   7.445  21.985  0.00  0.00    -0.364 OA
ATOM      2  O   UNL     1      13.891   6.813  19.064  0.00  0.00    -0.273 OA
ATOM      3  O   UNL     1      12.311  12.407  22.672  0.00  0.00    -0.253 OA
ATOM      4  N   UNL     1      11.381  10.339  22.254  0.00  0.00    -0.281 N 
ATOM      5  N   UNL     1      12.065   8.286  19.291  0.00  0.00    -0.262 N 
ATOM      6  N   UNL     1      10.873  11.494  24.226  0.00  0.00    -0.300 N 
ATOM      7  C   UNL     1      11.281   8.998  20.309  0.00  0.00    +0.129 C 
ATOM      8  C   UNL     1      10.908   8.144  21.524  0.00  0.00    +0.158 C 
ATOM      9  C   UNL     1      12.039  10.160  20.965  0.00  0.00    +0.135 C 
ATOM     10  C   UNL     1      10.540   9.184  22.577  0.00  0.00    +0.143 C 
ATOM     11  C   UNL     1      12.534   6.569  20.994  0.00  0.00    +0.256 C 
ATOM     12  C   UNL     1      12.923   7.246  19.691  0.00  0.00    +0.246 C 
ATOM     14  C   UNL     1      11.576  11.481  23.026  0.00  0.00    +0.302 C 
ATOM     22  H   UNL     1      10.247  10.730  24.455  0.00  0.00    +0.150 HD
ENDROOT
BRANCH   5  13
ATOM     13  C   UNL     1      12.038   8.767  17.924  0.00  0.00    +0.037 A 
ATOM     15  C   UNL     1      10.916   8.541  17.128  0.00  0.00    +0.023 A 
ATOM     16  C   UNL     1      13.135   9.455  17.405  0.00  0.00    +0.023 A 
ATOM     18  C   UNL     1      10.889   9.003  15.812  0.00  0.00    +0.002 A 
ATOM     19  C   UNL     1      13.108   9.916  16.089  0.00  0.00    +0.002 A 
ATOM     20  C   UNL     1      11.986   9.691  15.293  0.00  0.00    +0.000 A 
ENDBRANCH   5  13
BRANCH   6  17
ATOM     17  C   UNL     1      10.946  12.596  25.156  0.00  0.00    +0.102 C 
ATOM     21  C   UNL     1      10.169  13.797  24.656  0.00  0.00    +0.024 C 
ENDBRANCH   6  17
TORSDOF 2
ENDMDL
MODEL 2
REMARK VINA RESULT:      -6.6      3.714      6.136
REMARK  Name = 56775199
REMARK  3 active torsions:
REMARK  status: ('A' for Active; 'I' for Inactive)
REMARK    1  A    between atoms: N_5  and  C_13
REMARK    2  A    between atoms: N_6  and  C_17
REMARK    3  A    between atoms: C_17  and  C_21
REMARK                            x       y       z     vdW  Elec       q    Type
REMARK                         _______ _______ _______ _____ _____    ______ ____
ROOT
ATOM      1  O   UNL     1      14.333   7.537  21.864  0.00  0.00    -0.364 OA
ATOM      2  O   UNL     1      11.283   7.270  20.159  0.00  0.00    -0.273 OA
ATOM      3  O   UNL     1      17.741   5.439  18.840  0.00  0.00    -0.253 OA
ATOM      4  N   UNL     1      16.654   7.078  20.044  0.00  0.00    -0.281 N 
ATOM      5  N   UNL     1      13.256   8.283  19.364  0.00  0.00    -0.262 N 
ATOM      6  N   UNL     1      18.808   6.390  20.648  0.00  0.00    -0.300 N 
ATOM      7  C   UNL     1      14.702   8.342  19.618  0.00  0.00    +0.129 C 
ATOM      8  C   UNL     1      15.074   8.480  21.096  0.00  0.00    +0.158 C 
ATOM      9  C   UNL     1      15.445   7.058  19.229  0.00  0.00    +0.135 C 
ATOM     10  C   UNL     1      16.540   8.059  21.125  0.00  0.00    +0.143 C 
ATOM     11  C   UNL     1      12.955   7.789  21.759  0.00  0.00    +0.256 C 
ATOM     12  C   UNL     1      12.411   7.728  20.342  0.00  0.00    +0.246 C 
ATOM     14  C   UNL     1      17.736   6.242  19.776  0.00  0.00    +0.302 C 
ATOM     22  H   UNL     1      18.776   7.094  21.378  0.00  0.00    +0.150 HD
ENDROOT
BRANCH   5  13
ATOM     13  C   UNL     1      12.758   8.670  18.059  0.00  0.00    +0.037 A 
ATOM     15  C   UNL     1      13.608   9.292  17.146  0.00  0.00    +0.023 A 
ATOM     16  C   UNL     1      11.429   8.420  17.718  0.00  0.00    +0.023 A 
ATOM     18  C   UNL     1      13.130   9.664  15.889  0.00  0.00    +0.002 A 
ATOM     19  C   UNL     1      10.950   8.793  16.462  0.00  0.00    +0.002 A 
ATOM     20  C   UNL     1      11.800   9.415  15.548  0.00  0.00    +0.000 A 
ENDBRANCH   5  13
BRANCH   6  17
ATOM     17  C   UNL     1      20.020   5.613  20.526  0.00  0.00    +0.102 C 
ATOM     21  C   UNL     1      20.917   5.789  21.733  0.00  0.00    +0.024 C 
ENDBRANCH   6  17
TORSDOF 2
ENDMDL
MODEL 3
REMARK VINA RESULT:      -6.3      3.878      6.656
REMARK  Name = 56775199
REMARK  3 active torsions:
REMARK  status: ('A' for Active; 'I' for Inactive)
REMARK    1  A    between atoms: N_5  and  C_13
REMARK    2  A    between atoms: N_6  and  C_17
REMARK    3  A    between atoms: C_17  and  C_21
REMARK                            x       y       z     vdW  Elec       q    Type
REMARK                         _______ _______ _______ _____ _____    ______ ____
ROOT
ATOM      1  O   UNL     1      12.018   8.426  18.500  0.00  0.00    -0.364 OA
ATOM      2  O   UNL     1      13.653   7.667  21.506  0.00  0.00    -0.273 OA
ATOM      3  O   UNL     1      14.863  11.906  16.274  0.00  0.00    -0.253 OA
ATOM      4  N   UNL     1      13.811   9.881  16.610  0.00  0.00    -0.281 N 
ATOM      5  N   UNL     1      14.566   7.546  19.336  0.00  0.00    -0.262 N 
ATOM      6  N   UNL     1      13.168  11.276  14.843  0.00  0.00    -0.300 N 
ATOM      7  C   UNL     1      14.336   8.015  17.964  0.00  0.00    +0.129 C 
ATOM      8  C   UNL     1      12.882   7.901  17.498  0.00  0.00    +0.158 C 
ATOM      9  C   UNL     1      14.607   9.514  17.775  0.00  0.00    +0.135 C 
ATOM     10  C   UNL     1      12.829   8.841  16.296  0.00  0.00    +0.143 C 
ATOM     11  C   UNL     1      12.131   7.682  19.687  0.00  0.00    +0.256 C 
ATOM     12  C   UNL     1      13.529   7.655  20.280  0.00  0.00    +0.246 C 
ATOM     14  C   UNL     1      14.009  11.083  15.933  0.00  0.00    +0.302 C 
ATOM     22  H   UNL     1      12.511  10.553  14.575  0.00  0.00    +0.150 HD
ENDROOT
BRANCH   5  13
ATOM     13  C   UNL     1      15.896   7.113  19.714  0.00  0.00    +0.037 A 
ATOM     15  C   UNL     1      16.543   6.124  18.975  0.00  0.00    +0.023 A 
ATOM     16  C   UNL     1      16.529   7.686  20.818  0.00  0.00    +0.023 A 
ATOM     18  C   UNL     1      17.824   5.707  19.338  0.00  0.00    +0.002 A 
ATOM     19  C   UNL     1      17.809   7.268  21.181  0.00  0.00    +0.002 A 
ATOM     20  C   UNL     1      18.457   6.279  20.442  0.00  0.00    +0.000 A 
ENDBRANCH   5  13
BRANCH   6  17
ATOM     17  C   UNL     1      13.229  12.460  14.018  0.00  0.00    +0.102 C 
ATOM     21  C   UNL     1      12.146  12.456  12.959  0.00  0.00    +0.024 C 
ENDBRANCH   6  17
TORSDOF 2
ENDMDL
MODEL 4
REMARK VINA RESULT:      -6.2      2.798      3.615
REMARK  Name = 56775199
REMARK  3 active torsions:
REMARK  status: ('A' for Active; 'I' for Inactive)
REMARK    1  A    between atoms: N_5  and  C_13
REMARK    2  A    between atoms: N_6  and  C_17
REMARK    3  A    between atoms: C_17  and  C_21
REMARK                            x       y       z     vdW  Elec       q    Type
REMARK                         _______ _______ _______ _____ _____    ______ ____
ROOT
ATOM      1  O   UNL     1      10.582   9.200  21.801  0.00  0.00    -0.364 OA
ATOM      2  O   UNL     1      11.957   5.987  21.535  0.00  0.00    -0.273 OA
ATOM      3  O   UNL     1      13.709  11.747  24.783  0.00  0.00    -0.253 OA
ATOM      4  N   UNL     1      12.564  11.159  22.870  0.00  0.00    -0.281 N 
ATOM      5  N   UNL     1      13.027   8.024  21.022  0.00  0.00    -0.262 N 
ATOM      6  N   UNL     1      12.107  13.183  23.954  0.00  0.00    -0.300 N 
ATOM      7  C   UNL     1      12.919   9.470  21.253  0.00  0.00    +0.129 C 
ATOM      8  C   UNL     1      11.501  10.026  21.093  0.00  0.00    +0.158 C 
ATOM      9  C   UNL     1      13.256   9.888  22.691  0.00  0.00    +0.135 C 
ATOM     10  C   UNL     1      11.573  11.369  21.812  0.00  0.00    +0.143 C 
ATOM     11  C   UNL     1      10.579   7.899  21.270  0.00  0.00    +0.256 C 
ATOM     12  C   UNL     1      11.926   7.198  21.315  0.00  0.00    +0.246 C 
ATOM     14  C   UNL     1      12.855  12.011  23.933  0.00  0.00    +0.302 C 
ATOM     22  H   UNL     1      11.446  13.377  23.210  0.00  0.00    +0.150 HD
ENDROOT
BRANCH   5  13
ATOM     13  C   UNL     1      14.309   7.471  20.632  0.00  0.00    +0.037 A 
ATOM     15  C   UNL     1      14.562   7.177  19.292  0.00  0.00    +0.023 A 
ATOM     16  C   UNL     1      15.289   7.234  21.596  0.00  0.00    +0.023 A 
ATOM     18  C   UNL     1      15.795   6.646  18.916  0.00  0.00    +0.002 A 
ATOM     19  C   UNL     1      16.522   6.702  21.219  0.00  0.00    +0.002 A 
ATOM     20  C   UNL     1      16.775   6.408  19.880  0.00  0.00    +0.000 A 
ENDBRANCH   5  13
BRANCH   6  17
ATOM     17  C   UNL     1      12.271  14.189  24.977  0.00  0.00    +0.102 C 
ATOM     21  C   UNL     1      10.966  14.473  25.692  0.00  0.00    +0.024 C 
ENDBRANCH   6  17
TORSDOF 2
ENDMDL
MODEL 5
REMARK VINA RESULT:      -6.1      3.870      6.769
REMARK  Name = 56775199
REMARK  3 active torsions:
REMARK  status: ('A' for Active; 'I' for Inactive)
REMARK    1  A    between atoms: N_5  and  C_13
REMARK    2  A    between atoms: N_6  and  C_17
REMARK    3  A    between atoms: C_17  and  C_21
REMARK                            x       y       z     vdW  Elec       q    Type
REMARK                         _______ _______ _______ _____ _____    ______ ____
ROOT
ATOM      1  O   UNL     1      15.042   7.455  18.079  0.00  0.00    -0.364 OA
ATOM      2  O   UNL     1      12.785  10.134  18.203  0.00  0.00    -0.273 OA
ATOM      3  O   UNL     1      18.419   8.388  21.668  0.00  0.00    -0.253 OA
ATOM      4  N   UNL     1      16.716   7.312  20.546  0.00  0.00    -0.281 N 
ATOM      5  N   UNL     1      13.367   8.699  19.980  0.00  0.00    -0.262 N 
ATOM      6  N   UNL     1      18.814   6.300  20.772  0.00  0.00    -0.300 N 
ATOM      7  C   UNL     1      14.394   7.732  20.389  0.00  0.00    +0.129 C 
ATOM      8  C   UNL     1      14.799   6.746  19.290  0.00  0.00    +0.158 C 
ATOM      9  C   UNL     1      15.741   8.379  20.738  0.00  0.00    +0.135 C 
ATOM     10  C   UNL     1      16.134   6.202  19.788  0.00  0.00    +0.143 C 
ATOM     11  C   UNL     1      13.872   8.102  17.644  0.00  0.00    +0.256 C 
ATOM     12  C   UNL     1      13.302   9.102  18.634  0.00  0.00    +0.246 C 
ATOM     14  C   UNL     1      18.014   7.405  21.041  0.00  0.00    +0.302 C 
ATOM     22  H   UNL     1      18.426   5.497  20.290  0.00  0.00    +0.150 HD
ENDROOT
BRANCH   5  13
ATOM     13  C   UNL     1      12.540   9.313  20.999  0.00  0.00    +0.037 A 
ATOM     15  C   UNL     1      11.339   8.713  21.378  0.00  0.00    +0.023 A 
ATOM     16  C   UNL     1      12.944  10.505  21.601  0.00  0.00    +0.023 A 
ATOM     18  C   UNL     1      10.543   9.304  22.359  0.00  0.00    +0.002 A 
ATOM     19  C   UNL     1      12.147  11.096  22.581  0.00  0.00    +0.002 A 
ATOM     20  C   UNL     1      10.947  10.496  22.960  0.00  0.00    +0.000 A 
ENDBRANCH   5  13
BRANCH   6  17
ATOM     17  C   UNL     1      20.188   6.214  21.210  0.00  0.00    +0.102 C 
ATOM     21  C   UNL     1      20.915   5.069  20.534  0.00  0.00    +0.024 C 
ENDBRANCH   6  17
TORSDOF 2
ENDMDL
MODEL 6
REMARK VINA RESULT:      -5.9      7.284      9.583
REMARK  Name = 56775199
REMARK  3 active torsions:
REMARK  status: ('A' for Active; 'I' for Inactive)
REMARK    1  A    between atoms: N_5  and  C_13
REMARK    2  A    between atoms: N_6  and  C_17
REMARK    3  A    between atoms: C_17  and  C_21
REMARK                            x       y       z     vdW  Elec       q    Type
REMARK                         _______ _______ _______ _____ _____    ______ ____
ROOT
ATOM      1  O   UNL     1      19.313   9.156  20.967  0.00  0.00    -0.364 OA
ATOM      2  O   UNL     1      22.540   7.837  20.605  0.00  0.00    -0.273 OA
ATOM      3  O   UNL     1      16.272   5.887  18.681  0.00  0.00    -0.253 OA
ATOM      4  N   UNL     1      17.218   7.109  20.392  0.00  0.00    -0.281 N 
ATOM      5  N   UNL     1      20.677   6.758  21.563  0.00  0.00    -0.262 N 
ATOM      6  N   UNL     1      15.005   7.498  19.737  0.00  0.00    -0.300 N 
ATOM      7  C   UNL     1      19.212   6.837  21.634  0.00  0.00    +0.129 C 
ATOM      8  C   UNL     1      18.671   8.252  21.860  0.00  0.00    +0.158 C 
ATOM      9  C   UNL     1      18.513   6.442  20.326  0.00  0.00    +0.135 C 
ATOM     10  C   UNL     1      17.210   8.135  21.438  0.00  0.00    +0.143 C 
ATOM     11  C   UNL     1      20.696   9.197  21.216  0.00  0.00    +0.256 C 
ATOM     12  C   UNL     1      21.400   7.859  21.071  0.00  0.00    +0.246 C 
ATOM     14  C   UNL     1      16.171   6.767  19.540  0.00  0.00    +0.302 C 
ATOM     22  H   UNL     1      14.955   8.182  20.483  0.00  0.00    +0.150 HD
ENDROOT
BRANCH   5  13
ATOM     13  C   UNL     1      21.325   5.499  21.873  0.00  0.00    +0.037 A 
ATOM     15  C   UNL     1      21.311   4.461  20.942  0.00  0.00    +0.023 A 
ATOM     16  C   UNL     1      21.964   5.327  23.100  0.00  0.00    +0.023 A 
ATOM     18  C   UNL     1      21.935   3.249  21.239  0.00  0.00    +0.002 A 
ATOM     19  C   UNL     1      22.587   4.115  23.398  0.00  0.00    +0.002 A 
ATOM     20  C   UNL     1      22.573   3.076  22.467  0.00  0.00    +0.000 A 
ENDBRANCH   5  13
BRANCH   6  17
ATOM     17  C   UNL     1      13.813   7.282  18.951  0.00  0.00    +0.102 C 
ATOM     21  C   UNL     1      12.645   6.856  19.817  0.00  0.00    +0.024 C 
ENDBRANCH   6  17
TORSDOF 2
ENDMDL
MODEL 7
REMARK VINA RESULT:      -5.8     26.260     27.948
REMARK  Name = 56775199
REMARK  3 active torsions:
REMARK  status: ('A' for Active; 'I' for Inactive)
REMARK    1  A    between atoms: N_5  and  C_13
REMARK    2  A    between atoms: N_6  and  C_17
REMARK    3  A    between atoms: C_17  and  C_21
REMARK                            x       y       z     vdW  Elec       q    Type
REMARK                         _______ _______ _______ _____ _____    ______ ____
ROOT
ATOM      1  O   UNL     1      -7.130 -11.644  18.690  0.00  0.00    -0.364 OA
ATOM      2  O   UNL     1     -10.470 -11.481  17.638  0.00  0.00    -0.273 OA
ATOM      3  O   UNL     1      -4.392 -10.753  14.583  0.00  0.00    -0.253 OA
ATOM      4  N   UNL     1      -5.285 -10.428  16.684  0.00  0.00    -0.281 N 
ATOM      5  N   UNL     1      -8.831  -9.806  17.388  0.00  0.00    -0.262 N 
ATOM      6  N   UNL     1      -3.001 -10.865  16.419  0.00  0.00    -0.300 N 
ATOM      7  C   UNL     1      -7.377  -9.605  17.419  0.00  0.00    +0.129 C 
ATOM      8  C   UNL     1      -6.673 -10.299  18.589  0.00  0.00    +0.158 C 
ATOM      9  C   UNL     1      -6.649 -10.214  16.213  0.00  0.00    +0.135 C 
ATOM     10  C   UNL     1      -5.215 -10.333  18.144  0.00  0.00    +0.143 C 
ATOM     11  C   UNL     1      -8.510 -11.676  18.959  0.00  0.00    +0.256 C 
ATOM     12  C   UNL     1      -9.370 -10.996  17.908  0.00  0.00    +0.246 C 
ATOM     14  C   UNL     1      -4.236 -10.688  15.806  0.00  0.00    +0.302 C 
ATOM     22  H   UNL     1      -2.913 -10.759  17.423  0.00  0.00    +0.150 HD
ENDROOT
BRANCH   5  13
ATOM     13  C   UNL     1      -9.657  -8.835  16.698  0.00  0.00    +0.037 A 
ATOM     15  C   UNL     1      -9.974  -9.020  15.353  0.00  0.00    +0.023 A 
ATOM     16  C   UNL     1     -10.134  -7.715  17.380  0.00  0.00    +0.023 A 
ATOM     18  C   UNL     1     -10.769  -8.086  14.689  0.00  0.00    +0.002 A 
ATOM     19  C   UNL     1     -10.928  -6.781  16.715  0.00  0.00    +0.002 A 
ATOM     20  C   UNL     1     -11.246  -6.966  15.370  0.00  0.00    +0.000 A 
ENDBRANCH   5  13
BRANCH   6  17
ATOM     17  C   UNL     1      -1.797 -11.139  15.670  0.00  0.00    +0.102 C 
ATOM     21  C   UNL     1      -0.902  -9.919  15.590  0.00  0.00    +0.024 C 
ENDBRANCH   6  17
TORSDOF 2
ENDMDL
MODEL 8
REMARK VINA RESULT:      -5.7     27.601     29.962
REMARK  Name = 56775199
REMARK  3 active torsions:
REMARK  status: ('A' for Active; 'I' for Inactive)
REMARK    1  A    between atoms: N_5  and  C_13
REMARK    2  A    between atoms: N_6  and  C_17
REMARK    3  A    between atoms: C_17  and  C_21
REMARK                            x       y       z     vdW  Elec       q    Type
REMARK                         _______ _______ _______ _____ _____    ______ ____
ROOT
ATOM      1  O   UNL     1     -16.882   4.566  33.517  0.00  0.00    -0.364 OA
ATOM      2  O   UNL     1     -16.557   8.054  33.406  0.00  0.00    -0.273 OA
ATOM      3  O   UNL     1     -14.236   2.854  29.615  0.00  0.00    -0.253 OA
ATOM      4  N   UNL     1     -14.839   3.216  31.811  0.00  0.00    -0.281 N 
ATOM      5  N   UNL     1     -14.806   6.478  33.489  0.00  0.00    -0.262 N 
ATOM      6  N   UNL     1     -14.968   1.071  30.882  0.00  0.00    -0.300 N 
ATOM      7  C   UNL     1     -14.530   5.053  33.268  0.00  0.00    +0.129 C 
ATOM      8  C   UNL     1     -15.578   4.111  33.866  0.00  0.00    +0.158 C 
ATOM      9  C   UNL     1     -14.554   4.646  31.789  0.00  0.00    +0.135 C 
ATOM     10  C   UNL     1     -15.327   2.800  33.127  0.00  0.00    +0.143 C 
ATOM     11  C   UNL     1     -17.118   5.843  34.055  0.00  0.00    +0.256 C 
ATOM     12  C   UNL     1     -16.141   6.909  33.593  0.00  0.00    +0.246 C 
ATOM     14  C   UNL     1     -14.651   2.412  30.689  0.00  0.00    +0.302 C 
ATOM     22  H   UNL     1     -15.264   0.746  31.795  0.00  0.00    +0.150 HD
ENDROOT
BRANCH   5  13
ATOM     13  C   UNL     1     -13.703   7.418  33.456  0.00  0.00    +0.037 A 
ATOM     15  C   UNL     1     -13.140   7.873  34.648  0.00  0.00    +0.023 A 
ATOM     16  C   UNL     1     -13.206   7.867  32.233  0.00  0.00    +0.023 A 
ATOM     18  C   UNL     1     -12.078   8.777  34.617  0.00  0.00    +0.002 A 
ATOM     19  C   UNL     1     -12.145   8.772  32.202  0.00  0.00    +0.002 A 
ATOM     20  C   UNL     1     -11.581   9.227  33.393  0.00  0.00    +0.000 A 
ENDBRANCH   5  13
BRANCH   6  17
ATOM     17  C   UNL     1     -14.833   0.086  29.835  0.00  0.00    +0.102 C 
ATOM     21  C   UNL     1     -13.457  -0.547  29.840  0.00  0.00    +0.024 C 
ENDBRANCH   6  17
TORSDOF 2
ENDMDL
MODEL 9
REMARK VINA RESULT:      -5.6     26.538     27.874
REMARK  Name = 56775199
REMARK  3 active torsions:
REMARK  status: ('A' for Active; 'I' for Inactive)
REMARK    1  A    between atoms: N_5  and  C_13
REMARK    2  A    between atoms: N_6  and  C_17
REMARK    3  A    between atoms: C_17  and  C_21
REMARK                            x       y       z     vdW  Elec       q    Type
REMARK                         _______ _______ _______ _____ _____    ______ ____
ROOT
ATOM      1  O   UNL     1      -3.386 -13.499  13.772  0.00  0.00    -0.364 OA
ATOM      2  O   UNL     1      -5.507 -14.534  16.363  0.00  0.00    -0.273 OA
ATOM      3  O   UNL     1      -5.527  -9.387  11.856  0.00  0.00    -0.253 OA
ATOM      4  N   UNL     1      -3.961 -10.693  12.934  0.00  0.00    -0.281 N 
ATOM      5  N   UNL     1      -4.501 -12.416  16.128  0.00  0.00    -0.262 N 
ATOM      6  N   UNL     1      -3.466  -9.704  10.871  0.00  0.00    -0.300 N 
ATOM      7  C   UNL     1      -3.846 -11.558  15.132  0.00  0.00    +0.129 C 
ATOM      8  C   UNL     1      -2.822 -12.284  14.255  0.00  0.00    +0.158 C 
ATOM      9  C   UNL     1      -4.810 -10.992  14.082  0.00  0.00    +0.135 C 
ATOM     10  C   UNL     1      -2.655 -11.341  13.067  0.00  0.00    +0.143 C 
ATOM     11  C   UNL     1      -3.697 -14.357  14.840  0.00  0.00    +0.256 C 
ATOM     12  C   UNL     1      -4.684 -13.781  15.841  0.00  0.00    +0.246 C 
ATOM     14  C   UNL     1      -4.401  -9.891  11.883  0.00  0.00    +0.302 C 
ATOM     22  H   UNL     1      -2.538 -10.103  10.957  0.00  0.00    +0.150 HD
ENDROOT
BRANCH   5  13
ATOM     13  C   UNL     1      -5.063 -11.806  17.316  0.00  0.00    +0.037 A 
ATOM     15  C   UNL     1      -4.460 -12.009  18.556  0.00  0.00    +0.023 A 
ATOM     16  C   UNL     1      -6.208 -11.016  17.218  0.00  0.00    +0.023 A 
ATOM     18  C   UNL     1      -5.001 -11.422  19.700  0.00  0.00    +0.002 A 
ATOM     19  C   UNL     1      -6.750 -10.429  18.362  0.00  0.00    +0.002 A 
ATOM     20  C   UNL     1      -6.146 -10.632  19.603  0.00  0.00    +0.000 A 
ENDBRANCH   5  13
BRANCH   6  17
ATOM     17  C   UNL     1      -3.740  -8.901   9.703  0.00  0.00    +0.102 C 
ATOM     21  C   UNL     1      -4.459  -9.699   8.635  0.00  0.00    +0.024 C 
ENDBRANCH   6  17
TORSDOF 2
ENDMDL
MODEL 10
REMARK VINA RESULT:      -5.6     26.189     27.033
REMARK  Name = 56775199
REMARK  3 active torsions:
REMARK  status: ('A' for Active; 'I' for Inactive)
REMARK    1  A    between atoms: N_5  and  C_13
REMARK    2  A    between atoms: N_6  and  C_17
REMARK    3  A    between atoms: C_17  and  C_21
REMARK                            x       y       z     vdW  Elec       q    Type
REMARK                         _______ _______ _______ _____ _____    ______ ____
ROOT
ATOM      1  O   UNL     1      -2.689 -11.942  14.529  0.00  0.00    -0.364 OA
ATOM      2  O   UNL     1      -1.456 -10.045  11.852  0.00  0.00    -0.273 OA
ATOM      3  O   UNL     1      -6.574  -9.333  16.336  0.00  0.00    -0.253 OA
ATOM      4  N   UNL     1      -5.426 -11.063  15.331  0.00  0.00    -0.281 N 
ATOM      5  N   UNL     1      -3.661 -10.832  12.124  0.00  0.00    -0.262 N 
ATOM      6  N   UNL     1      -6.456 -11.370  17.411  0.00  0.00    -0.300 N 
ATOM      7  C   UNL     1      -4.578 -11.357  13.144  0.00  0.00    +0.129 C 
ATOM      8  C   UNL     1      -3.953 -12.406  14.067  0.00  0.00    +0.158 C 
ATOM      9  C   UNL     1      -5.048 -10.297  14.149  0.00  0.00    +0.135 C 
ATOM     10  C   UNL     1      -4.906 -12.430  15.258  0.00  0.00    +0.143 C 
ATOM     11  C   UNL     1      -1.806 -11.762  13.451  0.00  0.00    +0.256 C 
ATOM     12  C   UNL     1      -2.285 -10.769  12.406  0.00  0.00    +0.246 C 
ATOM     14  C   UNL     1      -6.181 -10.503  16.360  0.00  0.00    +0.302 C 
ATOM     22  H   UNL     1      -6.149 -12.335  17.367  0.00  0.00    +0.150 HD
ENDROOT
BRANCH   5  13
ATOM     13  C   UNL     1      -4.215 -10.265  10.910  0.00  0.00    +0.037 A 
ATOM     15  C   UNL     1      -4.236 -11.018   9.736  0.00  0.00    +0.023 A 
ATOM     16  C   UNL     1      -4.728  -8.968  10.916  0.00  0.00    +0.023 A 
ATOM     18  C   UNL     1      -4.770 -10.473   8.568  0.00  0.00    +0.002 A 
ATOM     19  C   UNL     1      -5.260  -8.423   9.748  0.00  0.00    +0.002 A 
ATOM     20  C   UNL     1      -5.281  -9.176   8.574  0.00  0.00    +0.000 A 
ENDBRANCH   5  13
BRANCH   6  17
ATOM     17  C   UNL     1      -7.228 -10.969  18.564  0.00  0.00    +0.102 C 
ATOM     21  C   UNL     1      -6.335 -10.556  19.715  0.00  0.00    +0.024 C 
ENDBRANCH   6  17
TORSDOF 2
ENDMDL
