MODEL 1
REMARK VINA RESULT:      -6.8      0.000      0.000
REMARK  Name = 28961981
REMARK  11 active torsions:
REMARK  status: ('A' for Active; 'I' for Inactive)
REMARK    1  A    between atoms: S_2  and  N_11
REMARK    2  A    between atoms: S_2  and  C_25
REMARK    3  A    between atoms: O_4  and  C_14
REMARK    4  A    between atoms: O_5  and  C_21
REMARK    5  A    between atoms: O_8  and  C_23
REMARK    6  A    between atoms: O_8  and  C_33
REMARK    7  A    between atoms: N_9  and  C_12
REMARK    8  A    between atoms: N_10  and  C_22
REMARK    9  A    between atoms: N_11  and  C_18
REMARK   10  A    between atoms: C_13  and  C_18
REMARK   11  A    between atoms: C_15  and  C_21
REMARK                            x       y       z     vdW  Elec       q    Type
REMARK                         _______ _______ _______ _____ _____    ______ ____
ROOT
ATOM      3  O   UNL     1      14.483   6.234  19.273  0.00  0.00    -0.366 OA
ATOM     12  C   UNL     1      13.881   7.772  20.987  0.00  0.00    +0.118 C 
ATOM     13  C   UNL     1      13.365   7.010  19.758  0.00  0.00    +0.154 C 
ATOM     14  C   UNL     1      15.374   7.880  20.722  0.00  0.00    +0.165 C 
ATOM     15  C   UNL     1      15.643   6.527  20.074  0.00  0.00    +0.174 C 
ENDROOT
BRANCH  12   9
ATOM      9  N   UNL     1      13.213   9.025  21.291  0.00  0.00    -0.292 NA
ATOM     10  N   UNL     1      12.034  11.009  22.974  0.00  0.00    -0.325 N 
ATOM     16  C   UNL     1      11.919   8.775  21.940  0.00  0.00    +0.104 C 
ATOM     17  C   UNL     1      14.053   9.858  22.159  0.00  0.00    +0.104 C 
ATOM     19  C   UNL     1      11.181  10.087  22.214  0.00  0.00    +0.120 C 
ATOM     20  C   UNL     1      13.386  11.206  22.442  0.00  0.00    +0.120 C 
BRANCH  10  22
ATOM     22  C   UNL     1      11.414  12.037  23.694  0.00  0.00    +0.072 A 
ATOM     23  C   UNL     1      10.789  13.092  23.029  0.00  0.00    +0.141 A 
ATOM     24  C   UNL     1      11.427  12.002  25.088  0.00  0.00    +0.027 A 
ATOM     26  C   UNL     1      10.176  14.111  23.758  0.00  0.00    +0.047 A 
ATOM     27  C   UNL     1      10.814  13.020  25.818  0.00  0.00    +0.002 A 
ATOM     28  C   UNL     1      10.188  14.074  25.153  0.00  0.00    +0.004 A 
BRANCH  23   8
ATOM      8  O   UNL     1      10.766  13.146  21.667  0.00  0.00    -0.493 OA
ATOM     33  C   UNL     1      11.525  14.181  21.047  0.00  0.00    +0.277 C 
ENDBRANCH  23   8
ENDBRANCH  10  22
ENDBRANCH  12   9
BRANCH  14   4
ATOM      4  O   UNL     1      15.666   8.931  19.811  0.00  0.00    -0.388 OA
ATOM     35  H   UNL     1      16.633   9.026  19.771  0.00  0.00    +0.210 HD
ENDBRANCH  14   4
BRANCH  13  18
ATOM     18  C   UNL     1      12.860   7.854  18.594  0.00  0.00    +0.139 C 
BRANCH  18  11
ATOM     11  N   UNL     1      13.919   7.962  17.574  0.00  0.00    -0.187 NA
ATOM     36  H   UNL     1      14.884   7.923  17.924  0.00  0.00    +0.148 HD
BRANCH  11   2
ATOM      2  S   UNL     1      13.620   8.789  16.116  0.00  0.00    +0.058 S 
ATOM      6  O   UNL     1      12.189   8.960  15.946  0.00  0.00    -0.153 OA
ATOM      7  O   UNL     1      14.414   8.191  15.060  0.00  0.00    -0.153 OA
BRANCH   2  25
ATOM      1 CL   UNL     1      16.114  14.427  17.307  0.00  0.00    -0.084 Cl
ATOM     25  C   UNL     1      14.321  10.377  16.452  0.00  0.00    +0.105 A 
ATOM     29  C   UNL     1      15.223  10.945  15.551  0.00  0.00    +0.030 A 
ATOM     30  C   UNL     1      13.974  11.062  17.616  0.00  0.00    +0.030 A 
ATOM     31  C   UNL     1      15.777  12.197  15.816  0.00  0.00    +0.022 A 
ATOM     32  C   UNL     1      14.528  12.314  17.880  0.00  0.00    +0.022 A 
ATOM     34  C   UNL     1      15.430  12.881  16.981  0.00  0.00    +0.041 A 
ENDBRANCH   2  25
ENDBRANCH  11   2
ENDBRANCH  18  11
ENDBRANCH  13  18
BRANCH  15  21
ATOM     21  C   UNL     1      16.885   6.454  19.204  0.00  0.00    +0.190 C 
BRANCH  21   5
ATOM      5  O   UNL     1      16.811   5.290  18.396  0.00  0.00    -0.392 OA
ATOM     37  H   UNL     1      16.137   5.456  17.716  0.00  0.00    +0.210 HD
ENDBRANCH  21   5
ENDBRANCH  15  21
TORSDOF 10
ENDMDL
MODEL 2
REMARK VINA RESULT:      -6.8     28.027     30.456
REMARK  Name = 28961981
REMARK  11 active torsions:
REMARK  status: ('A' for Active; 'I' for Inactive)
REMARK    1  A    between atoms: S_2  and  N_11
REMARK    2  A    between atoms: S_2  and  C_25
REMARK    3  A    between atoms: O_4  and  C_14
REMARK    4  A    between atoms: O_5  and  C_21
REMARK    5  A    between atoms: O_8  and  C_23
REMARK    6  A    between atoms: O_8  and  C_33
REMARK    7  A    between atoms: N_9  and  C_12
REMARK    8  A    between atoms: N_10  and  C_22
REMARK    9  A    between atoms: N_11  and  C_18
REMARK   10  A    between atoms: C_13  and  C_18
REMARK   11  A    between atoms: C_15  and  C_21
REMARK                            x       y       z     vdW  Elec       q    Type
REMARK                         _______ _______ _______ _____ _____    ______ ____
ROOT
ATOM      3  O   UNL     1      -8.192 -11.144  19.790  0.00  0.00    -0.366 OA
ATOM     12  C   UNL     1      -6.664 -11.685  18.046  0.00  0.00    +0.118 C 
ATOM     13  C   UNL     1      -7.414 -10.536  18.736  0.00  0.00    +0.154 C 
ATOM     14  C   UNL     1      -7.551 -12.888  18.323  0.00  0.00    +0.165 C 
ATOM     15  C   UNL     1      -8.019 -12.573  19.739  0.00  0.00    +0.174 C 
ENDROOT
BRANCH  12   9
ATOM      9  N   UNL     1      -6.317 -11.478  16.652  0.00  0.00    -0.292 NA
ATOM     10  N   UNL     1      -4.594 -10.865  14.458  0.00  0.00    -0.325 N 
ATOM     16  C   UNL     1      -5.850 -10.102  16.435  0.00  0.00    +0.104 C 
ATOM     17  C   UNL     1      -5.279 -12.428  16.233  0.00  0.00    +0.104 C 
ATOM     19  C   UNL     1      -5.535  -9.856  14.958  0.00  0.00    +0.120 C 
ATOM     20  C   UNL     1      -4.943 -12.258  14.750  0.00  0.00    +0.120 C 
BRANCH  10  22
ATOM     22  C   UNL     1      -3.853 -10.562  13.309  0.00  0.00    +0.072 A 
ATOM     23  C   UNL     1      -2.460 -10.636  13.322  0.00  0.00    +0.141 A 
ATOM     24  C   UNL     1      -4.520 -10.180  12.145  0.00  0.00    +0.027 A 
ATOM     26  C   UNL     1      -1.735 -10.330  12.172  0.00  0.00    +0.047 A 
ATOM     27  C   UNL     1      -3.794  -9.874  10.993  0.00  0.00    +0.002 A 
ATOM     28  C   UNL     1      -2.402  -9.949  11.007  0.00  0.00    +0.004 A 
BRANCH  23   8
ATOM      8  O   UNL     1      -1.789 -11.007  14.449  0.00  0.00    -0.493 OA
ATOM     33  C   UNL     1      -1.171  -9.968  15.205  0.00  0.00    +0.277 C 
ENDBRANCH  23   8
ENDBRANCH  10  22
ENDBRANCH  12   9
BRANCH  14   4
ATOM      4  O   UNL     1      -8.660 -12.933  17.434  0.00  0.00    -0.388 OA
ATOM     35  H   UNL     1      -8.926 -13.863  17.342  0.00  0.00    +0.210 HD
ENDBRANCH  14   4
BRANCH  13  18
ATOM     18  C   UNL     1      -8.376  -9.732  17.870  0.00  0.00    +0.139 C 
BRANCH  18  11
ATOM     11  N   UNL     1      -9.594  -9.429  18.643  0.00  0.00    -0.187 NA
ATOM     36  H   UNL     1      -9.474  -9.368  19.661  0.00  0.00    +0.148 HD
BRANCH  11   2
ATOM      2  S   UNL     1     -11.123  -9.862  18.033  0.00  0.00    +0.058 S 
ATOM      6  O   UNL     1     -12.105  -9.785  19.098  0.00  0.00    -0.153 OA
ATOM      7  O   UNL     1     -10.994 -11.073  17.246  0.00  0.00    -0.153 OA
BRANCH   2  25
ATOM      1 CL   UNL     1     -12.270  -5.182  14.007  0.00  0.00    -0.084 Cl
ATOM     25  C   UNL     1     -11.446  -8.543  16.900  0.00  0.00    +0.105 A 
ATOM     29  C   UNL     1     -12.343  -8.732  15.848  0.00  0.00    +0.030 A 
ATOM     30  C   UNL     1     -10.804  -7.316  17.057  0.00  0.00    +0.030 A 
ATOM     31  C   UNL     1     -12.598  -7.693  14.954  0.00  0.00    +0.022 A 
ATOM     32  C   UNL     1     -11.059  -6.276  16.163  0.00  0.00    +0.022 A 
ATOM     34  C   UNL     1     -11.955  -6.465  15.111  0.00  0.00    +0.041 A 
ENDBRANCH   2  25
ENDBRANCH  11   2
ENDBRANCH  18  11
ENDBRANCH  13  18
BRANCH  15  21
ATOM     21  C   UNL     1      -9.308 -13.250  20.167  0.00  0.00    +0.190 C 
BRANCH  21   5
ATOM      5  O   UNL     1     -10.392 -12.367  19.925  0.00  0.00    -0.392 OA
ATOM     37  H   UNL     1     -11.131 -12.662  20.484  0.00  0.00    +0.210 HD
ENDBRANCH  21   5
ENDBRANCH  15  21
TORSDOF 10
ENDMDL
MODEL 3
REMARK VINA RESULT:      -6.8     29.047     30.940
REMARK  Name = 28961981
REMARK  11 active torsions:
REMARK  status: ('A' for Active; 'I' for Inactive)
REMARK    1  A    between atoms: S_2  and  N_11
REMARK    2  A    between atoms: S_2  and  C_25
REMARK    3  A    between atoms: O_4  and  C_14
REMARK    4  A    between atoms: O_5  and  C_21
REMARK    5  A    between atoms: O_8  and  C_23
REMARK    6  A    between atoms: O_8  and  C_33
REMARK    7  A    between atoms: N_9  and  C_12
REMARK    8  A    between atoms: N_10  and  C_22
REMARK    9  A    between atoms: N_11  and  C_18
REMARK   10  A    between atoms: C_13  and  C_18
REMARK   11  A    between atoms: C_15  and  C_21
REMARK                            x       y       z     vdW  Elec       q    Type
REMARK                         _______ _______ _______ _____ _____    ______ ____
ROOT
ATOM      3  O   UNL     1     -10.439 -11.723  17.718  0.00  0.00    -0.366 OA
ATOM     12  C   UNL     1     -11.630  -9.840  16.879  0.00  0.00    +0.118 C 
ATOM     13  C   UNL     1     -10.755 -11.038  16.485  0.00  0.00    +0.154 C 
ATOM     14  C   UNL     1     -11.210  -9.566  18.315  0.00  0.00    +0.165 C 
ATOM     15  C   UNL     1     -10.999 -10.987  18.822  0.00  0.00    +0.174 C 
ENDROOT
BRANCH  12   9
ATOM      9  N   UNL     1     -11.585  -8.693  15.991  0.00  0.00    -0.292 NA
ATOM     10  N   UNL     1     -12.664  -6.531  14.467  0.00  0.00    -0.325 N 
ATOM     16  C   UNL     1     -12.354  -8.957  14.768  0.00  0.00    +0.104 C 
ATOM     17  C   UNL     1     -12.112  -7.499  16.663  0.00  0.00    +0.104 C 
ATOM     19  C   UNL     1     -12.266  -7.777  13.798  0.00  0.00    +0.120 C 
ATOM     20  C   UNL     1     -12.018  -6.270  15.756  0.00  0.00    +0.120 C 
BRANCH  10  22
ATOM     22  C   UNL     1     -13.078  -5.459  13.668  0.00  0.00    +0.072 A 
ATOM     23  C   UNL     1     -14.433  -5.166  13.519  0.00  0.00    +0.141 A 
ATOM     24  C   UNL     1     -12.120  -4.682  13.015  0.00  0.00    +0.027 A 
ATOM     26  C   UNL     1     -14.831  -4.095  12.720  0.00  0.00    +0.047 A 
ATOM     27  C   UNL     1     -12.519  -3.610  12.215  0.00  0.00    +0.002 A 
ATOM     28  C   UNL     1     -13.874  -3.317  12.068  0.00  0.00    +0.004 A 
BRANCH  23   8
ATOM      8  O   UNL     1     -15.384  -5.913  14.148  0.00  0.00    -0.493 OA
ATOM     33  C   UNL     1     -16.285  -6.644  13.319  0.00  0.00    +0.277 C 
ENDBRANCH  23   8
ENDBRANCH  10  22
ENDBRANCH  12   9
BRANCH  14   4
ATOM      4  O   UNL     1      -9.993  -8.835  18.371  0.00  0.00    -0.388 OA
ATOM     35  H   UNL     1      -9.933  -8.429  19.252  0.00  0.00    +0.210 HD
ENDBRANCH  14   4
BRANCH  13  18
ATOM     18  C   UNL     1      -9.435 -10.721  15.792  0.00  0.00    +0.139 C 
BRANCH  18  11
ATOM     11  N   UNL     1      -8.316 -11.132  16.660  0.00  0.00    -0.187 NA
ATOM     36  H   UNL     1      -8.440 -12.021  17.159  0.00  0.00    +0.148 HD
BRANCH  11   2
ATOM      2  S   UNL     1      -7.287  -9.958  17.339  0.00  0.00    +0.058 S 
ATOM      6  O   UNL     1      -7.145 -10.208  18.761  0.00  0.00    -0.153 OA
ATOM      7  O   UNL     1      -7.684  -8.647  16.865  0.00  0.00    -0.153 OA
BRANCH   2  25
ATOM      1 CL   UNL     1      -1.806 -11.315  14.590  0.00  0.00    -0.084 Cl
ATOM     25  C   UNL     1      -5.744 -10.341  16.564  0.00  0.00    +0.105 A 
ATOM     29  C   UNL     1      -4.638 -10.683  17.344  0.00  0.00    +0.030 A 
ATOM     30  C   UNL     1      -5.631 -10.300  15.175  0.00  0.00    +0.030 A 
ATOM     31  C   UNL     1      -3.421 -10.985  16.734  0.00  0.00    +0.022 A 
ATOM     32  C   UNL     1      -4.414 -10.601  14.564  0.00  0.00    +0.022 A 
ATOM     34  C   UNL     1      -3.309 -10.943  15.344  0.00  0.00    +0.041 A 
ENDBRANCH   2  25
ENDBRANCH  11   2
ENDBRANCH  18  11
ENDBRANCH  13  18
BRANCH  15  21
ATOM     21  C   UNL     1     -10.086 -11.122  20.028  0.00  0.00    +0.190 C 
BRANCH  21   5
ATOM      5  O   UNL     1     -10.214  -9.960  20.833  0.00  0.00    -0.392 OA
ATOM     37  H   UNL     1     -11.151  -9.702  20.814  0.00  0.00    +0.210 HD
ENDBRANCH  21   5
ENDBRANCH  15  21
TORSDOF 10
ENDMDL
MODEL 4
REMARK VINA RESULT:      -6.6     27.387     29.245
REMARK  Name = 28961981
REMARK  11 active torsions:
REMARK  status: ('A' for Active; 'I' for Inactive)
REMARK    1  A    between atoms: S_2  and  N_11
REMARK    2  A    between atoms: S_2  and  C_25
REMARK    3  A    between atoms: O_4  and  C_14
REMARK    4  A    between atoms: O_5  and  C_21
REMARK    5  A    between atoms: O_8  and  C_23
REMARK    6  A    between atoms: O_8  and  C_33
REMARK    7  A    between atoms: N_9  and  C_12
REMARK    8  A    between atoms: N_10  and  C_22
REMARK    9  A    between atoms: N_11  and  C_18
REMARK   10  A    between atoms: C_13  and  C_18
REMARK   11  A    between atoms: C_15  and  C_21
REMARK                            x       y       z     vdW  Elec       q    Type
REMARK                         _______ _______ _______ _____ _____    ______ ____
ROOT
ATOM      3  O   UNL     1      -2.744 -12.051  15.010  0.00  0.00    -0.366 OA
ATOM     12  C   UNL     1      -4.678 -11.760  16.367  0.00  0.00    +0.118 C 
ATOM     13  C   UNL     1      -4.178 -12.235  14.996  0.00  0.00    +0.154 C 
ATOM     14  C   UNL     1      -3.614 -10.760  16.793  0.00  0.00    +0.165 C 
ATOM     15  C   UNL     1      -2.360 -11.438  16.255  0.00  0.00    +0.174 C 
ENDROOT
BRANCH  12   9
ATOM      9  N   UNL     1      -6.044 -11.270  16.416  0.00  0.00    -0.292 NA
ATOM     10  N   UNL     1      -8.552 -10.658  17.638  0.00  0.00    -0.325 N 
ATOM     16  C   UNL     1      -6.965 -12.347  16.801  0.00  0.00    +0.104 C 
ATOM     17  C   UNL     1      -6.158 -10.154  17.363  0.00  0.00    +0.104 C 
ATOM     19  C   UNL     1      -8.414 -11.856  16.801  0.00  0.00    +0.120 C 
ATOM     20  C   UNL     1      -7.580  -9.591  17.383  0.00  0.00    +0.120 C 
BRANCH  10  22
ATOM     22  C   UNL     1      -9.826 -10.336  18.121  0.00  0.00    +0.072 A 
ATOM     23  C   UNL     1     -10.227 -10.743  19.394  0.00  0.00    +0.141 A 
ATOM     24  C   UNL     1     -10.699  -9.603  17.316  0.00  0.00    +0.027 A 
ATOM     26  C   UNL     1     -11.500 -10.416  19.861  0.00  0.00    +0.047 A 
ATOM     27  C   UNL     1     -11.971  -9.276  17.784  0.00  0.00    +0.002 A 
ATOM     28  C   UNL     1     -12.372  -9.682  19.057  0.00  0.00    +0.004 A 
BRANCH  23   8
ATOM      8  O   UNL     1      -9.391 -11.460  20.196  0.00  0.00    -0.493 OA
ATOM     33  C   UNL     1      -9.614 -12.866  20.272  0.00  0.00    +0.277 C 
ENDBRANCH  23   8
ENDBRANCH  10  22
ENDBRANCH  12   9
BRANCH  14   4
ATOM      4  O   UNL     1      -3.803  -9.499  16.164  0.00  0.00    -0.388 OA
ATOM     35  H   UNL     1      -4.691  -9.182  16.402  0.00  0.00    +0.210 HD
ENDBRANCH  14   4
BRANCH  13  18
ATOM     18  C   UNL     1      -4.717 -11.496  13.778  0.00  0.00    +0.139 C 
BRANCH  18  11
ATOM     11  N   UNL     1      -3.664 -10.621  13.230  0.00  0.00    -0.187 NA
ATOM     36  H   UNL     1      -3.827  -9.611  13.324  0.00  0.00    +0.148 HD
BRANCH  11   2
ATOM      2  S   UNL     1      -2.678 -11.167  11.955  0.00  0.00    +0.058 S 
ATOM      6  O   UNL     1      -2.613 -12.616  11.984  0.00  0.00    -0.153 OA
ATOM      7  O   UNL     1      -1.458 -10.383  11.929  0.00  0.00    -0.153 OA
BRANCH   2  25
ATOM      1 CL   UNL     1      -6.042  -9.483   6.927  0.00  0.00    -0.084 Cl
ATOM     25  C   UNL     1      -3.625 -10.694  10.538  0.00  0.00    +0.105 A 
ATOM     29  C   UNL     1      -3.552  -9.387  10.057  0.00  0.00    +0.030 A 
ATOM     30  C   UNL     1      -4.446 -11.626   9.904  0.00  0.00    +0.030 A 
ATOM     31  C   UNL     1      -4.299  -9.012   8.940  0.00  0.00    +0.022 A 
ATOM     32  C   UNL     1      -5.193 -11.252   8.788  0.00  0.00    +0.022 A 
ATOM     34  C   UNL     1      -5.119  -9.945   8.306  0.00  0.00    +0.041 A 
ENDBRANCH   2  25
ENDBRANCH  11   2
ENDBRANCH  18  11
ENDBRANCH  13  18
BRANCH  15  21
ATOM     21  C   UNL     1      -1.173 -10.522  16.018  0.00  0.00    +0.190 C 
BRANCH  21   5
ATOM      5  O   UNL     1      -1.437  -9.714  14.882  0.00  0.00    -0.392 OA
ATOM     37  H   UNL     1      -0.803  -8.977  14.903  0.00  0.00    +0.210 HD
ENDBRANCH  21   5
ENDBRANCH  15  21
TORSDOF 10
ENDMDL
MODEL 5
REMARK VINA RESULT:      -6.6     27.508     29.950
REMARK  Name = 28961981
REMARK  11 active torsions:
REMARK  status: ('A' for Active; 'I' for Inactive)
REMARK    1  A    between atoms: S_2  and  N_11
REMARK    2  A    between atoms: S_2  and  C_25
REMARK    3  A    between atoms: O_4  and  C_14
REMARK    4  A    between atoms: O_5  and  C_21
REMARK    5  A    between atoms: O_8  and  C_23
REMARK    6  A    between atoms: O_8  and  C_33
REMARK    7  A    between atoms: N_9  and  C_12
REMARK    8  A    between atoms: N_10  and  C_22
REMARK    9  A    between atoms: N_11  and  C_18
REMARK   10  A    between atoms: C_13  and  C_18
REMARK   11  A    between atoms: C_15  and  C_21
REMARK                            x       y       z     vdW  Elec       q    Type
REMARK                         _______ _______ _______ _____ _____    ______ ____
ROOT
ATOM      3  O   UNL     1      -7.783 -10.043   7.568  0.00  0.00    -0.366 OA
ATOM     12  C   UNL     1      -6.042 -10.688   9.058  0.00  0.00    +0.118 C 
ATOM     13  C   UNL     1      -7.439 -10.057   8.971  0.00  0.00    +0.154 C 
ATOM     14  C   UNL     1      -5.444 -10.386   7.693  0.00  0.00    +0.165 C 
ATOM     15  C   UNL     1      -6.672 -10.551   6.805  0.00  0.00    +0.174 C 
ENDROOT
BRANCH  12   9
ATOM      9  N   UNL     1      -5.229 -10.289  10.193  0.00  0.00    -0.292 NA
ATOM     10  N   UNL     1      -3.888 -10.641  12.690  0.00  0.00    -0.325 N 
ATOM     16  C   UNL     1      -5.997 -10.394  11.440  0.00  0.00    +0.104 C 
ATOM     17  C   UNL     1      -4.023 -11.122  10.279  0.00  0.00    +0.104 C 
ATOM     19  C   UNL     1      -5.168  -9.923  12.636  0.00  0.00    +0.120 C 
ATOM     20  C   UNL     1      -3.128 -10.676  11.438  0.00  0.00    +0.120 C 
BRANCH  10  22
ATOM     22  C   UNL     1      -3.212 -10.688  13.915  0.00  0.00    +0.072 A 
ATOM     23  C   UNL     1      -3.814 -11.254  15.038  0.00  0.00    +0.141 A 
ATOM     24  C   UNL     1      -1.923 -10.160  14.006  0.00  0.00    +0.027 A 
ATOM     26  C   UNL     1      -3.129 -11.293  16.252  0.00  0.00    +0.047 A 
ATOM     27  C   UNL     1      -1.237 -10.200  15.220  0.00  0.00    +0.002 A 
ATOM     28  C   UNL     1      -1.840 -10.766  16.343  0.00  0.00    +0.004 A 
BRANCH  23   8
ATOM      8  O   UNL     1      -5.072 -11.774  14.971  0.00  0.00    -0.493 OA
ATOM     33  C   UNL     1      -6.056 -11.203  15.830  0.00  0.00    +0.277 C 
ENDBRANCH  23   8
ENDBRANCH  10  22
ENDBRANCH  12   9
BRANCH  14   4
ATOM      4  O   UNL     1      -4.958  -9.052   7.621  0.00  0.00    -0.388 OA
ATOM     35  H   UNL     1      -5.206  -8.603   8.447  0.00  0.00    +0.210 HD
ENDBRANCH  14   4
BRANCH  13  18
ATOM     18  C   UNL     1      -7.577  -8.629   9.485  0.00  0.00    +0.139 C 
BRANCH  18  11
ATOM     11  N   UNL     1      -8.875  -8.078   9.056  0.00  0.00    -0.187 NA
ATOM     36  H   UNL     1      -9.643  -8.755   8.972  0.00  0.00    +0.148 HD
BRANCH  11   2
ATOM      2  S   UNL     1      -8.932  -6.667   8.106  0.00  0.00    +0.058 S 
ATOM      6  O   UNL     1      -9.420  -6.999   6.781  0.00  0.00    -0.153 OA
ATOM      7  O   UNL     1      -7.688  -5.939   8.264  0.00  0.00    -0.153 OA
BRANCH   2  25
ATOM      1 CL   UNL     1     -13.388  -3.340  11.023  0.00  0.00    -0.084 Cl
ATOM     25  C   UNL     1     -10.186  -5.729   8.928  0.00  0.00    +0.105 A 
ATOM     29  C   UNL     1     -11.205  -6.385   9.620  0.00  0.00    +0.030 A 
ATOM     30  C   UNL     1     -10.158  -4.336   8.883  0.00  0.00    +0.030 A 
ATOM     31  C   UNL     1     -12.195  -5.646  10.268  0.00  0.00    +0.022 A 
ATOM     32  C   UNL     1     -11.148  -3.597   9.531  0.00  0.00    +0.022 A 
ATOM     34  C   UNL     1     -12.166  -4.252  10.223  0.00  0.00    +0.041 A 
ENDBRANCH   2  25
ENDBRANCH  11   2
ENDBRANCH  18  11
ENDBRANCH  13  18
BRANCH  15  21
ATOM     21  C   UNL     1      -6.613  -9.836   5.468  0.00  0.00    +0.190 C 
BRANCH  21   5
ATOM      5  O   UNL     1      -6.854  -8.453   5.676  0.00  0.00    -0.392 OA
ATOM     37  H   UNL     1      -7.005  -8.330   6.628  0.00  0.00    +0.210 HD
ENDBRANCH  21   5
ENDBRANCH  15  21
TORSDOF 10
ENDMDL
MODEL 6
REMARK VINA RESULT:      -6.5     29.451     31.523
REMARK  Name = 28961981
REMARK  11 active torsions:
REMARK  status: ('A' for Active; 'I' for Inactive)
REMARK    1  A    between atoms: S_2  and  N_11
REMARK    2  A    between atoms: S_2  and  C_25
REMARK    3  A    between atoms: O_4  and  C_14
REMARK    4  A    between atoms: O_5  and  C_21
REMARK    5  A    between atoms: O_8  and  C_23
REMARK    6  A    between atoms: O_8  and  C_33
REMARK    7  A    between atoms: N_9  and  C_12
REMARK    8  A    between atoms: N_10  and  C_22
REMARK    9  A    between atoms: N_11  and  C_18
REMARK   10  A    between atoms: C_13  and  C_18
REMARK   11  A    between atoms: C_15  and  C_21
REMARK                            x       y       z     vdW  Elec       q    Type
REMARK                         _______ _______ _______ _____ _____    ______ ____
ROOT
ATOM      3  O   UNL     1     -14.327  -6.493  15.173  0.00  0.00    -0.366 OA
ATOM     12  C   UNL     1     -12.754  -7.963  16.189  0.00  0.00    +0.118 C 
ATOM     13  C   UNL     1     -12.997  -6.516  15.737  0.00  0.00    +0.154 C 
ATOM     14  C   UNL     1     -13.671  -8.765  15.279  0.00  0.00    +0.165 C 
ATOM     15  C   UNL     1     -14.869  -7.827  15.190  0.00  0.00    +0.174 C 
ENDROOT
BRANCH  12   9
ATOM      9  N   UNL     1     -11.371  -8.402  16.218  0.00  0.00    -0.292 NA
ATOM     10  N   UNL     1      -9.020  -9.539  17.376  0.00  0.00    -0.325 N 
ATOM     16  C   UNL     1     -10.618  -7.668  17.244  0.00  0.00    +0.104 C 
ATOM     17  C   UNL     1     -11.293  -9.844  16.479  0.00  0.00    +0.104 C 
ATOM     19  C   UNL     1      -9.145  -8.082  17.245  0.00  0.00    +0.120 C 
ATOM     20  C   UNL     1      -9.843 -10.331  16.457  0.00  0.00    +0.120 C 
BRANCH  10  22
ATOM     22  C   UNL     1      -7.805 -10.056  17.841  0.00  0.00    +0.072 A 
ATOM     23  C   UNL     1      -7.737 -10.714  19.068  0.00  0.00    +0.141 A 
ATOM     24  C   UNL     1      -6.655  -9.905  17.065  0.00  0.00    +0.027 A 
ATOM     26  C   UNL     1      -6.519 -11.223  19.519  0.00  0.00    +0.047 A 
ATOM     27  C   UNL     1      -5.437 -10.415  17.516  0.00  0.00    +0.002 A 
ATOM     28  C   UNL     1      -5.370 -11.074  18.743  0.00  0.00    +0.004 A 
BRANCH  23   8
ATOM      8  O   UNL     1      -8.848 -10.871  19.842  0.00  0.00    -0.493 OA
ATOM     33  C   UNL     1      -9.462 -12.157  19.838  0.00  0.00    +0.277 C 
ENDBRANCH  23   8
ENDBRANCH  10  22
ENDBRANCH  12   9
BRANCH  14   4
ATOM      4  O   UNL     1     -13.094  -8.954  13.994  0.00  0.00    -0.388 OA
ATOM     35  H   UNL     1     -12.969  -8.076  13.596  0.00  0.00    +0.210 HD
ENDBRANCH  14   4
BRANCH  13  18
ATOM     18  C   UNL     1     -12.048  -5.962  14.681  0.00  0.00    +0.139 C 
BRANCH  18  11
ATOM     11  N   UNL     1     -12.670  -6.087  13.351  0.00  0.00    -0.187 NA
ATOM     36  H   UNL     1     -12.546  -6.993  12.882  0.00  0.00    +0.148 HD
BRANCH  11   2
ATOM      2  S   UNL     1     -12.916  -4.704  12.389  0.00  0.00    +0.058 S 
ATOM      6  O   UNL     1     -12.198  -3.584  12.966  0.00  0.00    -0.153 OA
ATOM      7  O   UNL     1     -14.329  -4.586  12.082  0.00  0.00    -0.153 OA
BRANCH   2  25
ATOM      1 CL   UNL     1     -10.016  -6.315   7.058  0.00  0.00    -0.084 Cl
ATOM     25  C   UNL     1     -12.099  -5.159  10.888  0.00  0.00    +0.105 A 
ATOM     29  C   UNL     1     -11.507  -4.177  10.093  0.00  0.00    +0.030 A 
ATOM     30  C   UNL     1     -12.048  -6.497  10.499  0.00  0.00    +0.030 A 
ATOM     31  C   UNL     1     -10.862  -4.535   8.909  0.00  0.00    +0.022 A 
ATOM     32  C   UNL     1     -11.403  -6.854   9.315  0.00  0.00    +0.022 A 
ATOM     34  C   UNL     1     -10.811  -5.873   8.520  0.00  0.00    +0.041 A 
ENDBRANCH   2  25
ENDBRANCH  11   2
ENDBRANCH  18  11
ENDBRANCH  13  18
BRANCH  15  21
ATOM     21  C   UNL     1     -15.762  -8.021  13.977  0.00  0.00    +0.190 C 
BRANCH  21   5
ATOM      5  O   UNL     1     -15.202  -7.318  12.879  0.00  0.00    -0.392 OA
ATOM     37  H   UNL     1     -15.734  -7.542  12.096  0.00  0.00    +0.210 HD
ENDBRANCH  21   5
ENDBRANCH  15  21
TORSDOF 10
ENDMDL
MODEL 7
REMARK VINA RESULT:      -6.2     16.910     20.286
REMARK  Name = 28961981
REMARK  11 active torsions:
REMARK  status: ('A' for Active; 'I' for Inactive)
REMARK    1  A    between atoms: S_2  and  N_11
REMARK    2  A    between atoms: S_2  and  C_25
REMARK    3  A    between atoms: O_4  and  C_14
REMARK    4  A    between atoms: O_5  and  C_21
REMARK    5  A    between atoms: O_8  and  C_23
REMARK    6  A    between atoms: O_8  and  C_33
REMARK    7  A    between atoms: N_9  and  C_12
REMARK    8  A    between atoms: N_10  and  C_22
REMARK    9  A    between atoms: N_11  and  C_18
REMARK   10  A    between atoms: C_13  and  C_18
REMARK   11  A    between atoms: C_15  and  C_21
REMARK                            x       y       z     vdW  Elec       q    Type
REMARK                         _______ _______ _______ _____ _____    ______ ____
ROOT
ATOM      3  O   UNL     1      13.537   3.348  -0.996  0.00  0.00    -0.366 OA
ATOM     12  C   UNL     1      13.143   4.438   1.084  0.00  0.00    +0.118 C 
ATOM     13  C   UNL     1      12.576   3.423   0.081  0.00  0.00    +0.154 C 
ATOM     14  C   UNL     1      14.024   5.322   0.216  0.00  0.00    +0.165 C 
ATOM     15  C   UNL     1      14.598   4.290  -0.747  0.00  0.00    +0.174 C 
ENDROOT
BRANCH  12   9
ATOM      9  N   UNL     1      12.172   5.142   1.902  0.00  0.00    -0.292 NA
ATOM     10  N   UNL     1      10.975   6.041   4.334  0.00  0.00    -0.325 N 
ATOM     16  C   UNL     1      11.445   4.201   2.764  0.00  0.00    +0.104 C 
ATOM     17  C   UNL     1      12.834   6.162   2.724  0.00  0.00    +0.104 C 
ATOM     19  C   UNL     1      10.379   4.925   3.589  0.00  0.00    +0.120 C 
ATOM     20  C   UNL     1      11.815   6.950   3.549  0.00  0.00    +0.120 C 
BRANCH  10  22
ATOM     22  C   UNL     1      10.290   6.523   5.456  0.00  0.00    +0.072 A 
ATOM     23  C   UNL     1      10.958   6.718   6.665  0.00  0.00    +0.141 A 
ATOM     24  C   UNL     1       8.928   6.806   5.358  0.00  0.00    +0.027 A 
ATOM     26  C   UNL     1      10.263   7.197   7.775  0.00  0.00    +0.047 A 
ATOM     27  C   UNL     1       8.233   7.286   6.469  0.00  0.00    +0.002 A 
ATOM     28  C   UNL     1       8.901   7.482   7.677  0.00  0.00    +0.004 A 
BRANCH  23   8
ATOM      8  O   UNL     1      12.288   6.447   6.783  0.00  0.00    -0.493 OA
ATOM     33  C   UNL     1      13.154   7.552   7.030  0.00  0.00    +0.277 C 
ENDBRANCH  23   8
ENDBRANCH  10  22
ENDBRANCH  12   9
BRANCH  14   4
ATOM      4  O   UNL     1      13.257   6.287  -0.493  0.00  0.00    -0.388 OA
ATOM     35  H   UNL     1      12.604   5.806  -1.029  0.00  0.00    +0.210 HD
ENDBRANCH  14   4
BRANCH  13  18
ATOM     18  C   UNL     1      11.226   3.759  -0.541  0.00  0.00    +0.139 C 
BRANCH  18  11
ATOM     11  N   UNL     1      11.431   4.279  -1.905  0.00  0.00    -0.187 NA
ATOM     36  H   UNL     1      11.720   5.263  -1.969  0.00  0.00    +0.148 HD
BRANCH  11   2
ATOM      2  S   UNL     1      10.591   3.594  -3.216  0.00  0.00    +0.058 S 
ATOM      6  O   UNL     1      10.059   2.303  -2.824  0.00  0.00    -0.153 OA
ATOM      7  O   UNL     1      11.399   3.717  -4.414  0.00  0.00    -0.153 OA
BRANCH   2  25
ATOM      1 CL   UNL     1       5.762   7.557  -3.856  0.00  0.00    -0.084 Cl
ATOM     25  C   UNL     1       9.231   4.710  -3.395  0.00  0.00    +0.105 A 
ATOM     29  C   UNL     1       8.359   4.579  -4.477  0.00  0.00    +0.030 A 
ATOM     30  C   UNL     1       9.029   5.722  -2.457  0.00  0.00    +0.030 A 
ATOM     31  C   UNL     1       7.287   5.459  -4.620  0.00  0.00    +0.022 A 
ATOM     32  C   UNL     1       7.957   6.602  -2.599  0.00  0.00    +0.022 A 
ATOM     34  C   UNL     1       7.086   6.470  -3.681  0.00  0.00    +0.041 A 
ENDBRANCH   2  25
ENDBRANCH  11   2
ENDBRANCH  18  11
ENDBRANCH  13  18
BRANCH  15  21
ATOM     21  C   UNL     1      15.102   4.838  -2.070  0.00  0.00    +0.190 C 
BRANCH  21   5
ATOM      5  O   UNL     1      14.066   4.735  -3.034  0.00  0.00    -0.392 OA
ATOM     37  H   UNL     1      13.945   3.789  -3.222  0.00  0.00    +0.210 HD
ENDBRANCH  21   5
ENDBRANCH  15  21
TORSDOF 10
ENDMDL
MODEL 8
REMARK VINA RESULT:      -6.2     13.228     17.926
REMARK  Name = 28961981
REMARK  11 active torsions:
REMARK  status: ('A' for Active; 'I' for Inactive)
REMARK    1  A    between atoms: S_2  and  N_11
REMARK    2  A    between atoms: S_2  and  C_25
REMARK    3  A    between atoms: O_4  and  C_14
REMARK    4  A    between atoms: O_5  and  C_21
REMARK    5  A    between atoms: O_8  and  C_23
REMARK    6  A    between atoms: O_8  and  C_33
REMARK    7  A    between atoms: N_9  and  C_12
REMARK    8  A    between atoms: N_10  and  C_22
REMARK    9  A    between atoms: N_11  and  C_18
REMARK   10  A    between atoms: C_13  and  C_18
REMARK   11  A    between atoms: C_15  and  C_21
REMARK                            x       y       z     vdW  Elec       q    Type
REMARK                         _______ _______ _______ _____ _____    ______ ____
ROOT
ATOM      3  O   UNL     1      10.806   7.701   7.349  0.00  0.00    -0.366 OA
ATOM     12  C   UNL     1      11.252   6.240   5.523  0.00  0.00    +0.118 C 
ATOM     13  C   UNL     1      11.257   7.707   5.976  0.00  0.00    +0.154 C 
ATOM     14  C   UNL     1      10.206   5.606   6.426  0.00  0.00    +0.165 C 
ATOM     15  C   UNL     1      10.467   6.353   7.727  0.00  0.00    +0.174 C 
ENDROOT
BRANCH  12   9
ATOM      9  N   UNL     1      11.067   6.009   4.101  0.00  0.00    -0.292 NA
ATOM     10  N   UNL     1      11.603   4.815   1.563  0.00  0.00    -0.325 N 
ATOM     16  C   UNL     1      12.286   6.358   3.359  0.00  0.00    +0.104 C 
ATOM     17  C   UNL     1      10.713   4.607   3.849  0.00  0.00    +0.104 C 
ATOM     19  C   UNL     1      12.083   6.172   1.854  0.00  0.00    +0.120 C 
ATOM     20  C   UNL     1      10.460   4.362   2.360  0.00  0.00    +0.120 C 
BRANCH  10  22
ATOM     22  C   UNL     1      11.788   4.316   0.268  0.00  0.00    +0.072 A 
ATOM     23  C   UNL     1      12.817   3.416  -0.006  0.00  0.00    +0.141 A 
ATOM     24  C   UNL     1      10.932   4.729  -0.754  0.00  0.00    +0.027 A 
ATOM     26  C   UNL     1      12.990   2.927  -1.301  0.00  0.00    +0.047 A 
ATOM     27  C   UNL     1      11.105   4.240  -2.049  0.00  0.00    +0.002 A 
ATOM     28  C   UNL     1      12.133   3.339  -2.322  0.00  0.00    +0.004 A 
BRANCH  23   8
ATOM      8  O   UNL     1      13.664   3.000   0.977  0.00  0.00    -0.493 OA
ATOM     33  C   UNL     1      14.919   3.671   1.077  0.00  0.00    +0.277 C 
ENDBRANCH  23   8
ENDBRANCH  10  22
ENDBRANCH  12   9
BRANCH  14   4
ATOM      4  O   UNL     1       8.889   5.868   5.960  0.00  0.00    -0.388 OA
ATOM     35  H   UNL     1       8.342   5.092   6.172  0.00  0.00    +0.210 HD
ENDBRANCH  14   4
BRANCH  13  18
ATOM     18  C   UNL     1      10.352   8.662   5.208  0.00  0.00    +0.139 C 
BRANCH  18  11
ATOM     11  N   UNL     1       9.543   9.443   6.161  0.00  0.00    -0.187 NA
ATOM     36  H   UNL     1       8.758   8.944   6.596  0.00  0.00    +0.148 HD
BRANCH  11   2
ATOM      2  S   UNL     1       9.442  11.136   6.010  0.00  0.00    +0.058 S 
ATOM      6  O   UNL     1       8.264  11.480   5.236  0.00  0.00    -0.153 OA
ATOM      7  O   UNL     1      10.741  11.656   5.630  0.00  0.00    -0.153 OA
BRANCH   2  25
ATOM      1 CL   UNL     1       8.433  12.898  11.952  0.00  0.00    -0.084 Cl
ATOM     25  C   UNL     1       9.157  11.631   7.683  0.00  0.00    +0.105 A 
ATOM     29  C   UNL     1       8.654  12.903   7.957  0.00  0.00    +0.030 A 
ATOM     30  C   UNL     1       9.437  10.752   8.729  0.00  0.00    +0.030 A 
ATOM     31  C   UNL     1       8.429  13.295   9.277  0.00  0.00    +0.022 A 
ATOM     32  C   UNL     1       9.213  11.143  10.048  0.00  0.00    +0.022 A 
ATOM     34  C   UNL     1       8.709  12.414  10.322  0.00  0.00    +0.041 A 
ENDBRANCH   2  25
ENDBRANCH  11   2
ENDBRANCH  18  11
ENDBRANCH  13  18
BRANCH  15  21
ATOM     21  C   UNL     1       9.308   6.384   8.707  0.00  0.00    +0.190 C 
BRANCH  21   5
ATOM      5  O   UNL     1       8.455   7.468   8.374  0.00  0.00    -0.392 OA
ATOM     37  H   UNL     1       8.902   7.980   7.679  0.00  0.00    +0.210 HD
ENDBRANCH  21   5
ENDBRANCH  15  21
TORSDOF 10
ENDMDL
MODEL 9
REMARK VINA RESULT:      -6.2     29.591     32.017
REMARK  Name = 28961981
REMARK  11 active torsions:
REMARK  status: ('A' for Active; 'I' for Inactive)
REMARK    1  A    between atoms: S_2  and  N_11
REMARK    2  A    between atoms: S_2  and  C_25
REMARK    3  A    between atoms: O_4  and  C_14
REMARK    4  A    between atoms: O_5  and  C_21
REMARK    5  A    between atoms: O_8  and  C_23
REMARK    6  A    between atoms: O_8  and  C_33
REMARK    7  A    between atoms: N_9  and  C_12
REMARK    8  A    between atoms: N_10  and  C_22
REMARK    9  A    between atoms: N_11  and  C_18
REMARK   10  A    between atoms: C_13  and  C_18
REMARK   11  A    between atoms: C_15  and  C_21
REMARK                            x       y       z     vdW  Elec       q    Type
REMARK                         _______ _______ _______ _____ _____    ______ ____
ROOT
ATOM      3  O   UNL     1     -14.010  -5.395   9.662  0.00  0.00    -0.366 OA
ATOM     12  C   UNL     1     -11.853  -5.893   8.788  0.00  0.00    +0.118 C 
ATOM     13  C   UNL     1     -12.979  -6.406   9.696  0.00  0.00    +0.154 C 
ATOM     14  C   UNL     1     -12.037  -4.384   8.833  0.00  0.00    +0.165 C 
ATOM     15  C   UNL     1     -13.557  -4.287   8.860  0.00  0.00    +0.174 C 
ENDROOT
BRANCH  12   9
ATOM      9  N   UNL     1     -10.514  -6.363   9.098  0.00  0.00    -0.292 NA
ATOM     10  N   UNL     1      -8.101  -7.829   8.666  0.00  0.00    -0.325 N 
ATOM     16  C   UNL     1     -10.500  -7.826   9.230  0.00  0.00    +0.104 C 
ATOM     17  C   UNL     1      -9.568  -5.947   8.056  0.00  0.00    +0.104 C 
ATOM     19  C   UNL     1      -9.107  -8.329   9.612  0.00  0.00    +0.120 C 
ATOM     20  C   UNL     1      -8.143  -6.389   8.398  0.00  0.00    +0.120 C 
BRANCH  10  22
ATOM     22  C   UNL     1      -6.886  -8.518   8.573  0.00  0.00    +0.072 A 
ATOM     23  C   UNL     1      -6.605  -9.317   7.465  0.00  0.00    +0.141 A 
ATOM     24  C   UNL     1      -5.952  -8.400   9.603  0.00  0.00    +0.027 A 
ATOM     26  C   UNL     1      -5.391  -9.998   7.386  0.00  0.00    +0.047 A 
ATOM     27  C   UNL     1      -4.737  -9.080   9.524  0.00  0.00    +0.002 A 
ATOM     28  C   UNL     1      -4.456  -9.879   8.415  0.00  0.00    +0.004 A 
BRANCH  23   8
ATOM      8  O   UNL     1      -7.504  -9.446   6.449  0.00  0.00    -0.493 OA
ATOM     33  C   UNL     1      -7.075  -9.043   5.151  0.00  0.00    +0.277 C 
ENDBRANCH  23   8
ENDBRANCH  10  22
ENDBRANCH  12   9
BRANCH  14   4
ATOM      4  O   UNL     1     -11.484  -3.827  10.018  0.00  0.00    -0.388 OA
ATOM     35  H   UNL     1     -11.996  -3.030  10.235  0.00  0.00    +0.210 HD
ENDBRANCH  14   4
BRANCH  13  18
ATOM     18  C   UNL     1     -12.624  -6.641  11.159  0.00  0.00    +0.139 C 
BRANCH  18  11
ATOM     11  N   UNL     1     -13.667  -6.049  12.016  0.00  0.00    -0.187 NA
ATOM     36  H   UNL     1     -14.603  -5.978  11.599  0.00  0.00    +0.148 HD
BRANCH  11   2
ATOM      2  S   UNL     1     -13.241  -4.946  13.241  0.00  0.00    +0.058 S 
ATOM      6  O   UNL     1     -14.433  -4.262  13.706  0.00  0.00    -0.153 OA
ATOM      7  O   UNL     1     -12.083  -4.186  12.813  0.00  0.00    -0.153 OA
BRANCH   2  25
ATOM      1 CL   UNL     1     -11.313  -8.793  17.814  0.00  0.00    -0.084 Cl
ATOM     25  C   UNL     1     -12.699  -6.030  14.529  0.00  0.00    +0.105 A 
ATOM     29  C   UNL     1     -11.484  -5.794  15.173  0.00  0.00    +0.030 A 
ATOM     30  C   UNL     1     -13.485  -7.120  14.901  0.00  0.00    +0.030 A 
ATOM     31  C   UNL     1     -11.055  -6.648  16.189  0.00  0.00    +0.022 A 
ATOM     32  C   UNL     1     -13.056  -7.975  15.917  0.00  0.00    +0.022 A 
ATOM     34  C   UNL     1     -11.842  -7.739  16.560  0.00  0.00    +0.041 A 
ENDBRANCH   2  25
ENDBRANCH  11   2
ENDBRANCH  18  11
ENDBRANCH  13  18
BRANCH  15  21
ATOM     21  C   UNL     1     -14.120  -2.996   9.427  0.00  0.00    +0.190 C 
BRANCH  21   5
ATOM      5  O   UNL     1     -14.196  -3.109  10.839  0.00  0.00    -0.392 OA
ATOM     37  H   UNL     1     -13.389  -3.563  11.133  0.00  0.00    +0.210 HD
ENDBRANCH  21   5
ENDBRANCH  15  21
TORSDOF 10
ENDMDL
MODEL 10
REMARK VINA RESULT:      -6.0      5.750     10.057
REMARK  Name = 28961981
REMARK  11 active torsions:
REMARK  status: ('A' for Active; 'I' for Inactive)
REMARK    1  A    between atoms: S_2  and  N_11
REMARK    2  A    between atoms: S_2  and  C_25
REMARK    3  A    between atoms: O_4  and  C_14
REMARK    4  A    between atoms: O_5  and  C_21
REMARK    5  A    between atoms: O_8  and  C_23
REMARK    6  A    between atoms: O_8  and  C_33
REMARK    7  A    between atoms: N_9  and  C_12
REMARK    8  A    between atoms: N_10  and  C_22
REMARK    9  A    between atoms: N_11  and  C_18
REMARK   10  A    between atoms: C_13  and  C_18
REMARK   11  A    between atoms: C_15  and  C_21
REMARK                            x       y       z     vdW  Elec       q    Type
REMARK                         _______ _______ _______ _____ _____    ______ ____
ROOT
ATOM      3  O   UNL     1      18.183   9.360  21.029  0.00  0.00    -0.366 OA
ATOM     12  C   UNL     1      20.093   7.968  21.316  0.00  0.00    +0.118 C 
ATOM     13  C   UNL     1      18.653   8.015  20.785  0.00  0.00    +0.154 C 
ATOM     14  C   UNL     1      20.102   9.053  22.382  0.00  0.00    +0.165 C 
ATOM     15  C   UNL     1      19.206  10.097  21.727  0.00  0.00    +0.174 C 
ENDROOT
BRANCH  12   9
ATOM      9  N   UNL     1      20.573   6.668  21.751  0.00  0.00    -0.292 NA
ATOM     10  N   UNL     1      22.347   4.430  21.808  0.00  0.00    -0.325 N 
ATOM     16  C   UNL     1      20.626   5.733  20.619  0.00  0.00    +0.104 C 
ATOM     17  C   UNL     1      21.903   6.788  22.361  0.00  0.00    +0.104 C 
ATOM     19  C   UNL     1      21.077   4.344  21.076  0.00  0.00    +0.120 C 
ATOM     20  C   UNL     1      22.397   5.434  22.874  0.00  0.00    +0.120 C 
BRANCH  10  22
ATOM     22  C   UNL     1      23.129   3.273  21.905  0.00  0.00    +0.072 A 
ATOM     23  C   UNL     1      23.083   2.479  23.052  0.00  0.00    +0.141 A 
ATOM     24  C   UNL     1      23.961   2.917  20.843  0.00  0.00    +0.027 A 
ATOM     26  C   UNL     1      23.868   1.330  23.136  0.00  0.00    +0.047 A 
ATOM     27  C   UNL     1      24.746   1.767  20.927  0.00  0.00    +0.002 A 
ATOM     28  C   UNL     1      24.699   0.973  22.073  0.00  0.00    +0.004 A 
BRANCH  23   8
ATOM      8  O   UNL     1      22.277   2.809  24.100  0.00  0.00    -0.493 OA
ATOM     33  C   UNL     1      22.850   2.738  25.404  0.00  0.00    +0.277 C 
ENDBRANCH  23   8
ENDBRANCH  10  22
ENDBRANCH  12   9
BRANCH  14   4
ATOM      4  O   UNL     1      19.522   8.594  23.596  0.00  0.00    -0.388 OA
ATOM     35  H   UNL     1      20.130   7.942  23.984  0.00  0.00    +0.210 HD
ENDBRANCH  14   4
BRANCH  13  18
ATOM     18  C   UNL     1      17.655   7.063  21.431  0.00  0.00    +0.139 C 
BRANCH  18  11
ATOM     11  N   UNL     1      16.291   7.596  21.264  0.00  0.00    -0.187 NA
ATOM     36  H   UNL     1      15.877   8.035  22.095  0.00  0.00    +0.148 HD
BRANCH  11   2
ATOM      2  S   UNL     1      15.248   6.924  20.099  0.00  0.00    +0.058 S 
ATOM      6  O   UNL     1      14.000   6.544  20.733  0.00  0.00    -0.153 OA
ATOM      7  O   UNL     1      15.984   5.962  19.302  0.00  0.00    -0.153 OA
BRANCH   2  25
ATOM      1 CL   UNL     1      14.104  11.870  16.403  0.00  0.00    -0.084 Cl
ATOM     25  C   UNL     1      14.926   8.317  19.057  0.00  0.00    +0.105 A 
ATOM     29  C   UNL     1      15.203   9.606  19.513  0.00  0.00    +0.030 A 
ATOM     30  C   UNL     1      14.395   8.127  17.782  0.00  0.00    +0.030 A 
ATOM     31  C   UNL     1      14.949  10.705  18.692  0.00  0.00    +0.022 A 
ATOM     32  C   UNL     1      14.141   9.225  16.961  0.00  0.00    +0.022 A 
ATOM     34  C   UNL     1      14.417  10.514  17.417  0.00  0.00    +0.041 A 
ENDBRANCH   2  25
ENDBRANCH  11   2
ENDBRANCH  18  11
ENDBRANCH  13  18
BRANCH  15  21
ATOM     21  C   UNL     1      18.551  11.084  22.677  0.00  0.00    +0.190 C 
BRANCH  21   5
ATOM      5  O   UNL     1      17.198  10.704  22.873  0.00  0.00    -0.392 OA
ATOM     37  H   UNL     1      17.167  10.171  23.685  0.00  0.00    +0.210 HD
ENDBRANCH  21   5
ENDBRANCH  15  21
TORSDOF 10
ENDMDL
