MODEL 1
REMARK VINA RESULT:      -6.3      0.000      0.000
REMARK  Name = 26744604
REMARK  7 active torsions:
REMARK  status: ('A' for Active; 'I' for Inactive)
REMARK    1  A    between atoms: O_3  and  C_10
REMARK    2  A    between atoms: N_5  and  C_12
REMARK    3  A    between atoms: C_8  and  C_13
REMARK    4  A    between atoms: C_12  and  C_14
REMARK    5  A    between atoms: C_12  and  C_15
REMARK    6  A    between atoms: C_16  and  C_17
REMARK    7  A    between atoms: C_17  and  C_18
REMARK                            x       y       z     vdW  Elec       q    Type
REMARK                         _______ _______ _______ _____ _____    ______ ____
ROOT
ATOM      4  O   UNL     1      11.239   3.647   2.414  0.00  0.00    -0.336 OA
ATOM      6  N   UNL     1      12.557   5.458   2.440  0.00  0.00    -0.194 NA
ATOM      7  N   UNL     1      10.538   4.628   3.126  0.00  0.00    -0.061 NA
ATOM     13  C   UNL     1      12.417   4.217   2.047  0.00  0.00    +0.245 A 
ATOM     16  C   UNL     1      11.379   5.666   3.097  0.00  0.00    +0.176 A 
ENDROOT
BRANCH  13   8
ATOM      5  N   UNL     1      13.462   3.610  -0.197  0.00  0.00    -0.286 NA
ATOM      8  C   UNL     1      13.374   3.344   1.247  0.00  0.00    +0.149 C 
ATOM      9  C   UNL     1      14.848   3.456   1.665  0.00  0.00    +0.061 C 
ATOM     10  C   UNL     1      15.489   4.419   0.662  0.00  0.00    +0.130 C 
ATOM     11  C   UNL     1      14.426   4.688  -0.398  0.00  0.00    +0.116 C 
BRANCH   5  12
ATOM     12  C   UNL     1      12.208   3.808  -0.901  0.00  0.00    +0.051 C 
ATOM     14  C   UNL     1      11.985   2.686  -1.911  0.00  0.00    +0.024 C 
ATOM     15  C   UNL     1      12.221   5.170  -1.587  0.00  0.00    +0.024 C 
ENDBRANCH   5  12
BRANCH  10   3
ATOM      3  O   UNL     1      16.632   3.803   0.083  0.00  0.00    -0.390 OA
ATOM     24  H   UNL     1      16.385   3.518  -0.815  0.00  0.00    +0.210 HD
ENDBRANCH  10   3
ENDBRANCH  13   8
BRANCH  16  17
ATOM     17  C   UNL     1      11.054   6.948   3.732  0.00  0.00    +0.116 C 
BRANCH  17  18
ATOM      1 CL   UNL     1       8.081   7.773   3.998  0.00  0.00    -0.083 Cl
ATOM      2  F   UNL     1       8.693   6.482   8.848  0.00  0.00    -0.205 F 
ATOM     18  C   UNL     1      10.389   6.834   5.100  0.00  0.00    -0.021 A 
ATOM     19  C   UNL     1       9.053   7.187   5.297  0.00  0.00    +0.047 A 
ATOM     20  C   UNL     1      11.151   6.362   6.169  0.00  0.00    +0.008 A 
ATOM     21  C   UNL     1       8.480   7.068   6.563  0.00  0.00    +0.058 A 
ATOM     22  C   UNL     1      10.577   6.244   7.436  0.00  0.00    +0.039 A 
ATOM     23  C   UNL     1       9.242   6.597   7.632  0.00  0.00    +0.125 A 
ENDBRANCH  17  18
ENDBRANCH  16  17
TORSDOF 5
ENDMDL
MODEL 2
REMARK VINA RESULT:      -5.9     24.006     26.581
REMARK  Name = 26744604
REMARK  7 active torsions:
REMARK  status: ('A' for Active; 'I' for Inactive)
REMARK    1  A    between atoms: O_3  and  C_10
REMARK    2  A    between atoms: N_5  and  C_12
REMARK    3  A    between atoms: C_8  and  C_13
REMARK    4  A    between atoms: C_12  and  C_14
REMARK    5  A    between atoms: C_12  and  C_15
REMARK    6  A    between atoms: C_16  and  C_17
REMARK    7  A    between atoms: C_17  and  C_18
REMARK                            x       y       z     vdW  Elec       q    Type
REMARK                         _______ _______ _______ _____ _____    ______ ____
ROOT
ATOM      4  O   UNL     1      -2.833 -10.546  16.462  0.00  0.00    -0.336 OA
ATOM      6  N   UNL     1      -3.623 -12.157  15.123  0.00  0.00    -0.194 NA
ATOM      7  N   UNL     1      -1.994 -10.565  15.341  0.00  0.00    -0.061 NA
ATOM     13  C   UNL     1      -3.763 -11.513  16.254  0.00  0.00    +0.245 A 
ATOM     16  C   UNL     1      -2.525 -11.540  14.597  0.00  0.00    +0.176 A 
ENDROOT
BRANCH  13   8
ATOM      5  N   UNL     1      -6.192 -11.321  17.005  0.00  0.00    -0.286 NA
ATOM      8  C   UNL     1      -4.810 -11.696  17.345  0.00  0.00    +0.149 C 
ATOM      9  C   UNL     1      -4.998 -13.145  17.819  0.00  0.00    +0.061 C 
ATOM     10  C   UNL     1      -6.232 -13.665  17.076  0.00  0.00    +0.130 C 
ATOM     11  C   UNL     1      -6.818 -12.462  16.343  0.00  0.00    +0.116 C 
BRANCH   5  12
ATOM     12  C   UNL     1      -6.371 -10.065  16.299  0.00  0.00    +0.051 C 
ATOM     14  C   UNL     1      -7.454  -9.228  16.975  0.00  0.00    +0.024 C 
ATOM     15  C   UNL     1      -6.726 -10.348  14.843  0.00  0.00    +0.024 C 
ENDBRANCH   5  12
BRANCH  10   3
ATOM      3  O   UNL     1      -7.163 -14.183  18.016  0.00  0.00    -0.390 OA
ATOM     24  H   UNL     1      -6.721 -14.203  18.883  0.00  0.00    +0.210 HD
ENDBRANCH  10   3
ENDBRANCH  13   8
BRANCH  16  17
ATOM     17  C   UNL     1      -1.962 -11.921  13.297  0.00  0.00    +0.116 C 
BRANCH  17  18
ATOM      1 CL   UNL     1      -4.501 -12.877  11.805  0.00  0.00    -0.083 Cl
ATOM      2  F   UNL     1      -3.729  -8.784   8.938  0.00  0.00    -0.205 F 
ATOM     18  C   UNL     1      -2.463 -11.096  12.116  0.00  0.00    -0.021 A 
ATOM     19  C   UNL     1      -3.600 -11.463  11.396  0.00  0.00    +0.047 A 
ATOM     20  C   UNL     1      -1.755  -9.947  11.763  0.00  0.00    +0.008 A 
ATOM     21  C   UNL     1      -4.028 -10.683  10.322  0.00  0.00    +0.058 A 
ATOM     22  C   UNL     1      -2.182  -9.167  10.688  0.00  0.00    +0.039 A 
ATOM     23  C   UNL     1      -3.319  -9.535   9.969  0.00  0.00    +0.125 A 
ENDBRANCH  17  18
ENDBRANCH  16  17
TORSDOF 5
ENDMDL
MODEL 3
REMARK VINA RESULT:      -5.8      3.827      7.568
REMARK  Name = 26744604
REMARK  7 active torsions:
REMARK  status: ('A' for Active; 'I' for Inactive)
REMARK    1  A    between atoms: O_3  and  C_10
REMARK    2  A    between atoms: N_5  and  C_12
REMARK    3  A    between atoms: C_8  and  C_13
REMARK    4  A    between atoms: C_12  and  C_14
REMARK    5  A    between atoms: C_12  and  C_15
REMARK    6  A    between atoms: C_16  and  C_17
REMARK    7  A    between atoms: C_17  and  C_18
REMARK                            x       y       z     vdW  Elec       q    Type
REMARK                         _______ _______ _______ _____ _____    ______ ____
ROOT
ATOM      4  O   UNL     1      10.187   6.022   2.983  0.00  0.00    -0.336 OA
ATOM      6  N   UNL     1      10.919   3.981   3.542  0.00  0.00    -0.194 NA
ATOM      7  N   UNL     1      10.619   5.425   1.793  0.00  0.00    -0.061 NA
ATOM     13  C   UNL     1      10.399   5.106   3.964  0.00  0.00    +0.245 A 
ATOM     16  C   UNL     1      11.036   4.223   2.204  0.00  0.00    +0.176 A 
ENDROOT
BRANCH  13   8
ATOM      5  N   UNL     1      10.633   6.737   5.909  0.00  0.00    -0.286 NA
ATOM      8  C   UNL     1      10.004   5.518   5.375  0.00  0.00    +0.149 C 
ATOM      9  C   UNL     1       8.514   5.843   5.557  0.00  0.00    +0.061 C 
ATOM     10  C   UNL     1       8.413   7.369   5.491  0.00  0.00    +0.130 C 
ATOM     11  C   UNL     1       9.848   7.883   5.456  0.00  0.00    +0.116 C 
BRANCH   5  12
ATOM     12  C   UNL     1      12.060   6.883   5.691  0.00  0.00    +0.051 C 
ATOM     14  C   UNL     1      12.809   6.799   7.018  0.00  0.00    +0.024 C 
ATOM     15  C   UNL     1      12.334   8.210   4.990  0.00  0.00    +0.024 C 
ENDBRANCH   5  12
BRANCH  10   3
ATOM      3  O   UNL     1       7.737   7.846   6.648  0.00  0.00    -0.390 OA
ATOM     24  H   UNL     1       8.149   7.423   7.421  0.00  0.00    +0.210 HD
ENDBRANCH  10   3
ENDBRANCH  13   8
BRANCH  16  17
ATOM     17  C   UNL     1      11.582   3.229   1.275  0.00  0.00    +0.116 C 
BRANCH  17  18
ATOM      1 CL   UNL     1      11.924   4.006  -1.704  0.00  0.00    -0.083 Cl
ATOM      2  F   UNL     1      16.826   4.348  -0.518  0.00  0.00    -0.205 F 
ATOM     18  C   UNL     1      12.985   3.537   0.761  0.00  0.00    -0.021 A 
ATOM     19  C   UNL     1      13.217   3.893  -0.568  0.00  0.00    +0.047 A 
ATOM     20  C   UNL     1      14.051   3.454   1.657  0.00  0.00    +0.008 A 
ATOM     21  C   UNL     1      14.514   4.168  -1.000  0.00  0.00    +0.058 A 
ATOM     22  C   UNL     1      15.349   3.728   1.225  0.00  0.00    +0.039 A 
ATOM     23  C   UNL     1      15.580   4.085  -0.104  0.00  0.00    +0.125 A 
ENDBRANCH  17  18
ENDBRANCH  16  17
TORSDOF 5
ENDMDL
MODEL 4
REMARK VINA RESULT:      -5.7      2.170      2.961
REMARK  Name = 26744604
REMARK  7 active torsions:
REMARK  status: ('A' for Active; 'I' for Inactive)
REMARK    1  A    between atoms: O_3  and  C_10
REMARK    2  A    between atoms: N_5  and  C_12
REMARK    3  A    between atoms: C_8  and  C_13
REMARK    4  A    between atoms: C_12  and  C_14
REMARK    5  A    between atoms: C_12  and  C_15
REMARK    6  A    between atoms: C_16  and  C_17
REMARK    7  A    between atoms: C_17  and  C_18
REMARK                            x       y       z     vdW  Elec       q    Type
REMARK                         _______ _______ _______ _____ _____    ______ ____
ROOT
ATOM      4  O   UNL     1      12.868   6.848   3.914  0.00  0.00    -0.336 OA
ATOM      6  N   UNL     1      11.067   6.163   2.773  0.00  0.00    -0.194 NA
ATOM      7  N   UNL     1      11.828   6.758   4.847  0.00  0.00    -0.061 NA
ATOM     13  C   UNL     1      12.336   6.482   2.719  0.00  0.00    +0.245 A 
ATOM     16  C   UNL     1      10.800   6.348   4.098  0.00  0.00    +0.176 A 
ENDROOT
BRANCH  13   8
ATOM      5  N   UNL     1      13.504   5.206   0.847  0.00  0.00    -0.286 NA
ATOM      8  C   UNL     1      13.278   6.493   1.523  0.00  0.00    +0.149 C 
ATOM      9  C   UNL     1      12.818   7.373   0.351  0.00  0.00    +0.061 C 
ATOM     10  C   UNL     1      12.166   6.417  -0.652  0.00  0.00    +0.130 C 
ATOM     11  C   UNL     1      12.428   5.011  -0.122  0.00  0.00    +0.116 C 
BRANCH   5  12
ATOM     12  C   UNL     1      13.740   4.055   1.699  0.00  0.00    +0.051 C 
ATOM     14  C   UNL     1      15.169   3.551   1.523  0.00  0.00    +0.024 C 
ATOM     15  C   UNL     1      12.728   2.963   1.368  0.00  0.00    +0.024 C 
ENDBRANCH   5  12
BRANCH  10   3
ATOM      3  O   UNL     1      12.769   6.592  -1.928  0.00  0.00    -0.390 OA
ATOM     24  H   UNL     1      12.474   5.857  -2.493  0.00  0.00    +0.210 HD
ENDBRANCH  10   3
ENDBRANCH  13   8
BRANCH  16  17
ATOM     17  C   UNL     1       9.469   6.110   4.668  0.00  0.00    +0.116 C 
BRANCH  17  18
ATOM      1 CL   UNL     1       8.467   8.354   6.554  0.00  0.00    -0.083 Cl
ATOM      2  F   UNL     1       9.459   5.010  10.214  0.00  0.00    -0.205 F 
ATOM     18  C   UNL     1       9.455   5.844   6.170  0.00  0.00    -0.021 A 
ATOM     19  C   UNL     1       9.017   6.806   7.081  0.00  0.00    +0.047 A 
ATOM     20  C   UNL     1       9.894   4.601   6.626  0.00  0.00    +0.008 A 
ATOM     21  C   UNL     1       9.018   6.525   8.447  0.00  0.00    +0.058 A 
ATOM     22  C   UNL     1       9.895   4.319   7.992  0.00  0.00    +0.039 A 
ATOM     23  C   UNL     1       9.458   5.282   8.902  0.00  0.00    +0.125 A 
ENDBRANCH  17  18
ENDBRANCH  16  17
TORSDOF 5
ENDMDL
MODEL 5
REMARK VINA RESULT:      -5.7     23.784     26.241
REMARK  Name = 26744604
REMARK  7 active torsions:
REMARK  status: ('A' for Active; 'I' for Inactive)
REMARK    1  A    between atoms: O_3  and  C_10
REMARK    2  A    between atoms: N_5  and  C_12
REMARK    3  A    between atoms: C_8  and  C_13
REMARK    4  A    between atoms: C_12  and  C_14
REMARK    5  A    between atoms: C_12  and  C_15
REMARK    6  A    between atoms: C_16  and  C_17
REMARK    7  A    between atoms: C_17  and  C_18
REMARK                            x       y       z     vdW  Elec       q    Type
REMARK                         _______ _______ _______ _____ _____    ______ ____
ROOT
ATOM      4  O   UNL     1      -2.593 -10.664  15.867  0.00  0.00    -0.336 OA
ATOM      6  N   UNL     1      -3.674 -10.745  13.907  0.00  0.00    -0.194 NA
ATOM      7  N   UNL     1      -1.606 -10.597  14.875  0.00  0.00    -0.061 NA
ATOM     13  C   UNL     1      -3.780 -10.750  15.212  0.00  0.00    +0.245 A 
ATOM     16  C   UNL     1      -2.322 -10.649  13.748  0.00  0.00    +0.176 A 
ENDROOT
BRANCH  13   8
ATOM      5  N   UNL     1      -5.568 -12.180  16.334  0.00  0.00    -0.286 NA
ATOM      8  C   UNL     1      -5.029 -10.834  16.078  0.00  0.00    +0.149 C 
ATOM      9  C   UNL     1      -4.857 -10.301  17.508  0.00  0.00    +0.061 C 
ATOM     10  C   UNL     1      -4.628 -11.537  18.384  0.00  0.00    +0.130 C 
ATOM     11  C   UNL     1      -4.852 -12.741  17.476  0.00  0.00    +0.116 C 
BRANCH   5  12
ATOM     12  C   UNL     1      -5.647 -13.076  15.195  0.00  0.00    +0.051 C 
ATOM     14  C   UNL     1      -7.075 -13.589  15.024  0.00  0.00    +0.024 C 
ATOM     15  C   UNL     1      -4.670 -14.231  15.390  0.00  0.00    +0.024 C 
ENDBRANCH   5  12
BRANCH  10   3
ATOM      3  O   UNL     1      -5.562 -11.534  19.455  0.00  0.00    -0.390 OA
ATOM     24  H   UNL     1      -5.070 -11.332  20.270  0.00  0.00    +0.210 HD
ENDBRANCH  10   3
ENDBRANCH  13   8
BRANCH  16  17
ATOM     17  C   UNL     1      -1.692 -10.605  12.424  0.00  0.00    +0.116 C 
BRANCH  17  18
ATOM      1 CL   UNL     1      -3.082 -13.201  11.465  0.00  0.00    -0.083 Cl
ATOM      2  F   UNL     1      -5.285 -10.158   8.081  0.00  0.00    -0.205 F 
ATOM     18  C   UNL     1      -2.666 -10.516  11.254  0.00  0.00    -0.021 A 
ATOM     19  C   UNL     1      -3.330 -11.643  10.766  0.00  0.00    +0.047 A 
ATOM     20  C   UNL     1      -2.888  -9.270  10.669  0.00  0.00    +0.008 A 
ATOM     21  C   UNL     1      -4.215 -11.523   9.695  0.00  0.00    +0.058 A 
ATOM     22  C   UNL     1      -3.772  -9.149   9.597  0.00  0.00    +0.039 A 
ATOM     23  C   UNL     1      -4.435 -10.275   9.110  0.00  0.00    +0.125 A 
ENDBRANCH  17  18
ENDBRANCH  16  17
TORSDOF 5
ENDMDL
MODEL 6
REMARK VINA RESULT:      -5.7     23.752     26.305
REMARK  Name = 26744604
REMARK  7 active torsions:
REMARK  status: ('A' for Active; 'I' for Inactive)
REMARK    1  A    between atoms: O_3  and  C_10
REMARK    2  A    between atoms: N_5  and  C_12
REMARK    3  A    between atoms: C_8  and  C_13
REMARK    4  A    between atoms: C_12  and  C_14
REMARK    5  A    between atoms: C_12  and  C_15
REMARK    6  A    between atoms: C_16  and  C_17
REMARK    7  A    between atoms: C_17  and  C_18
REMARK                            x       y       z     vdW  Elec       q    Type
REMARK                         _______ _______ _______ _____ _____    ______ ____
ROOT
ATOM      4  O   UNL     1      -2.659 -10.596  16.027  0.00  0.00    -0.336 OA
ATOM      6  N   UNL     1      -3.656 -11.996  14.592  0.00  0.00    -0.194 NA
ATOM      7  N   UNL     1      -1.916 -10.531  14.842  0.00  0.00    -0.061 NA
ATOM     13  C   UNL     1      -3.663 -11.481  15.796  0.00  0.00    +0.245 A 
ATOM     16  C   UNL     1      -2.567 -11.383  14.044  0.00  0.00    +0.176 A 
ENDROOT
BRANCH  13   8
ATOM      5  N   UNL     1      -6.036 -11.369  16.720  0.00  0.00    -0.286 NA
ATOM      8  C   UNL     1      -4.628 -11.731  16.947  0.00  0.00    +0.149 C 
ATOM      9  C   UNL     1      -4.758 -13.203  17.367  0.00  0.00    +0.061 C 
ATOM     10  C   UNL     1      -6.032 -13.714  16.688  0.00  0.00    +0.130 C 
ATOM     11  C   UNL     1      -6.688 -12.493  16.053  0.00  0.00    +0.116 C 
BRANCH   5  12
ATOM     12  C   UNL     1      -6.285 -10.087  16.086  0.00  0.00    +0.051 C 
ATOM     14  C   UNL     1      -7.314  -9.293  16.885  0.00  0.00    +0.024 C 
ATOM     15  C   UNL     1      -6.757 -10.314  14.654  0.00  0.00    +0.024 C 
ENDBRANCH   5  12
BRANCH  10   3
ATOM      3  O   UNL     1      -6.887 -14.292  17.667  0.00  0.00    -0.390 OA
ATOM     24  H   UNL     1      -6.446 -15.091  18.003  0.00  0.00    +0.210 HD
ENDBRANCH  10   3
ENDBRANCH  13   8
BRANCH  16  17
ATOM     17  C   UNL     1      -2.136 -11.641  12.666  0.00  0.00    +0.116 C 
BRANCH  17  18
ATOM      1 CL   UNL     1      -0.821  -9.142  11.393  0.00  0.00    -0.083 Cl
ATOM      2  F   UNL     1      -5.107  -8.885   8.723  0.00  0.00    -0.205 F 
ATOM     18  C   UNL     1      -2.913 -10.876  11.599  0.00  0.00    -0.021 A 
ATOM     19  C   UNL     1      -2.386  -9.741  10.981  0.00  0.00    +0.047 A 
ATOM     20  C   UNL     1      -4.181 -11.337  11.245  0.00  0.00    +0.008 A 
ATOM     21  C   UNL     1      -3.126  -9.068  10.009  0.00  0.00    +0.058 A 
ATOM     22  C   UNL     1      -4.922 -10.664  10.273  0.00  0.00    +0.039 A 
ATOM     23  C   UNL     1      -4.394  -9.530   9.656  0.00  0.00    +0.125 A 
ENDBRANCH  17  18
ENDBRANCH  16  17
TORSDOF 5
ENDMDL
MODEL 7
REMARK VINA RESULT:      -5.6     24.232     26.286
REMARK  Name = 26744604
REMARK  7 active torsions:
REMARK  status: ('A' for Active; 'I' for Inactive)
REMARK    1  A    between atoms: O_3  and  C_10
REMARK    2  A    between atoms: N_5  and  C_12
REMARK    3  A    between atoms: C_8  and  C_13
REMARK    4  A    between atoms: C_12  and  C_14
REMARK    5  A    between atoms: C_12  and  C_15
REMARK    6  A    between atoms: C_16  and  C_17
REMARK    7  A    between atoms: C_17  and  C_18
REMARK                            x       y       z     vdW  Elec       q    Type
REMARK                         _______ _______ _______ _____ _____    ______ ____
ROOT
ATOM      4  O   UNL     1      -3.908 -12.857  13.824  0.00  0.00    -0.336 OA
ATOM      6  N   UNL     1      -3.795 -10.641  14.126  0.00  0.00    -0.194 NA
ATOM      7  N   UNL     1      -3.788 -12.659  15.205  0.00  0.00    -0.061 NA
ATOM     13  C   UNL     1      -3.904 -11.620  13.263  0.00  0.00    +0.245 A 
ATOM     16  C   UNL     1      -3.727 -11.327  15.303  0.00  0.00    +0.176 A 
ENDROOT
BRANCH  13   8
ATOM      5  N   UNL     1      -5.283 -11.016  11.206  0.00  0.00    -0.286 NA
ATOM      8  C   UNL     1      -4.027 -11.560  11.747  0.00  0.00    +0.149 C 
ATOM      9  C   UNL     1      -2.988 -10.667  11.052  0.00  0.00    +0.061 C 
ATOM     10  C   UNL     1      -3.700  -9.338  10.783  0.00  0.00    +0.130 C 
ATOM     11  C   UNL     1      -5.161  -9.562  11.160  0.00  0.00    +0.116 C 
BRANCH   5  12
ATOM     12  C   UNL     1      -6.512 -11.481  11.823  0.00  0.00    +0.051 C 
ATOM     14  C   UNL     1      -7.349 -12.261  10.813  0.00  0.00    +0.024 C 
ATOM     15  C   UNL     1      -7.287 -10.286  12.370  0.00  0.00    +0.024 C 
ENDBRANCH   5  12
BRANCH  10   3
ATOM      3  O   UNL     1      -3.581  -9.012   9.404  0.00  0.00    -0.390 OA
ATOM     24  H   UNL     1      -3.267  -9.809   8.942  0.00  0.00    +0.210 HD
ENDBRANCH  10   3
ENDBRANCH  13   8
BRANCH  16  17
ATOM     17  C   UNL     1      -3.597 -10.649  16.598  0.00  0.00    +0.116 C 
BRANCH  17  18
ATOM      1 CL   UNL     1      -3.463 -12.066  19.348  0.00  0.00    -0.083 Cl
ATOM      2  F   UNL     1      -8.312 -10.685  19.718  0.00  0.00    -0.205 F 
ATOM     18  C   UNL     1      -4.854 -10.676  17.463  0.00  0.00    -0.021 A 
ATOM     19  C   UNL     1      -4.870 -11.295  18.713  0.00  0.00    +0.047 A 
ATOM     20  C   UNL     1      -6.007 -10.060  16.975  0.00  0.00    +0.008 A 
ATOM     21  C   UNL     1      -6.037 -11.298  19.475  0.00  0.00    +0.058 A 
ATOM     22  C   UNL     1      -7.175 -10.064  17.737  0.00  0.00    +0.039 A 
ATOM     23  C   UNL     1      -7.190 -10.683  18.987  0.00  0.00    +0.125 A 
ENDBRANCH  17  18
ENDBRANCH  16  17
TORSDOF 5
ENDMDL
MODEL 8
REMARK VINA RESULT:      -5.6     24.451     26.413
REMARK  Name = 26744604
REMARK  7 active torsions:
REMARK  status: ('A' for Active; 'I' for Inactive)
REMARK    1  A    between atoms: O_3  and  C_10
REMARK    2  A    between atoms: N_5  and  C_12
REMARK    3  A    between atoms: C_8  and  C_13
REMARK    4  A    between atoms: C_12  and  C_14
REMARK    5  A    between atoms: C_12  and  C_15
REMARK    6  A    between atoms: C_16  and  C_17
REMARK    7  A    between atoms: C_17  and  C_18
REMARK                            x       y       z     vdW  Elec       q    Type
REMARK                         _______ _______ _______ _____ _____    ______ ____
ROOT
ATOM      4  O   UNL     1      -5.975 -10.753  13.102  0.00  0.00    -0.336 OA
ATOM      6  N   UNL     1      -4.429 -10.949  14.710  0.00  0.00    -0.194 NA
ATOM      7  N   UNL     1      -6.450 -10.010  14.191  0.00  0.00    -0.061 NA
ATOM     13  C   UNL     1      -4.782 -11.272  13.492  0.00  0.00    +0.245 A 
ATOM     16  C   UNL     1      -5.483 -10.174  15.099  0.00  0.00    +0.176 A 
ENDROOT
BRANCH  13   8
ATOM      5  N   UNL     1      -2.811 -11.575  11.904  0.00  0.00    -0.286 NA
ATOM      8  C   UNL     1      -4.049 -12.132  12.471  0.00  0.00    +0.149 C 
ATOM      9  C   UNL     1      -3.555 -13.485  13.006  0.00  0.00    +0.061 C 
ATOM     10  C   UNL     1      -2.073 -13.282  13.335  0.00  0.00    +0.130 C 
ATOM     11  C   UNL     1      -1.716 -11.892  12.817  0.00  0.00    +0.116 C 
BRANCH   5  12
ATOM     12  C   UNL     1      -2.849 -10.182  11.498  0.00  0.00    +0.051 C 
ATOM     14  C   UNL     1      -3.555 -10.043  10.152  0.00  0.00    +0.024 C 
ATOM     15  C   UNL     1      -1.427  -9.634  11.431  0.00  0.00    +0.024 C 
ENDBRANCH   5  12
BRANCH  10   3
ATOM      3  O   UNL     1      -1.304 -14.277  12.673  0.00  0.00    -0.390 OA
ATOM     24  H   UNL     1      -0.393 -14.212  13.008  0.00  0.00    +0.210 HD
ENDBRANCH  10   3
ENDBRANCH  13   8
BRANCH  16  17
ATOM     17  C   UNL     1      -5.552  -9.557  16.428  0.00  0.00    +0.116 C 
BRANCH  17  18
ATOM      1 CL   UNL     1      -8.450  -8.931  17.324  0.00  0.00    -0.083 Cl
ATOM      2  F   UNL     1      -7.787 -12.863  20.433  0.00  0.00    -0.205 F 
ATOM     18  C   UNL     1      -6.183 -10.431  17.507  0.00  0.00    -0.021 A 
ATOM     19  C   UNL     1      -7.483 -10.210  17.962  0.00  0.00    +0.047 A 
ATOM     20  C   UNL     1      -5.425 -11.474  18.041  0.00  0.00    +0.008 A 
ATOM     21  C   UNL     1      -8.026 -11.031  18.950  0.00  0.00    +0.058 A 
ATOM     22  C   UNL     1      -5.967 -12.295  19.030  0.00  0.00    +0.039 A 
ATOM     23  C   UNL     1      -7.267 -12.073  19.484  0.00  0.00    +0.125 A 
ENDBRANCH  17  18
ENDBRANCH  16  17
TORSDOF 5
ENDMDL
MODEL 9
REMARK VINA RESULT:      -5.6     24.378     27.131
REMARK  Name = 26744604
REMARK  7 active torsions:
REMARK  status: ('A' for Active; 'I' for Inactive)
REMARK    1  A    between atoms: O_3  and  C_10
REMARK    2  A    between atoms: N_5  and  C_12
REMARK    3  A    between atoms: C_8  and  C_13
REMARK    4  A    between atoms: C_12  and  C_14
REMARK    5  A    between atoms: C_12  and  C_15
REMARK    6  A    between atoms: C_16  and  C_17
REMARK    7  A    between atoms: C_17  and  C_18
REMARK                            x       y       z     vdW  Elec       q    Type
REMARK                         _______ _______ _______ _____ _____    ______ ____
ROOT
ATOM      4  O   UNL     1      -5.957 -12.204  15.901  0.00  0.00    -0.336 OA
ATOM      6  N   UNL     1      -5.753 -10.424  14.557  0.00  0.00    -0.194 NA
ATOM      7  N   UNL     1      -5.805 -12.711  14.605  0.00  0.00    -0.061 NA
ATOM     13  C   UNL     1      -5.916 -10.851  15.784  0.00  0.00    +0.245 A 
ATOM     16  C   UNL     1      -5.690 -11.601  13.869  0.00  0.00    +0.176 A 
ENDROOT
BRANCH  13   8
ATOM      5  N   UNL     1      -7.414  -9.944  17.635  0.00  0.00    -0.286 NA
ATOM      8  C   UNL     1      -6.059 -10.052  17.072  0.00  0.00    +0.149 C 
ATOM      9  C   UNL     1      -5.280 -10.617  18.269  0.00  0.00    +0.061 C 
ATOM     10  C   UNL     1      -6.301 -11.407  19.091  0.00  0.00    +0.130 C 
ATOM     11  C   UNL     1      -7.658 -11.129  18.453  0.00  0.00    +0.116 C 
BRANCH   5  12
ATOM     12  C   UNL     1      -8.486  -9.646  16.703  0.00  0.00    +0.051 C 
ATOM     14  C   UNL     1      -9.189  -8.352  17.100  0.00  0.00    +0.024 C 
ATOM     15  C   UNL     1      -9.466 -10.814  16.667  0.00  0.00    +0.024 C 
ENDBRANCH   5  12
BRANCH  10   3
ATOM      3  O   UNL     1      -6.275 -10.951  20.437  0.00  0.00    -0.390 OA
ATOM     24  H   UNL     1      -6.488 -11.711  21.007  0.00  0.00    +0.210 HD
ENDBRANCH  10   3
ENDBRANCH  13   8
BRANCH  16  17
ATOM     17  C   UNL     1      -5.506 -11.648  12.414  0.00  0.00    +0.116 C 
BRANCH  17  18
ATOM      1 CL   UNL     1      -5.961  -9.500  10.230  0.00  0.00    -0.083 Cl
ATOM      2  F   UNL     1      -0.961  -8.833  10.573  0.00  0.00    -0.205 F 
ATOM     18  C   UNL     1      -4.299 -10.872  11.897  0.00  0.00    -0.021 A 
ATOM     19  C   UNL     1      -4.426  -9.889  10.914  0.00  0.00    +0.047 A 
ATOM     20  C   UNL     1      -3.044 -11.165  12.432  0.00  0.00    +0.008 A 
ATOM     21  C   UNL     1      -3.299  -9.200  10.467  0.00  0.00    +0.058 A 
ATOM     22  C   UNL     1      -1.917 -10.476  11.984  0.00  0.00    +0.039 A 
ATOM     23  C   UNL     1      -2.044  -9.495  11.002  0.00  0.00    +0.125 A 
ENDBRANCH  17  18
ENDBRANCH  16  17
TORSDOF 5
ENDMDL
MODEL 10
REMARK VINA RESULT:      -5.5      1.754      2.204
REMARK  Name = 26744604
REMARK  7 active torsions:
REMARK  status: ('A' for Active; 'I' for Inactive)
REMARK    1  A    between atoms: O_3  and  C_10
REMARK    2  A    between atoms: N_5  and  C_12
REMARK    3  A    between atoms: C_8  and  C_13
REMARK    4  A    between atoms: C_12  and  C_14
REMARK    5  A    between atoms: C_12  and  C_15
REMARK    6  A    between atoms: C_16  and  C_17
REMARK    7  A    between atoms: C_17  and  C_18
REMARK                            x       y       z     vdW  Elec       q    Type
REMARK                         _______ _______ _______ _____ _____    ______ ____
ROOT
ATOM      4  O   UNL     1      12.738   5.466   2.375  0.00  0.00    -0.336 OA
ATOM      6  N   UNL     1      11.338   3.775   2.818  0.00  0.00    -0.194 NA
ATOM      7  N   UNL     1      11.740   5.994   3.204  0.00  0.00    -0.061 NA
ATOM     13  C   UNL     1      12.426   4.156   2.196  0.00  0.00    +0.245 A 
ATOM     16  C   UNL     1      10.953   4.936   3.423  0.00  0.00    +0.176 A 
ENDROOT
BRANCH  13   8
ATOM      5  N   UNL     1      13.392   3.677  -0.113  0.00  0.00    -0.286 NA
ATOM      8  C   UNL     1      13.371   3.345   1.321  0.00  0.00    +0.149 C 
ATOM      9  C   UNL     1      14.858   3.480   1.684  0.00  0.00    +0.061 C 
ATOM     10  C   UNL     1      15.432   4.502   0.699  0.00  0.00    +0.130 C 
ATOM     11  C   UNL     1      14.320   4.789  -0.304  0.00  0.00    +0.116 C 
BRANCH   5  12
ATOM     12  C   UNL     1      12.106   3.871  -0.756  0.00  0.00    +0.051 C 
ATOM     14  C   UNL     1      11.919   2.858  -1.882  0.00  0.00    +0.024 C 
ATOM     15  C   UNL     1      12.012   5.300  -1.282  0.00  0.00    +0.024 C 
ENDBRANCH   5  12
BRANCH  10   3
ATOM      3  O   UNL     1      16.565   3.943   0.048  0.00  0.00    -0.390 OA
ATOM     24  H   UNL     1      16.707   3.056   0.422  0.00  0.00    +0.210 HD
ENDBRANCH  10   3
ENDBRANCH  13   8
BRANCH  16  17
ATOM     17  C   UNL     1       9.753   5.021   4.262  0.00  0.00    +0.116 C 
BRANCH  17  18
ATOM      1 CL   UNL     1      10.705   5.960   7.055  0.00  0.00    -0.083 Cl
ATOM      2  F   UNL     1       8.344  10.264   5.842  0.00  0.00    -0.205 F 
ATOM     18  C   UNL     1       9.388   6.431   4.717  0.00  0.00    -0.021 A 
ATOM     19  C   UNL     1       9.782   6.924   5.961  0.00  0.00    +0.047 A 
ATOM     20  C   UNL     1       8.642   7.233   3.853  0.00  0.00    +0.008 A 
ATOM     21  C   UNL     1       9.429   8.218   6.342  0.00  0.00    +0.058 A 
ATOM     22  C   UNL     1       8.289   8.528   4.233  0.00  0.00    +0.039 A 
ATOM     23  C   UNL     1       8.683   9.020   5.478  0.00  0.00    +0.125 A 
ENDBRANCH  17  18
ENDBRANCH  16  17
TORSDOF 5
ENDMDL
