MODEL 1
REMARK VINA RESULT:      -7.4      0.000      0.000
REMARK  Name = 7113944
REMARK  5 active torsions:
REMARK  status: ('A' for Active; 'I' for Inactive)
REMARK    1  A    between atoms: S_1  and  N_9
REMARK    2  A    between atoms: S_1  and  C_28
REMARK    3  A    between atoms: N_9  and  C_20
REMARK    4  A    between atoms: C_19  and  C_22
REMARK    5  A    between atoms: C_27  and  C_29
REMARK                            x       y       z     vdW  Elec       q    Type
REMARK                         _______ _______ _______ _____ _____    ______ ____
ROOT
ATOM      3  O   UNL     1     -10.626  -8.879  18.221  0.00  0.00    -0.266 OA
ATOM      4  O   UNL     1      -5.802 -10.388  19.366  0.00  0.00    -0.270 OA
ATOM      7  N   UNL     1      -6.981 -12.274  18.636  0.00  0.00    -0.297 N 
ATOM      8  N   UNL     1      -9.797 -11.040  17.855  0.00  0.00    -0.310 N 
ATOM     10  C   UNL     1      -9.174 -12.637  19.757  0.00  0.00    +0.027 C 
ATOM     11  C   UNL     1      -8.864 -13.340  17.418  0.00  0.00    +0.054 C 
ATOM     12  C   UNL     1      -9.497 -13.736  18.750  0.00  0.00    +0.018 C 
ATOM     13  C   UNL     1      -7.650 -12.488  19.919  0.00  0.00    +0.113 C 
ATOM     14  C   UNL     1      -9.836 -11.333  19.294  0.00  0.00    +0.130 C 
ATOM     15  C   UNL     1      -7.334 -13.239  17.583  0.00  0.00    +0.117 C 
ATOM     16  C   UNL     1      -9.413 -12.015  16.923  0.00  0.00    +0.027 A 
ATOM     17  C   UNL     1      -9.492 -11.766  15.604  0.00  0.00    +0.024 A 
ATOM     18  C   UNL     1     -10.260  -9.770  17.454  0.00  0.00    +0.274 A 
ATOM     19  C   UNL     1      -6.102 -11.198  18.490  0.00  0.00    +0.247 C 
ATOM     20  C   UNL     1     -10.303  -9.546  15.986  0.00  0.00    +0.112 A 
ATOM     21  C   UNL     1      -9.950 -10.493  15.116  0.00  0.00    +0.031 A 
ENDROOT
BRANCH  19  22
ATOM     22  C   UNL     1      -5.483 -10.989  17.177  0.00  0.00    +0.037 A 
ATOM     23  C   UNL     1      -6.181 -10.305  16.184  0.00  0.00    +0.013 A 
ATOM     24  C   UNL     1      -4.203 -11.476  16.928  0.00  0.00    +0.013 A 
ATOM     25  C   UNL     1      -5.593 -10.106  14.934  0.00  0.00    +0.009 A 
ATOM     26  C   UNL     1      -3.615 -11.277  15.680  0.00  0.00    +0.009 A 
ATOM     27  C   UNL     1      -4.309 -10.593  14.683  0.00  0.00    -0.018 A 
BRANCH  27  29
ATOM     29  C   UNL     1      -3.700 -10.386  13.387  0.00  0.00    -0.018 A 
ATOM     32  C   UNL     1      -2.316 -10.479  13.244  0.00  0.00    +0.008 A 
ATOM     33  C   UNL     1      -4.497 -10.091  12.281  0.00  0.00    +0.008 A 
ATOM     35  C   UNL     1      -1.729 -10.279  11.994  0.00  0.00    +0.001 A 
ATOM     36  C   UNL     1      -3.910  -9.892  11.031  0.00  0.00    +0.001 A 
ATOM     37  C   UNL     1      -2.525  -9.986  10.888  0.00  0.00    +0.000 A 
ENDBRANCH  27  29
ENDBRANCH  19  22
BRANCH  20   9
ATOM      9  N   UNL     1     -10.733  -8.311  15.471  0.00  0.00    -0.211 N 
ATOM     38  H   UNL     1     -10.298  -7.494  15.921  0.00  0.00    +0.174 HD
BRANCH   9   1
ATOM      1  S   UNL     1     -12.382  -8.153  15.124  0.00  0.00    +0.079 S 
ATOM      5  O   UNL     1     -12.828  -9.288  14.340  0.00  0.00    -0.149 OA
ATOM      6  O   UNL     1     -13.098  -7.770  16.326  0.00  0.00    -0.149 OA
BRANCH   1  28
ATOM      2  S   UNL     1     -12.653  -7.106  12.409  0.00  0.00    -0.077 S 
ATOM     28  C   UNL     1     -12.359  -6.747  14.053  0.00  0.00    +0.146 A 
ATOM     30  C   UNL     1     -12.152  -5.411  14.272  0.00  0.00    +0.036 A 
ATOM     31  C   UNL     1     -12.235  -4.658  13.065  0.00  0.00    +0.010 A 
ATOM     34  C   UNL     1     -12.503  -5.456  11.975  0.00  0.00    +0.047 A 
ENDBRANCH   1  28
ENDBRANCH   9   1
ENDBRANCH  20   9
TORSDOF 5
ENDMDL
MODEL 2
REMARK VINA RESULT:      -7.4      3.786      7.043
REMARK  Name = 7113944
REMARK  5 active torsions:
REMARK  status: ('A' for Active; 'I' for Inactive)
REMARK    1  A    between atoms: S_1  and  N_9
REMARK    2  A    between atoms: S_1  and  C_28
REMARK    3  A    between atoms: N_9  and  C_20
REMARK    4  A    between atoms: C_19  and  C_22
REMARK    5  A    between atoms: C_27  and  C_29
REMARK                            x       y       z     vdW  Elec       q    Type
REMARK                         _______ _______ _______ _____ _____    ______ ____
ROOT
ATOM      3  O   UNL     1      -4.483  -9.923  16.436  0.00  0.00    -0.266 OA
ATOM      4  O   UNL     1      -1.848  -9.707  11.979  0.00  0.00    -0.270 OA
ATOM      7  N   UNL     1      -2.867 -11.810  12.100  0.00  0.00    -0.297 N 
ATOM      8  N   UNL     1      -4.520 -11.598  14.799  0.00  0.00    -0.310 N 
ATOM     10  C   UNL     1      -2.482 -13.040  14.230  0.00  0.00    +0.027 C 
ATOM     11  C   UNL     1      -4.589 -13.359  12.996  0.00  0.00    +0.054 C 
ATOM     12  C   UNL     1      -3.514 -14.081  13.806  0.00  0.00    +0.018 C 
ATOM     13  C   UNL     1      -1.854 -12.371  12.993  0.00  0.00    +0.113 C 
ATOM     14  C   UNL     1      -3.160 -12.021  15.155  0.00  0.00    +0.130 C 
ATOM     15  C   UNL     1      -3.955 -12.733  11.738  0.00  0.00    +0.117 C 
ATOM     16  C   UNL     1      -5.262 -12.278  13.821  0.00  0.00    +0.027 A 
ATOM     17  C   UNL     1      -6.545 -11.948  13.588  0.00  0.00    +0.024 A 
ATOM     18  C   UNL     1      -5.076 -10.546  15.556  0.00  0.00    +0.274 A 
ATOM     19  C   UNL     1      -2.755 -10.483  11.680  0.00  0.00    +0.247 C 
ATOM     20  C   UNL     1      -6.487 -10.214  15.236  0.00  0.00    +0.112 A 
ATOM     21  C   UNL     1      -7.181 -10.884  14.314  0.00  0.00    +0.031 A 
ENDROOT
BRANCH  19  22
ATOM     22  C   UNL     1      -3.813  -9.941  10.820  0.00  0.00    +0.037 A 
ATOM     23  C   UNL     1      -4.917  -9.316  11.392  0.00  0.00    +0.013 A 
ATOM     24  C   UNL     1      -3.708 -10.057   9.436  0.00  0.00    +0.013 A 
ATOM     25  C   UNL     1      -5.924  -8.802  10.574  0.00  0.00    +0.009 A 
ATOM     26  C   UNL     1      -4.713  -9.543   8.619  0.00  0.00    +0.009 A 
ATOM     27  C   UNL     1      -5.821  -8.915   9.187  0.00  0.00    -0.018 A 
BRANCH  27  29
ATOM     29  C   UNL     1      -6.865  -8.381   8.340  0.00  0.00    -0.018 A 
ATOM     32  C   UNL     1      -7.628  -7.297   8.771  0.00  0.00    +0.008 A 
ATOM     33  C   UNL     1      -7.110  -8.953   7.091  0.00  0.00    +0.008 A 
ATOM     35  C   UNL     1      -8.635  -6.783   7.953  0.00  0.00    +0.001 A 
ATOM     36  C   UNL     1      -8.116  -8.438   6.273  0.00  0.00    +0.001 A 
ATOM     37  C   UNL     1      -8.879  -7.353   6.704  0.00  0.00    +0.000 A 
ENDBRANCH  27  29
ENDBRANCH  19  22
BRANCH  20   9
ATOM      9  N   UNL     1      -7.141  -9.171  15.916  0.00  0.00    -0.211 N 
ATOM     38  H   UNL     1      -6.504  -8.466  16.313  0.00  0.00    +0.174 HD
BRANCH   9   1
ATOM      1  S   UNL     1      -8.453  -9.595  16.897  0.00  0.00    +0.079 S 
ATOM      5  O   UNL     1      -8.971  -8.413  17.558  0.00  0.00    -0.149 OA
ATOM      6  O   UNL     1      -9.346 -10.472  16.165  0.00  0.00    -0.149 OA
BRANCH   1  28
ATOM      2  S   UNL     1      -8.177 -12.194  18.206  0.00  0.00    -0.077 S 
ATOM     28  C   UNL     1      -7.642 -10.574  18.126  0.00  0.00    +0.146 A 
ATOM     30  C   UNL     1      -6.659 -10.297  19.040  0.00  0.00    +0.036 A 
ATOM     31  C   UNL     1      -6.333 -11.438  19.828  0.00  0.00    +0.010 A 
ATOM     34  C   UNL     1      -7.084 -12.539  19.479  0.00  0.00    +0.047 A 
ENDBRANCH   1  28
ENDBRANCH   9   1
ENDBRANCH  20   9
TORSDOF 5
ENDMDL
MODEL 3
REMARK VINA RESULT:      -7.3     21.619     24.455
REMARK  Name = 7113944
REMARK  5 active torsions:
REMARK  status: ('A' for Active; 'I' for Inactive)
REMARK    1  A    between atoms: S_1  and  N_9
REMARK    2  A    between atoms: S_1  and  C_28
REMARK    3  A    between atoms: N_9  and  C_20
REMARK    4  A    between atoms: C_19  and  C_22
REMARK    5  A    between atoms: C_27  and  C_29
REMARK                            x       y       z     vdW  Elec       q    Type
REMARK                         _______ _______ _______ _____ _____    ______ ____
ROOT
ATOM      3  O   UNL     1       5.888 -10.447  34.649  0.00  0.00    -0.266 OA
ATOM      4  O   UNL     1      10.229 -12.775  33.039  0.00  0.00    -0.270 OA
ATOM      7  N   UNL     1       8.889 -12.393  31.158  0.00  0.00    -0.297 N 
ATOM      8  N   UNL     1       6.423 -10.832  32.401  0.00  0.00    -0.310 N 
ATOM     10  C   UNL     1       6.535 -13.175  31.373  0.00  0.00    +0.027 C 
ATOM     11  C   UNL     1       7.049 -11.206  29.988  0.00  0.00    +0.054 C 
ATOM     12  C   UNL     1       6.189 -12.465  30.068  0.00  0.00    +0.018 C 
ATOM     13  C   UNL     1       8.028 -13.551  31.401  0.00  0.00    +0.113 C 
ATOM     14  C   UNL     1       6.146 -12.267  32.547  0.00  0.00    +0.130 C 
ATOM     15  C   UNL     1       8.540 -11.598  29.970  0.00  0.00    +0.117 C 
ATOM     16  C   UNL     1       6.778 -10.282  31.160  0.00  0.00    +0.027 A 
ATOM     17  C   UNL     1       6.916  -8.951  31.020  0.00  0.00    +0.024 A 
ATOM     18  C   UNL     1       6.215 -10.027  33.539  0.00  0.00    +0.274 A 
ATOM     19  C   UNL     1       9.932 -12.114  32.045  0.00  0.00    +0.247 C 
ATOM     20  C   UNL     1       6.406  -8.569  33.327  0.00  0.00    +0.112 A 
ATOM     21  C   UNL     1       6.726  -8.064  32.135  0.00  0.00    +0.031 A 
ENDROOT
BRANCH  19  22
ATOM     22  C   UNL     1      10.747 -10.921  31.794  0.00  0.00    +0.037 A 
ATOM     23  C   UNL     1      11.922 -11.028  31.055  0.00  0.00    +0.013 A 
ATOM     24  C   UNL     1      10.342  -9.687  32.297  0.00  0.00    +0.013 A 
ATOM     25  C   UNL     1      12.698  -9.893  30.817  0.00  0.00    +0.009 A 
ATOM     26  C   UNL     1      11.117  -8.553  32.058  0.00  0.00    +0.009 A 
ATOM     27  C   UNL     1      12.295  -8.655  31.319  0.00  0.00    -0.018 A 
BRANCH  27  29
ATOM     29  C   UNL     1      13.099  -7.478  31.071  0.00  0.00    -0.018 A 
ATOM     32  C   UNL     1      13.035  -6.393  31.944  0.00  0.00    +0.008 A 
ATOM     33  C   UNL     1      13.939  -7.430  29.958  0.00  0.00    +0.008 A 
ATOM     35  C   UNL     1      13.811  -5.258  31.704  0.00  0.00    +0.001 A 
ATOM     36  C   UNL     1      14.715  -6.295  29.719  0.00  0.00    +0.001 A 
ATOM     37  C   UNL     1      14.651  -5.209  30.592  0.00  0.00    +0.000 A 
ENDBRANCH  27  29
ENDBRANCH  19  22
BRANCH  20   9
ATOM      9  N   UNL     1       6.240  -7.671  34.395  0.00  0.00    -0.211 N 
ATOM     38  H   UNL     1       5.805  -6.777  34.127  0.00  0.00    +0.174 HD
BRANCH   9   1
ATOM      1  S   UNL     1       7.511  -7.551  35.506  0.00  0.00    +0.079 S 
ATOM      5  O   UNL     1       7.018  -7.007  36.757  0.00  0.00    -0.149 OA
ATOM      6  O   UNL     1       8.282  -8.780  35.499  0.00  0.00    -0.149 OA
BRANCH   1  28
ATOM      2  S   UNL     1       7.620  -4.963  34.151  0.00  0.00    -0.077 S 
ATOM     28  C   UNL     1       8.501  -6.303  34.740  0.00  0.00    +0.146 A 
ATOM     30  C   UNL     1       9.848  -6.186  34.519  0.00  0.00    +0.036 A 
ATOM     31  C   UNL     1      10.171  -4.970  33.850  0.00  0.00    +0.010 A 
ATOM     34  C   UNL     1       9.051  -4.211  33.590  0.00  0.00    +0.047 A 
ENDBRANCH   1  28
ENDBRANCH   9   1
ENDBRANCH  20   9
TORSDOF 5
ENDMDL
MODEL 4
REMARK VINA RESULT:      -7.1     27.210     30.621
REMARK  Name = 7113944
REMARK  5 active torsions:
REMARK  status: ('A' for Active; 'I' for Inactive)
REMARK    1  A    between atoms: S_1  and  N_9
REMARK    2  A    between atoms: S_1  and  C_28
REMARK    3  A    between atoms: N_9  and  C_20
REMARK    4  A    between atoms: C_19  and  C_22
REMARK    5  A    between atoms: C_27  and  C_29
REMARK                            x       y       z     vdW  Elec       q    Type
REMARK                         _______ _______ _______ _____ _____    ______ ____
ROOT
ATOM      3  O   UNL     1      14.564   9.949   6.964  0.00  0.00    -0.266 OA
ATOM      4  O   UNL     1      11.334   5.905   7.224  0.00  0.00    -0.270 OA
ATOM      7  N   UNL     1      10.127   7.725   6.382  0.00  0.00    -0.297 N 
ATOM      8  N   UNL     1      12.358   9.969   6.173  0.00  0.00    -0.310 N 
ATOM     10  C   UNL     1      10.320   9.818   7.716  0.00  0.00    +0.027 C 
ATOM     11  C   UNL     1      10.002   9.945   5.278  0.00  0.00    +0.054 C 
ATOM     12  C   UNL     1       9.602  10.580   6.608  0.00  0.00    +0.018 C 
ATOM     13  C   UNL     1       9.915   8.332   7.696  0.00  0.00    +0.113 C 
ATOM     14  C   UNL     1      11.833  10.006   7.544  0.00  0.00    +0.130 C 
ATOM     15  C   UNL     1       9.550   8.472   5.253  0.00  0.00    +0.117 C 
ATOM     16  C   UNL     1      11.502  10.023   5.064  0.00  0.00    +0.027 A 
ATOM     17  C   UNL     1      12.004  10.103   3.818  0.00  0.00    +0.024 A 
ATOM     18  C   UNL     1      13.761   9.979   6.031  0.00  0.00    +0.274 A 
ATOM     19  C   UNL     1      10.850   6.534   6.284  0.00  0.00    +0.247 C 
ATOM     20  C   UNL     1      14.255  10.045   4.632  0.00  0.00    +0.112 A 
ATOM     21  C   UNL     1      13.424  10.114   3.591  0.00  0.00    +0.031 A 
ENDROOT
BRANCH  19  22
ATOM     22  C   UNL     1      11.080   5.977   4.946  0.00  0.00    +0.037 A 
ATOM     23  C   UNL     1      12.051   6.538   4.120  0.00  0.00    +0.013 A 
ATOM     24  C   UNL     1      10.324   4.893   4.508  0.00  0.00    +0.013 A 
ATOM     25  C   UNL     1      12.269   6.009   2.848  0.00  0.00    +0.009 A 
ATOM     26  C   UNL     1      10.543   4.364   3.237  0.00  0.00    +0.009 A 
ATOM     27  C   UNL     1      11.514   4.921   2.407  0.00  0.00    -0.018 A 
BRANCH  27  29
ATOM     29  C   UNL     1      11.741   4.373   1.087  0.00  0.00    -0.018 A 
ATOM     32  C   UNL     1      10.755   4.483   0.107  0.00  0.00    +0.008 A 
ATOM     33  C   UNL     1      12.945   3.732   0.796  0.00  0.00    +0.008 A 
ATOM     35  C   UNL     1      10.974   3.953  -1.165  0.00  0.00    +0.001 A 
ATOM     36  C   UNL     1      13.164   3.203  -0.477  0.00  0.00    +0.001 A 
ATOM     37  C   UNL     1      12.178   3.314  -1.457  0.00  0.00    +0.000 A 
ENDBRANCH  27  29
ENDBRANCH  19  22
BRANCH  20   9
ATOM      9  N   UNL     1      15.635  10.046   4.367  0.00  0.00    -0.211 N 
ATOM     38  H   UNL     1      15.964  10.878   3.859  0.00  0.00    +0.174 HD
BRANCH   9   1
ATOM      1  S   UNL     1      16.327   8.580   3.880  0.00  0.00    +0.079 S 
ATOM      5  O   UNL     1      15.483   7.478   4.298  0.00  0.00    -0.149 OA
ATOM      6  O   UNL     1      16.763   8.682   2.500  0.00  0.00    -0.149 OA
BRANCH   1  28
ATOM      2  S   UNL     1      19.201   8.078   4.072  0.00  0.00    -0.077 S 
ATOM     28  C   UNL     1      17.777   8.549   4.890  0.00  0.00    +0.146 A 
ATOM     30  C   UNL     1      17.998   8.828   6.214  0.00  0.00    +0.036 A 
ATOM     31  C   UNL     1      19.367   8.654   6.570  0.00  0.00    +0.010 A 
ATOM     34  C   UNL     1      20.132   8.247   5.499  0.00  0.00    +0.047 A 
ENDBRANCH   1  28
ENDBRANCH   9   1
ENDBRANCH  20   9
TORSDOF 5
ENDMDL
MODEL 5
REMARK VINA RESULT:      -7.1     26.203     29.774
REMARK  Name = 7113944
REMARK  5 active torsions:
REMARK  status: ('A' for Active; 'I' for Inactive)
REMARK    1  A    between atoms: S_1  and  N_9
REMARK    2  A    between atoms: S_1  and  C_28
REMARK    3  A    between atoms: N_9  and  C_20
REMARK    4  A    between atoms: C_19  and  C_22
REMARK    5  A    between atoms: C_27  and  C_29
REMARK                            x       y       z     vdW  Elec       q    Type
REMARK                         _______ _______ _______ _____ _____    ______ ____
ROOT
ATOM      3  O   UNL     1       8.583   7.775   2.368  0.00  0.00    -0.266 OA
ATOM      4  O   UNL     1      10.837  10.916   5.818  0.00  0.00    -0.270 OA
ATOM      7  N   UNL     1      10.548   8.830   6.840  0.00  0.00    -0.297 N 
ATOM      8  N   UNL     1       9.329   7.094   4.482  0.00  0.00    -0.310 N 
ATOM     10  C   UNL     1       8.251   7.887   6.665  0.00  0.00    +0.027 C 
ATOM     11  C   UNL     1      10.193   6.375   6.738  0.00  0.00    +0.054 C 
ATOM     12  C   UNL     1       8.760   6.565   7.231  0.00  0.00    +0.018 C 
ATOM     13  C   UNL     1       9.135   9.053   7.145  0.00  0.00    +0.113 C 
ATOM     14  C   UNL     1       8.210   7.786   5.135  0.00  0.00    +0.130 C 
ATOM     15  C   UNL     1      11.077   7.524   7.263  0.00  0.00    +0.117 C 
ATOM     16  C   UNL     1      10.250   6.338   5.222  0.00  0.00    +0.027 A 
ATOM     17  C   UNL     1      11.200   5.620   4.598  0.00  0.00    +0.024 A 
ATOM     18  C   UNL     1       9.370   7.144   3.073  0.00  0.00    +0.274 A 
ATOM     19  C   UNL     1      11.273   9.822   6.174  0.00  0.00    +0.247 C 
ATOM     20  C   UNL     1      10.456   6.350   2.444  0.00  0.00    +0.112 A 
ATOM     21  C   UNL     1      11.311   5.623   3.165  0.00  0.00    +0.031 A 
ENDROOT
BRANCH  19  22
ATOM     22  C   UNL     1      12.675   9.546   5.846  0.00  0.00    +0.037 A 
ATOM     23  C   UNL     1      13.685   9.991   6.696  0.00  0.00    +0.013 A 
ATOM     24  C   UNL     1      12.991   8.842   4.687  0.00  0.00    +0.013 A 
ATOM     25  C   UNL     1      15.020   9.729   6.384  0.00  0.00    +0.009 A 
ATOM     26  C   UNL     1      14.324   8.581   4.375  0.00  0.00    +0.009 A 
ATOM     27  C   UNL     1      15.338   9.024   5.223  0.00  0.00    -0.018 A 
BRANCH  27  29
ATOM     29  C   UNL     1      16.723   8.752   4.900  0.00  0.00    -0.018 A 
ATOM     32  C   UNL     1      17.692   8.781   5.902  0.00  0.00    +0.008 A 
ATOM     33  C   UNL     1      17.088   8.464   3.585  0.00  0.00    +0.008 A 
ATOM     35  C   UNL     1      19.026   8.519   5.590  0.00  0.00    +0.001 A 
ATOM     36  C   UNL     1      18.422   8.202   3.273  0.00  0.00    +0.001 A 
ATOM     37  C   UNL     1      19.392   8.230   4.276  0.00  0.00    +0.000 A 
ENDBRANCH  27  29
ENDBRANCH  19  22
BRANCH  20   9
ATOM      9  N   UNL     1      10.604   6.337   1.046  0.00  0.00    -0.211 N 
ATOM     38  H   UNL     1      10.250   7.184   0.579  0.00  0.00    +0.174 HD
BRANCH   9   1
ATOM      1  S   UNL     1      10.273   4.880   0.249  0.00  0.00    +0.079 S 
ATOM      5  O   UNL     1       9.865   3.877   1.214  0.00  0.00    -0.149 OA
ATOM      6  O   UNL     1       9.459   5.140  -0.923  0.00  0.00    -0.149 OA
BRANCH   1  28
ATOM      2  S   UNL     1      12.151   4.704  -1.984  0.00  0.00    -0.077 S 
ATOM     28  C   UNL     1      11.890   4.441  -0.317  0.00  0.00    +0.146 A 
ATOM     30  C   UNL     1      12.991   3.927   0.315  0.00  0.00    +0.036 A 
ATOM     31  C   UNL     1      14.079   3.742  -0.586  0.00  0.00    +0.010 A 
ATOM     34  C   UNL     1      13.758   4.124  -1.870  0.00  0.00    +0.047 A 
ENDBRANCH   1  28
ENDBRANCH   9   1
ENDBRANCH  20   9
TORSDOF 5
ENDMDL
MODEL 6
REMARK VINA RESULT:      -7.1      3.796      6.583
REMARK  Name = 7113944
REMARK  5 active torsions:
REMARK  status: ('A' for Active; 'I' for Inactive)
REMARK    1  A    between atoms: S_1  and  N_9
REMARK    2  A    between atoms: S_1  and  C_28
REMARK    3  A    between atoms: N_9  and  C_20
REMARK    4  A    between atoms: C_19  and  C_22
REMARK    5  A    between atoms: C_27  and  C_29
REMARK                            x       y       z     vdW  Elec       q    Type
REMARK                         _______ _______ _______ _____ _____    ______ ____
ROOT
ATOM      3  O   UNL     1      -4.410 -10.212  16.367  0.00  0.00    -0.266 OA
ATOM      4  O   UNL     1      -1.877  -9.690  11.876  0.00  0.00    -0.270 OA
ATOM      7  N   UNL     1      -2.829 -11.828  11.910  0.00  0.00    -0.297 N 
ATOM      8  N   UNL     1      -4.430 -11.804  14.647  0.00  0.00    -0.310 N 
ATOM     10  C   UNL     1      -2.362 -13.150  13.966  0.00  0.00    +0.027 C 
ATOM     11  C   UNL     1      -4.483 -13.473  12.759  0.00  0.00    +0.054 C 
ATOM     12  C   UNL     1      -3.370 -14.200  13.510  0.00  0.00    +0.018 C 
ATOM     13  C   UNL     1      -1.780 -12.401  12.753  0.00  0.00    +0.113 C 
ATOM     14  C   UNL     1      -3.050 -12.201  14.955  0.00  0.00    +0.130 C 
ATOM     15  C   UNL     1      -3.895 -12.765  11.522  0.00  0.00    +0.117 C 
ATOM     16  C   UNL     1      -5.171 -12.456  13.651  0.00  0.00    +0.027 A 
ATOM     17  C   UNL     1      -6.468 -12.156  13.459  0.00  0.00    +0.024 A 
ATOM     18  C   UNL     1      -5.002 -10.809  15.467  0.00  0.00    +0.274 A 
ATOM     19  C   UNL     1      -2.766 -10.478  11.556  0.00  0.00    +0.247 C 
ATOM     20  C   UNL     1      -6.429 -10.506  15.192  0.00  0.00    +0.112 A 
ATOM     21  C   UNL     1      -7.121 -11.150  14.252  0.00  0.00    +0.031 A 
ENDROOT
BRANCH  19  22
ATOM     22  C   UNL     1      -3.857  -9.928  10.745  0.00  0.00    +0.037 A 
ATOM     23  C   UNL     1      -3.763  -9.942   9.356  0.00  0.00    +0.013 A 
ATOM     24  C   UNL     1      -4.982  -9.392  11.369  0.00  0.00    +0.013 A 
ATOM     25  C   UNL     1      -4.800  -9.418   8.585  0.00  0.00    +0.009 A 
ATOM     26  C   UNL     1      -6.019  -8.869  10.597  0.00  0.00    +0.009 A 
ATOM     27  C   UNL     1      -5.928  -8.882   9.206  0.00  0.00    -0.018 A 
BRANCH  27  29
ATOM     29  C   UNL     1      -7.005  -8.339   8.406  0.00  0.00    -0.018 A 
ATOM     32  C   UNL     1      -7.550  -9.092   7.366  0.00  0.00    +0.008 A 
ATOM     33  C   UNL     1      -7.495  -7.061   8.673  0.00  0.00    +0.008 A 
ATOM     35  C   UNL     1      -8.587  -8.567   6.594  0.00  0.00    +0.001 A 
ATOM     36  C   UNL     1      -8.533  -6.537   7.901  0.00  0.00    +0.001 A 
ATOM     37  C   UNL     1      -9.079  -7.290   6.861  0.00  0.00    +0.000 A 
ENDBRANCH  27  29
ENDBRANCH  19  22
BRANCH  20   9
ATOM      9  N   UNL     1      -7.100  -9.520  15.938  0.00  0.00    -0.211 N 
ATOM     38  H   UNL     1      -6.584  -8.632  16.019  0.00  0.00    +0.174 HD
BRANCH   9   1
ATOM      1  S   UNL     1      -7.896 -10.025  17.343  0.00  0.00    +0.079 S 
ATOM      5  O   UNL     1      -8.246 -11.428  17.229  0.00  0.00    -0.149 OA
ATOM      6  O   UNL     1      -7.179  -9.544  18.509  0.00  0.00    -0.149 OA
BRANCH   1  28
ATOM      2  S   UNL     1     -10.788  -9.929  17.755  0.00  0.00    -0.077 S 
ATOM     28  C   UNL     1      -9.395  -9.095  17.224  0.00  0.00    +0.146 A 
ATOM     30  C   UNL     1      -9.673  -7.827  16.788  0.00  0.00    +0.036 A 
ATOM     31  C   UNL     1     -11.062  -7.526  16.889  0.00  0.00    +0.010 A 
ATOM     34  C   UNL     1     -11.784  -8.582  17.400  0.00  0.00    +0.047 A 
ENDBRANCH   1  28
ENDBRANCH   9   1
ENDBRANCH  20   9
TORSDOF 5
ENDMDL
MODEL 7
REMARK VINA RESULT:      -7.0     28.007     30.269
REMARK  Name = 7113944
REMARK  5 active torsions:
REMARK  status: ('A' for Active; 'I' for Inactive)
REMARK    1  A    between atoms: S_1  and  N_9
REMARK    2  A    between atoms: S_1  and  C_28
REMARK    3  A    between atoms: N_9  and  C_20
REMARK    4  A    between atoms: C_19  and  C_22
REMARK    5  A    between atoms: C_27  and  C_29
REMARK                            x       y       z     vdW  Elec       q    Type
REMARK                         _______ _______ _______ _____ _____    ______ ____
ROOT
ATOM      3  O   UNL     1      12.421   3.723  -2.975  0.00  0.00    -0.266 OA
ATOM      4  O   UNL     1      12.064   3.157   2.164  0.00  0.00    -0.270 OA
ATOM      7  N   UNL     1      13.697   4.779   1.740  0.00  0.00    -0.297 N 
ATOM      8  N   UNL     1      13.580   5.037  -1.419  0.00  0.00    -0.310 N 
ATOM     10  C   UNL     1      15.433   4.110   0.086  0.00  0.00    +0.027 C 
ATOM     11  C   UNL     1      14.770   6.473   0.277  0.00  0.00    +0.054 C 
ATOM     12  C   UNL     1      15.962   5.541   0.076  0.00  0.00    +0.018 C 
ATOM     13  C   UNL     1      14.741   3.803   1.427  0.00  0.00    +0.113 C 
ATOM     14  C   UNL     1      14.488   3.925  -1.108  0.00  0.00    +0.130 C 
ATOM     15  C   UNL     1      14.114   6.187   1.642  0.00  0.00    +0.117 C 
ATOM     16  C   UNL     1      13.745   6.298  -0.829  0.00  0.00    +0.027 A 
ATOM     17  C   UNL     1      12.977   7.335  -1.210  0.00  0.00    +0.024 A 
ATOM     18  C   UNL     1      12.605   4.801  -2.410  0.00  0.00    +0.274 A 
ATOM     19  C   UNL     1      12.418   4.332   2.079  0.00  0.00    +0.247 C 
ATOM     20  C   UNL     1      11.773   5.977  -2.770  0.00  0.00    +0.112 A 
ATOM     21  C   UNL     1      11.957   7.173  -2.210  0.00  0.00    +0.031 A 
ENDROOT
BRANCH  19  22
ATOM     22  C   UNL     1      11.386   5.339   2.345  0.00  0.00    +0.037 A 
ATOM     23  C   UNL     1      10.708   5.933   1.284  0.00  0.00    +0.013 A 
ATOM     24  C   UNL     1      11.090   5.698   3.658  0.00  0.00    +0.013 A 
ATOM     25  C   UNL     1       9.727   6.892   1.536  0.00  0.00    +0.009 A 
ATOM     26  C   UNL     1      10.108   6.656   3.910  0.00  0.00    +0.009 A 
ATOM     27  C   UNL     1       9.427   7.253   2.850  0.00  0.00    -0.018 A 
BRANCH  27  29
ATOM     29  C   UNL     1       8.409   8.247   3.111  0.00  0.00    -0.018 A 
ATOM     32  C   UNL     1       7.780   8.898   2.050  0.00  0.00    +0.008 A 
ATOM     33  C   UNL     1       8.057   8.556   4.425  0.00  0.00    +0.008 A 
ATOM     35  C   UNL     1       6.798   9.856   2.303  0.00  0.00    +0.001 A 
ATOM     36  C   UNL     1       7.075   9.515   4.678  0.00  0.00    +0.001 A 
ATOM     37  C   UNL     1       6.446  10.165   3.616  0.00  0.00    +0.000 A 
ENDBRANCH  27  29
ENDBRANCH  19  22
BRANCH  20   9
ATOM      9  N   UNL     1      10.758   5.857  -3.736  0.00  0.00    -0.211 N 
ATOM     38  H   UNL     1      10.740   6.623  -4.423  0.00  0.00    +0.174 HD
BRANCH   9   1
ATOM      1  S   UNL     1       9.241   5.333  -3.198  0.00  0.00    +0.079 S 
ATOM      5  O   UNL     1       8.544   4.662  -4.279  0.00  0.00    -0.149 OA
ATOM      6  O   UNL     1       9.377   4.688  -1.906  0.00  0.00    -0.149 OA
BRANCH   1  28
ATOM      2  S   UNL     1       7.501   7.431  -4.254  0.00  0.00    -0.077 S 
ATOM     28  C   UNL     1       8.433   6.883  -2.932  0.00  0.00    +0.146 A 
ATOM     30  C   UNL     1       8.401   7.747  -1.869  0.00  0.00    +0.036 A 
ATOM     31  C   UNL     1       7.592   8.889  -2.141  0.00  0.00    +0.010 A 
ATOM     34  C   UNL     1       7.042   8.845  -3.403  0.00  0.00    +0.047 A 
ENDBRANCH   1  28
ENDBRANCH   9   1
ENDBRANCH  20   9
TORSDOF 5
ENDMDL
MODEL 8
REMARK VINA RESULT:      -7.0     26.528     30.402
REMARK  Name = 7113944
REMARK  5 active torsions:
REMARK  status: ('A' for Active; 'I' for Inactive)
REMARK    1  A    between atoms: S_1  and  N_9
REMARK    2  A    between atoms: S_1  and  C_28
REMARK    3  A    between atoms: N_9  and  C_20
REMARK    4  A    between atoms: C_19  and  C_22
REMARK    5  A    between atoms: C_27  and  C_29
REMARK                            x       y       z     vdW  Elec       q    Type
REMARK                         _______ _______ _______ _____ _____    ______ ____
ROOT
ATOM      3  O   UNL     1      12.504   7.248   3.416  0.00  0.00    -0.266 OA
ATOM      4  O   UNL     1       8.682   9.828   5.782  0.00  0.00    -0.270 OA
ATOM      7  N   UNL     1       9.007   7.820   6.940  0.00  0.00    -0.297 N 
ATOM      8  N   UNL     1      11.474   6.552   5.402  0.00  0.00    -0.310 N 
ATOM     10  C   UNL     1       9.035   5.780   5.514  0.00  0.00    +0.027 C 
ATOM     11  C   UNL     1      10.389   5.855   7.568  0.00  0.00    +0.054 C 
ATOM     12  C   UNL     1       9.497   4.958   6.712  0.00  0.00    +0.018 C 
ATOM     13  C   UNL     1       8.247   7.017   5.982  0.00  0.00    +0.113 C 
ATOM     14  C   UNL     1      10.260   6.161   4.673  0.00  0.00    +0.130 C 
ATOM     15  C   UNL     1       9.576   7.066   8.069  0.00  0.00    +0.117 C 
ATOM     16  C   UNL     1      11.594   6.338   6.783  0.00  0.00    +0.027 A 
ATOM     17  C   UNL     1      12.753   6.598   7.414  0.00  0.00    +0.024 A 
ATOM     18  C   UNL     1      12.542   7.054   4.631  0.00  0.00    +0.274 A 
ATOM     19  C   UNL     1       9.156   9.191   6.723  0.00  0.00    +0.247 C 
ATOM     20  C   UNL     1      13.787   7.343   5.388  0.00  0.00    +0.112 A 
ATOM     21  C   UNL     1      13.887   7.117   6.698  0.00  0.00    +0.031 A 
ENDROOT
BRANCH  19  22
ATOM     22  C   UNL     1       9.961   9.956   7.681  0.00  0.00    +0.037 A 
ATOM     23  C   UNL     1       9.358  10.505   8.809  0.00  0.00    +0.013 A 
ATOM     24  C   UNL     1      11.324  10.132   7.457  0.00  0.00    +0.013 A 
ATOM     25  C   UNL     1      10.123  11.233   9.721  0.00  0.00    +0.009 A 
ATOM     26  C   UNL     1      12.089  10.859   8.368  0.00  0.00    +0.009 A 
ATOM     27  C   UNL     1      11.489  11.410   9.499  0.00  0.00    -0.018 A 
BRANCH  27  29
ATOM     29  C   UNL     1      12.282  12.165  10.445  0.00  0.00    -0.018 A 
ATOM     32  C   UNL     1      11.900  12.227  11.784  0.00  0.00    +0.008 A 
ATOM     33  C   UNL     1      13.429  12.832  10.016  0.00  0.00    +0.008 A 
ATOM     35  C   UNL     1      12.665  12.956  12.695  0.00  0.00    +0.001 A 
ATOM     36  C   UNL     1      14.195  13.560  10.927  0.00  0.00    +0.001 A 
ATOM     37  C   UNL     1      13.812  13.622  12.268  0.00  0.00    +0.000 A 
ENDBRANCH  27  29
ENDBRANCH  19  22
BRANCH  20   9
ATOM      9  N   UNL     1      14.913   7.862   4.726  0.00  0.00    -0.211 N 
ATOM     38  H   UNL     1      15.780   7.331   4.893  0.00  0.00    +0.174 HD
BRANCH   9   1
ATOM      1  S   UNL     1      15.089   9.546   4.709  0.00  0.00    +0.079 S 
ATOM      5  O   UNL     1      15.245  10.007   3.343  0.00  0.00    -0.149 OA
ATOM      6  O   UNL     1      14.093  10.149   5.573  0.00  0.00    -0.149 OA
BRANCH   1  28
ATOM      2  S   UNL     1      16.921  11.250   6.221  0.00  0.00    -0.077 S 
ATOM     28  C   UNL     1      16.657   9.720   5.507  0.00  0.00    +0.146 A 
ATOM     30  C   UNL     1      17.718   8.870   5.674  0.00  0.00    +0.036 A 
ATOM     31  C   UNL     1      18.777   9.483   6.405  0.00  0.00    +0.010 A 
ATOM     34  C   UNL     1      18.475  10.778   6.764  0.00  0.00    +0.047 A 
ENDBRANCH   1  28
ENDBRANCH   9   1
ENDBRANCH  20   9
TORSDOF 5
ENDMDL
MODEL 9
REMARK VINA RESULT:      -7.0     28.751     30.938
REMARK  Name = 7113944
REMARK  5 active torsions:
REMARK  status: ('A' for Active; 'I' for Inactive)
REMARK    1  A    between atoms: S_1  and  N_9
REMARK    2  A    between atoms: S_1  and  C_28
REMARK    3  A    between atoms: N_9  and  C_20
REMARK    4  A    between atoms: C_19  and  C_22
REMARK    5  A    between atoms: C_27  and  C_29
REMARK                            x       y       z     vdW  Elec       q    Type
REMARK                         _______ _______ _______ _____ _____    ______ ____
ROOT
ATOM      3  O   UNL     1      15.870   5.426   0.068  0.00  0.00    -0.266 OA
ATOM      4  O   UNL     1      12.302   7.834  -2.818  0.00  0.00    -0.270 OA
ATOM      7  N   UNL     1      11.614   5.613  -2.544  0.00  0.00    -0.297 N 
ATOM      8  N   UNL     1      13.858   4.448  -0.630  0.00  0.00    -0.310 N 
ATOM     10  C   UNL     1      13.345   3.906  -3.079  0.00  0.00    +0.027 C 
ATOM     11  C   UNL     1      11.661   3.440  -1.345  0.00  0.00    +0.054 C 
ATOM     12  C   UNL     1      12.441   2.822  -2.503  0.00  0.00    +0.018 C 
ATOM     13  C   UNL     1      12.504   5.095  -3.582  0.00  0.00    +0.113 C 
ATOM     14  C   UNL     1      14.357   4.328  -2.006  0.00  0.00    +0.130 C 
ATOM     15  C   UNL     1      10.789   4.598  -1.869  0.00  0.00    +0.117 C 
ATOM     16  C   UNL     1      12.597   3.953  -0.266  0.00  0.00    +0.027 A 
ATOM     17  C   UNL     1      12.204   3.969   1.020  0.00  0.00    +0.024 A 
ATOM     18  C   UNL     1      14.747   4.990   0.322  0.00  0.00    +0.274 A 
ATOM     19  C   UNL     1      11.616   6.980  -2.257  0.00  0.00    +0.247 C 
ATOM     20  C   UNL     1      14.246   5.002   1.720  0.00  0.00    +0.112 A 
ATOM     21  C   UNL     1      13.051   4.510   2.048  0.00  0.00    +0.031 A 
ENDROOT
BRANCH  19  22
ATOM     22  C   UNL     1      10.742   7.458  -1.180  0.00  0.00    +0.037 A 
ATOM     23  C   UNL     1       9.496   7.998  -1.489  0.00  0.00    +0.013 A 
ATOM     24  C   UNL     1      11.163   7.372   0.144  0.00  0.00    +0.013 A 
ATOM     25  C   UNL     1       8.664   8.453  -0.465  0.00  0.00    +0.009 A 
ATOM     26  C   UNL     1      10.331   7.826   1.167  0.00  0.00    +0.009 A 
ATOM     27  C   UNL     1       9.083   8.367   0.863  0.00  0.00    -0.018 A 
BRANCH  27  29
ATOM     29  C   UNL     1       8.220   8.839   1.924  0.00  0.00    -0.018 A 
ATOM     32  C   UNL     1       7.142   9.673   1.629  0.00  0.00    +0.008 A 
ATOM     33  C   UNL     1       8.467   8.460   3.244  0.00  0.00    +0.008 A 
ATOM     35  C   UNL     1       6.311  10.128   2.652  0.00  0.00    +0.001 A 
ATOM     36  C   UNL     1       7.635   8.915   4.267  0.00  0.00    +0.001 A 
ATOM     37  C   UNL     1       6.556   9.749   3.971  0.00  0.00    +0.000 A 
ENDBRANCH  27  29
ENDBRANCH  19  22
BRANCH  20   9
ATOM      9  N   UNL     1      15.040   5.533   2.751  0.00  0.00    -0.211 N 
ATOM     38  H   UNL     1      15.091   4.938   3.590  0.00  0.00    +0.174 HD
BRANCH   9   1
ATOM      1  S   UNL     1      14.906   7.193   3.050  0.00  0.00    +0.079 S 
ATOM      5  O   UNL     1      16.181   7.713   3.508  0.00  0.00    -0.149 OA
ATOM      6  O   UNL     1      14.211   7.833   1.950  0.00  0.00    -0.149 OA
BRANCH   1  28
ATOM      2  S   UNL     1      14.585   7.329   5.953  0.00  0.00    -0.077 S 
ATOM     28  C   UNL     1      13.809   7.190   4.437  0.00  0.00    +0.146 A 
ATOM     30  C   UNL     1      12.447   7.098   4.548  0.00  0.00    +0.036 A 
ATOM     31  C   UNL     1      12.023   7.142   5.908  0.00  0.00    +0.010 A 
ATOM     34  C   UNL     1      13.085   7.266   6.776  0.00  0.00    +0.047 A 
ENDBRANCH   1  28
ENDBRANCH   9   1
ENDBRANCH  20   9
TORSDOF 5
ENDMDL
MODEL 10
REMARK VINA RESULT:      -7.0     19.175     22.256
REMARK  Name = 7113944
REMARK  5 active torsions:
REMARK  status: ('A' for Active; 'I' for Inactive)
REMARK    1  A    between atoms: S_1  and  N_9
REMARK    2  A    between atoms: S_1  and  C_28
REMARK    3  A    between atoms: N_9  and  C_20
REMARK    4  A    between atoms: C_19  and  C_22
REMARK    5  A    between atoms: C_27  and  C_29
REMARK                            x       y       z     vdW  Elec       q    Type
REMARK                         _______ _______ _______ _____ _____    ______ ____
ROOT
ATOM      3  O   UNL     1     -14.428   9.245  24.889  0.00  0.00    -0.266 OA
ATOM      4  O   UNL     1     -11.752   6.775  21.202  0.00  0.00    -0.270 OA
ATOM      7  N   UNL     1     -13.896   7.196  20.362  0.00  0.00    -0.297 N 
ATOM      8  N   UNL     1     -15.229   8.839  22.726  0.00  0.00    -0.310 N 
ATOM     10  C   UNL     1     -15.762   6.492  21.852  0.00  0.00    +0.027 C 
ATOM     11  C   UNL     1     -16.045   8.441  20.374  0.00  0.00    +0.054 C 
ATOM     12  C   UNL     1     -16.751   7.210  20.939  0.00  0.00    +0.018 C 
ATOM     13  C   UNL     1     -14.511   6.068  21.061  0.00  0.00    +0.113 C 
ATOM     14  C   UNL     1     -15.416   7.414  23.028  0.00  0.00    +0.130 C 
ATOM     15  C   UNL     1     -14.821   8.000  19.547  0.00  0.00    +0.117 C 
ATOM     16  C   UNL     1     -15.601   9.375  21.484  0.00  0.00    +0.027 A 
ATOM     17  C   UNL     1     -15.529  10.700  21.264  0.00  0.00    +0.024 A 
ATOM     18  C   UNL     1     -14.754   9.653  23.775  0.00  0.00    +0.274 A 
ATOM     19  C   UNL     1     -12.531   7.443  20.522  0.00  0.00    +0.247 C 
ATOM     20  C   UNL     1     -14.674  11.103  23.464  0.00  0.00    +0.112 A 
ATOM     21  C   UNL     1     -15.050  11.595  22.283  0.00  0.00    +0.031 A 
ENDROOT
BRANCH  19  22
ATOM     22  C   UNL     1     -11.958   8.609  19.841  0.00  0.00    +0.037 A 
ATOM     23  C   UNL     1     -12.062   9.870  20.422  0.00  0.00    +0.013 A 
ATOM     24  C   UNL     1     -11.314   8.449  18.617  0.00  0.00    +0.013 A 
ATOM     25  C   UNL     1     -11.518  10.980  19.774  0.00  0.00    +0.009 A 
ATOM     26  C   UNL     1     -10.769   9.557  17.970  0.00  0.00    +0.009 A 
ATOM     27  C   UNL     1     -10.871  10.822  18.548  0.00  0.00    -0.018 A 
BRANCH  27  29
ATOM     29  C   UNL     1     -10.306  11.973  17.876  0.00  0.00    -0.018 A 
ATOM     32  C   UNL     1     -10.696  13.259  18.248  0.00  0.00    +0.008 A 
ATOM     33  C   UNL     1      -9.373  11.795  16.855  0.00  0.00    +0.008 A 
ATOM     35  C   UNL     1     -10.152  14.368  17.600  0.00  0.00    +0.001 A 
ATOM     36  C   UNL     1      -8.828  12.905  16.208  0.00  0.00    +0.001 A 
ATOM     37  C   UNL     1      -9.218  14.191  16.580  0.00  0.00    +0.000 A 
ENDBRANCH  27  29
ENDBRANCH  19  22
BRANCH  20   9
ATOM      9  N   UNL     1     -14.201  12.008  24.429  0.00  0.00    -0.211 N 
ATOM     38  H   UNL     1     -14.801  12.836  24.558  0.00  0.00    +0.174 HD
BRANCH   9   1
ATOM      1  S   UNL     1     -12.536  12.312  24.450  0.00  0.00    +0.079 S 
ATOM      5  O   UNL     1     -11.907  11.665  23.315  0.00  0.00    -0.149 OA
ATOM      6  O   UNL     1     -12.301  13.720  24.710  0.00  0.00    -0.149 OA
BRANCH   1  28
ATOM      2  S   UNL     1     -13.071  11.670  27.251  0.00  0.00    -0.077 S 
ATOM     28  C   UNL     1     -12.057  11.420  25.899  0.00  0.00    +0.146 A 
ATOM     30  C   UNL     1     -11.027  10.557  26.165  0.00  0.00    +0.036 A 
ATOM     31  C   UNL     1     -11.065  10.087  27.509  0.00  0.00    +0.010 A 
ATOM     34  C   UNL     1     -12.126  10.614  28.212  0.00  0.00    +0.047 A 
ENDBRANCH   1  28
ENDBRANCH   9   1
ENDBRANCH  20   9
TORSDOF 5
ENDMDL
