REMARK  Name = 71694098
REMARK  10 active torsions:
REMARK  status: ('A' for Active; 'I' for Inactive)
REMARK    1  A    between atoms: O_3  and  C_16
REMARK    2  A    between atoms: O_3  and  C_26
REMARK    3  A    between atoms: O_4  and  C_27
REMARK    4  A    between atoms: O_4  and  C_28
REMARK    5  A    between atoms: N_5  and  C_7
REMARK    6  A    between atoms: N_5  and  C_11
REMARK    7  A    between atoms: C_7  and  C_10
REMARK    8  A    between atoms: C_10  and  C_12
REMARK    9  A    between atoms: C_11  and  C_13
REMARK   10  A    between atoms: C_15  and  C_18
REMARK                            x       y       z     vdW  Elec       q    Type
REMARK                         _______ _______ _______ _____ _____    ______ ____
ROOT
ATOM      1  O   UNL     1      -3.249   3.778   1.073  0.00  0.00    -0.376 OA
ATOM      7  C   UNL     1      -2.207   2.252   0.001  0.00  0.00    +0.072 C 
ATOM      8  C   UNL     1      -3.604   2.886  -0.015  0.00  0.00    +0.184 C 
ATOM      9  C   UNL     1      -2.033   3.023   1.316  0.00  0.00    +0.184 C 
ENDROOT
BRANCH   7   5
ATOM      5  N   UNL     1      -2.344   0.827   0.317  0.00  0.00    -0.302 NA
ATOM     29  H   UNL     1      -1.482   0.345   0.564  0.00  0.00    +0.123 HD
BRANCH   5  11
ATOM     11  C   UNL     1      -3.009   0.148  -0.789  0.00  0.00    +0.120 C 
BRANCH  11  13
ATOM     13  C   UNL     1      -3.697  -1.114  -0.339  0.00  0.00    +0.008 A 
ATOM     16  C   UNL     1      -2.963  -2.270  -0.073  0.00  0.00    +0.124 A 
ATOM     17  C   UNL     1      -5.084  -1.118  -0.189  0.00  0.00    +0.008 A 
ATOM     19  C   UNL     1      -3.616  -3.430   0.343  0.00  0.00    +0.046 A 
ATOM     20  C   UNL     1      -5.737  -2.278   0.227  0.00  0.00    +0.001 A 
ATOM     21  C   UNL     1      -5.003  -3.434   0.493  0.00  0.00    +0.004 A 
BRANCH  16   3
ATOM      3  O   UNL     1      -1.608  -2.283  -0.213  0.00  0.00    -0.495 OA
ATOM     26  C   UNL     1      -0.938  -3.508   0.080  0.00  0.00    +0.277 C 
ENDBRANCH  16   3
ENDBRANCH  11  13
ENDBRANCH   5  11
ENDBRANCH   7   5
BRANCH   7  10
ATOM     10  C   UNL     1      -1.258   2.521  -1.138  0.00  0.00    +0.085 C 
BRANCH  10  12
ATOM      2  O   UNL     1       2.143   2.563   0.072  0.00  0.00    -0.354 OA
ATOM      6  N   UNL     1       0.920   3.172  -0.180  0.00  0.00    -0.083 NA
ATOM     12  C   UNL     1       0.164   2.215  -0.727  0.00  0.00    +0.086 A 
ATOM     14  C   UNL     1       0.849   0.994  -0.842  0.00  0.00    +0.076 A 
ATOM     15  C   UNL     1       2.089   1.266  -0.326  0.00  0.00    +0.167 A 
BRANCH  15  18
ATOM     18  C   UNL     1       3.286   0.503  -0.126  0.00  0.00    +0.020 A 
ATOM     22  C   UNL     1       3.328  -0.840  -0.500  0.00  0.00    +0.015 A 
ATOM     23  C   UNL     1       4.409   1.104   0.444  0.00  0.00    +0.015 A 
ATOM     24  C   UNL     1       4.493  -1.582  -0.306  0.00  0.00    +0.046 A 
ATOM     25  C   UNL     1       5.574   0.362   0.639  0.00  0.00    +0.046 A 
ATOM     27  C   UNL     1       5.616  -0.981   0.264  0.00  0.00    +0.120 A 
BRANCH  27   4
ATOM      4  O   UNL     1       6.753  -1.704   0.451  0.00  0.00    -0.495 OA
ATOM     28  C   UNL     1       6.728  -3.071   0.043  0.00  0.00    +0.277 C 
ENDBRANCH  27   4
ENDBRANCH  15  18
ENDBRANCH  10  12
ENDBRANCH   7  10
TORSDOF 8
