MODEL 1
REMARK VINA RESULT:      -7.3      0.000      0.000
REMARK  Name = 75536998
REMARK  3 active torsions:
REMARK  status: ('A' for Active; 'I' for Inactive)
REMARK    1  A    between atoms: N_5  and  C_14
REMARK    2  A    between atoms: N_7  and  C_19
REMARK    3  A    between atoms: C_14  and  C_16
REMARK                            x       y       z     vdW  Elec       q    Type
REMARK                         _______ _______ _______ _____ _____    ______ ____
ROOT
ATOM      2  O   UNL     1      15.742   9.602  20.454  0.00  0.00    -0.252 OA
ATOM      3  O   UNL     1      21.664   6.848  22.718  0.00  0.00    -0.252 OA
ATOM      4  N   UNL     1      17.393   7.984  20.880  0.00  0.00    -0.278 N 
ATOM      5  N   UNL     1      15.675   7.429  19.541  0.00  0.00    -0.279 N 
ATOM      6  N   UNL     1      19.943   6.921  21.177  0.00  0.00    -0.282 N 
ATOM      7  N   UNL     1      20.996   4.876  21.695  0.00  0.00    -0.269 N 
ATOM      8  C   UNL     1      17.589   6.572  20.596  0.00  0.00    +0.112 C 
ATOM      9  C   UNL     1      16.551   6.271  19.519  0.00  0.00    +0.133 C 
ATOM     10  C   UNL     1      19.035   6.318  20.180  0.00  0.00    +0.133 C 
ATOM     11  C   UNL     1      18.319   8.685  21.752  0.00  0.00    +0.128 C 
ATOM     12  C   UNL     1      19.760   8.371  21.350  0.00  0.00    +0.128 C 
ATOM     13  C   UNL     1      16.209   8.480  20.313  0.00  0.00    +0.306 C 
ATOM     15  C   UNL     1      20.937   6.251  21.921  0.00  0.00    +0.307 C 
ATOM     28  H   UNL     1      20.143   4.400  21.421  0.00  0.00    +0.156 HD
ENDROOT
BRANCH   7  19
ATOM     19  C   UNL     1      22.138   4.041  21.775  0.00  0.00    +0.035 A 
ATOM     23  C   UNL     1      23.103   4.081  20.768  0.00  0.00    +0.023 A 
ATOM     24  C   UNL     1      22.298   3.181  22.861  0.00  0.00    +0.023 A 
ATOM     25  C   UNL     1      24.227   3.259  20.847  0.00  0.00    +0.002 A 
ATOM     26  C   UNL     1      23.424   2.360  22.940  0.00  0.00    +0.002 A 
ATOM     27  C   UNL     1      24.388   2.398  21.933  0.00  0.00    +0.000 A 
ENDBRANCH   7  19
BRANCH   5  14
ATOM     14  C   UNL     1      14.477   7.499  18.734  0.00  0.00    +0.144 C 
BRANCH  14  16
ATOM      1  F   UNL     1       9.817   7.649  21.893  0.00  0.00    -0.205 F 
ATOM     16  C   UNL     1      13.234   7.539  19.577  0.00  0.00    -0.030 A 
ATOM     17  C   UNL     1      13.074   6.634  20.626  0.00  0.00    +0.008 A 
ATOM     18  C   UNL     1      12.240   8.480  19.309  0.00  0.00    +0.008 A 
ATOM     20  C   UNL     1      11.920   6.671  21.408  0.00  0.00    +0.038 A 
ATOM     21  C   UNL     1      11.086   8.517  20.092  0.00  0.00    +0.038 A 
ATOM     22  C   UNL     1      10.926   7.613  21.142  0.00  0.00    +0.123 A 
ENDBRANCH  14  16
ENDBRANCH   5  14
TORSDOF 3
ENDMDL
MODEL 2
REMARK VINA RESULT:      -6.9     27.918     30.500
REMARK  Name = 75536998
REMARK  3 active torsions:
REMARK  status: ('A' for Active; 'I' for Inactive)
REMARK    1  A    between atoms: N_5  and  C_14
REMARK    2  A    between atoms: N_7  and  C_19
REMARK    3  A    between atoms: C_14  and  C_16
REMARK                            x       y       z     vdW  Elec       q    Type
REMARK                         _______ _______ _______ _____ _____    ______ ____
ROOT
ATOM      2  O   UNL     1      -1.193 -11.562  15.073  0.00  0.00    -0.252 OA
ATOM      3  O   UNL     1      -6.696 -10.251  19.045  0.00  0.00    -0.252 OA
ATOM      4  N   UNL     1      -3.363 -10.883  15.668  0.00  0.00    -0.278 N 
ATOM      5  N   UNL     1      -2.854 -11.036  13.484  0.00  0.00    -0.279 N 
ATOM      6  N   UNL     1      -5.789 -10.905  17.023  0.00  0.00    -0.282 N 
ATOM      7  N   UNL     1      -7.828  -9.723  17.091  0.00  0.00    -0.269 N 
ATOM      8  C   UNL     1      -4.542 -10.383  14.980  0.00  0.00    +0.112 C 
ATOM      9  C   UNL     1      -4.267 -10.700  13.512  0.00  0.00    +0.133 C 
ATOM     10  C   UNL     1      -5.796 -11.036  15.551  0.00  0.00    +0.133 C 
ATOM     11  C   UNL     1      -3.326 -10.907  17.120  0.00  0.00    +0.128 C 
ATOM     12  C   UNL     1      -4.617 -11.515  17.669  0.00  0.00    +0.128 C 
ATOM     13  C   UNL     1      -2.325 -11.202  14.780  0.00  0.00    +0.306 C 
ATOM     15  C   UNL     1      -6.781 -10.292  17.816  0.00  0.00    +0.307 C 
ATOM     28  H   UNL     1      -7.633  -9.389  16.153  0.00  0.00    +0.156 HD
ENDROOT
BRANCH   7  19
ATOM     19  C   UNL     1      -9.176  -9.575  17.502  0.00  0.00    +0.035 A 
ATOM     23  C   UNL     1      -9.712 -10.437  18.459  0.00  0.00    +0.023 A 
ATOM     24  C   UNL     1      -9.967  -8.568  16.951  0.00  0.00    +0.023 A 
ATOM     25  C   UNL     1     -11.038 -10.292  18.864  0.00  0.00    +0.002 A 
ATOM     26  C   UNL     1     -11.294  -8.421  17.357  0.00  0.00    +0.002 A 
ATOM     27  C   UNL     1     -11.830  -9.284  18.313  0.00  0.00    +0.000 A 
ENDBRANCH   7  19
BRANCH   5  14
ATOM     14  C   UNL     1      -2.154 -11.299  12.246  0.00  0.00    +0.144 C 
BRANCH  14  16
ATOM      1  F   UNL     1      -5.132  -9.667   7.755  0.00  0.00    -0.205 F 
ATOM     16  C   UNL     1      -2.948 -10.863  11.048  0.00  0.00    -0.030 A 
ATOM     17  C   UNL     1      -3.694 -11.798  10.330  0.00  0.00    +0.008 A 
ATOM     18  C   UNL     1      -2.939  -9.526  10.654  0.00  0.00    +0.008 A 
ATOM     20  C   UNL     1      -4.432 -11.393   9.217  0.00  0.00    +0.038 A 
ATOM     21  C   UNL     1      -3.677  -9.121   9.542  0.00  0.00    +0.038 A 
ATOM     22  C   UNL     1      -4.424 -10.055   8.823  0.00  0.00    +0.123 A 
ENDBRANCH  14  16
ENDBRANCH   5  14
TORSDOF 3
ENDMDL
MODEL 3
REMARK VINA RESULT:      -6.8     14.440     15.874
REMARK  Name = 75536998
REMARK  3 active torsions:
REMARK  status: ('A' for Active; 'I' for Inactive)
REMARK    1  A    between atoms: N_5  and  C_14
REMARK    2  A    between atoms: N_7  and  C_19
REMARK    3  A    between atoms: C_14  and  C_16
REMARK                            x       y       z     vdW  Elec       q    Type
REMARK                         _______ _______ _______ _____ _____    ______ ____
ROOT
ATOM      2  O   UNL     1      10.249   9.619   4.683  0.00  0.00    -0.252 OA
ATOM      3  O   UNL     1      17.060  10.782   4.877  0.00  0.00    -0.252 OA
ATOM      4  N   UNL     1      12.532   9.246   5.101  0.00  0.00    -0.278 N 
ATOM      5  N   UNL     1      11.101   7.537   5.392  0.00  0.00    -0.279 N 
ATOM      6  N   UNL     1      15.276   9.327   4.672  0.00  0.00    -0.282 N 
ATOM      7  N   UNL     1      17.282   8.621   5.689  0.00  0.00    -0.269 N 
ATOM      8  C   UNL     1      13.347   8.173   5.645  0.00  0.00    +0.112 C 
ATOM      9  C   UNL     1      12.415   6.965   5.627  0.00  0.00    +0.133 C 
ATOM     10  C   UNL     1      14.619   8.012   4.819  0.00  0.00    +0.133 C 
ATOM     11  C   UNL     1      13.132  10.536   4.806  0.00  0.00    +0.128 C 
ATOM     12  C   UNL     1      14.433  10.345   4.027  0.00  0.00    +0.128 C 
ATOM     13  C   UNL     1      11.176   8.895   5.019  0.00  0.00    +0.306 C 
ATOM     15  C   UNL     1      16.591   9.657   5.062  0.00  0.00    +0.307 C 
ATOM     28  H   UNL     1      16.746   7.932   6.205  0.00  0.00    +0.156 HD
ENDROOT
BRANCH   7  19
ATOM     19  C   UNL     1      18.680   8.388   5.673  0.00  0.00    +0.035 A 
ATOM     23  C   UNL     1      19.440   8.626   6.819  0.00  0.00    +0.023 A 
ATOM     24  C   UNL     1      19.296   7.922   4.512  0.00  0.00    +0.023 A 
ATOM     25  C   UNL     1      20.816   8.397   6.804  0.00  0.00    +0.002 A 
ATOM     26  C   UNL     1      20.672   7.691   4.498  0.00  0.00    +0.002 A 
ATOM     27  C   UNL     1      21.432   7.930   5.642  0.00  0.00    +0.000 A 
ENDBRANCH   7  19
BRANCH   5  14
ATOM     14  C   UNL     1       9.900   6.732   5.410  0.00  0.00    +0.144 C 
BRANCH  14  16
ATOM      1  F   UNL     1       9.074   4.300  10.421  0.00  0.00    -0.205 F 
ATOM     16  C   UNL     1       9.679   6.083   6.747  0.00  0.00    -0.030 A 
ATOM     17  C   UNL     1       9.224   6.844   7.824  0.00  0.00    +0.008 A 
ATOM     18  C   UNL     1       9.931   4.722   6.911  0.00  0.00    +0.008 A 
ATOM     20  C   UNL     1       9.020   6.241   9.065  0.00  0.00    +0.038 A 
ATOM     21  C   UNL     1       9.726   4.119   8.152  0.00  0.00    +0.038 A 
ATOM     22  C   UNL     1       9.270   4.879   9.230  0.00  0.00    +0.123 A 
ENDBRANCH  14  16
ENDBRANCH   5  14
TORSDOF 3
ENDMDL
MODEL 4
REMARK VINA RESULT:      -6.7      3.454      5.274
REMARK  Name = 75536998
REMARK  3 active torsions:
REMARK  status: ('A' for Active; 'I' for Inactive)
REMARK    1  A    between atoms: N_5  and  C_14
REMARK    2  A    between atoms: N_7  and  C_19
REMARK    3  A    between atoms: C_14  and  C_16
REMARK                            x       y       z     vdW  Elec       q    Type
REMARK                         _______ _______ _______ _____ _____    ______ ____
ROOT
ATOM      2  O   UNL     1      11.166   7.910  19.744  0.00  0.00    -0.252 OA
ATOM      3  O   UNL     1      17.931   6.504  19.551  0.00  0.00    -0.252 OA
ATOM      4  N   UNL     1      13.452   8.028  20.278  0.00  0.00    -0.278 N 
ATOM      5  N   UNL     1      11.993   9.136  21.581  0.00  0.00    -0.279 N 
ATOM      6  N   UNL     1      16.043   7.128  20.728  0.00  0.00    -0.282 N 
ATOM      7  N   UNL     1      18.161   7.962  21.340  0.00  0.00    -0.269 N 
ATOM      8  C   UNL     1      14.283   8.759  21.221  0.00  0.00    +0.112 C 
ATOM      9  C   UNL     1      13.282   9.323  22.225  0.00  0.00    +0.133 C 
ATOM     10  C   UNL     1      15.336   7.833  21.817  0.00  0.00    +0.133 C 
ATOM     11  C   UNL     1      14.070   7.206  19.252  0.00  0.00    +0.128 C 
ATOM     12  C   UNL     1      15.159   6.327  19.866  0.00  0.00    +0.128 C 
ATOM     13  C   UNL     1      12.088   8.310  20.443  0.00  0.00    +0.306 C 
ATOM     15  C   UNL     1      17.431   7.145  20.478  0.00  0.00    +0.307 C 
ATOM     28  H   UNL     1      17.696   8.769  21.743  0.00  0.00    +0.156 HD
ENDROOT
BRANCH   7  19
ATOM     19  C   UNL     1      19.503   7.784  21.761  0.00  0.00    +0.035 A 
ATOM     23  C   UNL     1      19.840   6.707  22.580  0.00  0.00    +0.023 A 
ATOM     24  C   UNL     1      20.486   8.686  21.354  0.00  0.00    +0.023 A 
ATOM     25  C   UNL     1      21.160   6.532  22.994  0.00  0.00    +0.002 A 
ATOM     26  C   UNL     1      21.807   8.509  21.767  0.00  0.00    +0.002 A 
ATOM     27  C   UNL     1      22.144   7.433  22.588  0.00  0.00    +0.000 A 
ENDBRANCH   7  19
BRANCH   5  14
ATOM     14  C   UNL     1      10.768   9.640  22.159  0.00  0.00    +0.144 C 
BRANCH  14  16
ATOM      1  F   UNL     1      11.397  14.841  24.223  0.00  0.00    -0.205 F 
ATOM     16  C   UNL     1      10.935  11.028  22.710  0.00  0.00    -0.030 A 
ATOM     17  C   UNL     1      11.213  12.090  21.849  0.00  0.00    +0.008 A 
ATOM     18  C   UNL     1      10.815  11.253  24.080  0.00  0.00    +0.008 A 
ATOM     20  C   UNL     1      11.369  13.378  22.361  0.00  0.00    +0.038 A 
ATOM     21  C   UNL     1      10.971  12.542  24.592  0.00  0.00    +0.038 A 
ATOM     22  C   UNL     1      11.248  13.605  23.732  0.00  0.00    +0.123 A 
ENDBRANCH  14  16
ENDBRANCH   5  14
TORSDOF 3
ENDMDL
MODEL 5
REMARK VINA RESULT:      -6.7      3.067      4.426
REMARK  Name = 75536998
REMARK  3 active torsions:
REMARK  status: ('A' for Active; 'I' for Inactive)
REMARK    1  A    between atoms: N_5  and  C_14
REMARK    2  A    between atoms: N_7  and  C_19
REMARK    3  A    between atoms: C_14  and  C_16
REMARK                            x       y       z     vdW  Elec       q    Type
REMARK                         _______ _______ _______ _____ _____    ______ ____
ROOT
ATOM      2  O   UNL     1      12.392   9.525  18.576  0.00  0.00    -0.252 OA
ATOM      3  O   UNL     1      18.022   5.612  19.451  0.00  0.00    -0.252 OA
ATOM      4  N   UNL     1      14.539   8.892  19.291  0.00  0.00    -0.278 N 
ATOM      5  N   UNL     1      13.664  10.797  20.101  0.00  0.00    -0.279 N 
ATOM      6  N   UNL     1      16.557   7.224  20.223  0.00  0.00    -0.282 N 
ATOM      7  N   UNL     1      18.839   7.306  20.808  0.00  0.00    -0.269 N 
ATOM      8  C   UNL     1      15.605   9.477  20.088  0.00  0.00    +0.112 C 
ATOM      9  C   UNL     1      14.926  10.643  20.802  0.00  0.00    +0.133 C 
ATOM     10  C   UNL     1      16.206   8.423  21.011  0.00  0.00    +0.133 C 
ATOM     11  C   UNL     1      14.763   7.643  18.585  0.00  0.00    +0.128 C 
ATOM     12  C   UNL     1      15.416   6.621  19.516  0.00  0.00    +0.128 C 
ATOM     13  C   UNL     1      13.405   9.715  19.235  0.00  0.00    +0.306 C 
ATOM     15  C   UNL     1      17.832   6.630  20.120  0.00  0.00    +0.307 C 
ATOM     28  H   UNL     1      18.742   8.308  20.934  0.00  0.00    +0.156 HD
ENDROOT
BRANCH   7  19
ATOM     19  C   UNL     1      20.003   6.748  21.394  0.00  0.00    +0.035 A 
ATOM     23  C   UNL     1      20.136   6.715  22.782  0.00  0.00    +0.023 A 
ATOM     24  C   UNL     1      21.013   6.232  20.584  0.00  0.00    +0.023 A 
ATOM     25  C   UNL     1      21.280   6.166  23.361  0.00  0.00    +0.002 A 
ATOM     26  C   UNL     1      22.158   5.682  21.163  0.00  0.00    +0.002 A 
ATOM     27  C   UNL     1      22.292   5.649  22.550  0.00  0.00    +0.000 A 
ENDBRANCH   7  19
BRANCH   5  14
ATOM     14  C   UNL     1      12.750  11.878  20.398  0.00  0.00    +0.144 C 
BRANCH  14  16
ATOM      1  F   UNL     1      10.739  11.552  25.648  0.00  0.00    -0.205 F 
ATOM     16  C   UNL     1      12.214  11.791  21.799  0.00  0.00    -0.030 A 
ATOM     17  C   UNL     1      11.368  10.742  22.156  0.00  0.00    +0.008 A 
ATOM     18  C   UNL     1      12.561  12.760  22.740  0.00  0.00    +0.008 A 
ATOM     20  C   UNL     1      10.869  10.661  23.457  0.00  0.00    +0.038 A 
ATOM     21  C   UNL     1      12.063  12.679  24.040  0.00  0.00    +0.038 A 
ATOM     22  C   UNL     1      11.217  11.629  24.399  0.00  0.00    +0.123 A 
ENDBRANCH  14  16
ENDBRANCH   5  14
TORSDOF 3
ENDMDL
MODEL 6
REMARK VINA RESULT:      -6.7     29.887     32.200
REMARK  Name = 75536998
REMARK  3 active torsions:
REMARK  status: ('A' for Active; 'I' for Inactive)
REMARK    1  A    between atoms: N_5  and  C_14
REMARK    2  A    between atoms: N_7  and  C_19
REMARK    3  A    between atoms: C_14  and  C_16
REMARK                            x       y       z     vdW  Elec       q    Type
REMARK                         _______ _______ _______ _____ _____    ______ ____
ROOT
ATOM      2  O   UNL     1     -14.389  -6.789  15.380  0.00  0.00    -0.252 OA
ATOM      3  O   UNL     1      -9.936 -11.150  18.366  0.00  0.00    -0.252 OA
ATOM      4  N   UNL     1     -12.342  -7.800  15.938  0.00  0.00    -0.278 N 
ATOM      5  N   UNL     1     -12.300  -5.883  14.765  0.00  0.00    -0.279 N 
ATOM      6  N   UNL     1     -10.437  -9.058  17.523  0.00  0.00    -0.282 N 
ATOM      7  N   UNL     1      -8.245  -9.912  17.372  0.00  0.00    -0.269 N 
ATOM      8  C   UNL     1     -10.938  -7.591  15.626  0.00  0.00    +0.112 C 
ATOM      9  C   UNL     1     -10.905  -6.187  15.029  0.00  0.00    +0.133 C 
ATOM     10  C   UNL     1     -10.091  -7.774  16.881  0.00  0.00    +0.133 C 
ATOM     11  C   UNL     1     -12.753  -8.979  16.681  0.00  0.00    +0.128 C 
ATOM     12  C   UNL     1     -11.854  -9.172  17.902  0.00  0.00    +0.128 C 
ATOM     13  C   UNL     1     -13.166  -6.823  15.361  0.00  0.00    +0.306 C 
ATOM     15  C   UNL     1      -9.554 -10.121  17.805  0.00  0.00    +0.307 C 
ATOM     28  H   UNL     1      -8.098  -9.316  16.565  0.00  0.00    +0.156 HD
ENDROOT
BRANCH   7  19
ATOM     19  C   UNL     1      -7.057 -10.420  17.954  0.00  0.00    +0.035 A 
ATOM     23  C   UNL     1      -7.003 -10.668  19.326  0.00  0.00    +0.023 A 
ATOM     24  C   UNL     1      -5.942 -10.673  17.156  0.00  0.00    +0.023 A 
ATOM     25  C   UNL     1      -5.834 -11.169  19.899  0.00  0.00    +0.002 A 
ATOM     26  C   UNL     1      -4.773 -11.175  17.729  0.00  0.00    +0.002 A 
ATOM     27  C   UNL     1      -4.718 -11.422  19.100  0.00  0.00    +0.000 A 
ENDBRANCH   7  19
BRANCH   5  14
ATOM     14  C   UNL     1     -12.706  -4.671  14.089  0.00  0.00    +0.144 C 
BRANCH  14  16
ATOM      1  F   UNL     1     -11.526  -4.835   8.585  0.00  0.00    -0.205 F 
ATOM     16  C   UNL     1     -12.391  -4.715  12.620  0.00  0.00    -0.030 A 
ATOM     17  C   UNL     1     -12.029  -3.547  11.951  0.00  0.00    +0.008 A 
ATOM     18  C   UNL     1     -12.462  -5.923  11.928  0.00  0.00    +0.008 A 
ATOM     20  C   UNL     1     -11.737  -3.587  10.587  0.00  0.00    +0.038 A 
ATOM     21  C   UNL     1     -12.169  -5.964  10.565  0.00  0.00    +0.038 A 
ATOM     22  C   UNL     1     -11.806  -4.796   9.894  0.00  0.00    +0.123 A 
ENDBRANCH  14  16
ENDBRANCH   5  14
TORSDOF 3
ENDMDL
MODEL 7
REMARK VINA RESULT:      -6.6     28.760     30.299
REMARK  Name = 75536998
REMARK  3 active torsions:
REMARK  status: ('A' for Active; 'I' for Inactive)
REMARK    1  A    between atoms: N_5  and  C_14
REMARK    2  A    between atoms: N_7  and  C_19
REMARK    3  A    between atoms: C_14  and  C_16
REMARK                            x       y       z     vdW  Elec       q    Type
REMARK                         _______ _______ _______ _____ _____    ______ ____
ROOT
ATOM      2  O   UNL     1      -5.387  -9.198   8.173  0.00  0.00    -0.252 OA
ATOM      3  O   UNL     1      -2.961 -10.615  14.488  0.00  0.00    -0.252 OA
ATOM      4  N   UNL     1      -5.347  -9.430  10.512  0.00  0.00    -0.278 N 
ATOM      5  N   UNL     1      -7.315  -8.995   9.517  0.00  0.00    -0.279 N 
ATOM      6  N   UNL     1      -4.710 -10.534  12.981  0.00  0.00    -0.282 N 
ATOM      7  N   UNL     1      -5.094 -10.161  15.277  0.00  0.00    -0.269 N 
ATOM      8  C   UNL     1      -6.282  -9.250  11.610  0.00  0.00    +0.112 C 
ATOM      9  C   UNL     1      -7.642  -9.177  10.920  0.00  0.00    +0.133 C 
ATOM     10  C   UNL     1      -6.134 -10.388  12.614  0.00  0.00    +0.133 C 
ATOM     11  C   UNL     1      -3.948  -9.706  10.788  0.00  0.00    +0.128 C 
ATOM     12  C   UNL     1      -3.827 -10.811  11.838  0.00  0.00    +0.128 C 
ATOM     13  C   UNL     1      -5.944  -9.203   9.263  0.00  0.00    +0.306 C 
ATOM     15  C   UNL     1      -4.166 -10.457  14.279  0.00  0.00    +0.307 C 
ATOM     28  H   UNL     1      -5.910  -9.615  15.023  0.00  0.00    +0.156 HD
ENDROOT
BRANCH   7  19
ATOM     19  C   UNL     1      -5.053 -10.564  16.635  0.00  0.00    +0.035 A 
ATOM     23  C   UNL     1      -6.095 -10.219  17.496  0.00  0.00    +0.023 A 
ATOM     24  C   UNL     1      -3.973 -11.306  17.110  0.00  0.00    +0.023 A 
ATOM     25  C   UNL     1      -6.056 -10.615  18.833  0.00  0.00    +0.002 A 
ATOM     26  C   UNL     1      -3.934 -11.704  18.447  0.00  0.00    +0.002 A 
ATOM     27  C   UNL     1      -4.975 -11.358  19.309  0.00  0.00    +0.000 A 
ENDBRANCH   7  19
BRANCH   5  14
ATOM     14  C   UNL     1      -8.334  -8.769   8.516  0.00  0.00    +0.144 C 
BRANCH  14  16
ATOM      1  F   UNL     1     -10.601  -3.632   8.945  0.00  0.00    -0.205 F 
ATOM     16  C   UNL     1      -8.939  -7.398   8.630  0.00  0.00    -0.030 A 
ATOM     17  C   UNL     1      -8.191  -6.275   8.277  0.00  0.00    +0.008 A 
ATOM     18  C   UNL     1     -10.247  -7.250   9.090  0.00  0.00    +0.008 A 
ATOM     20  C   UNL     1      -8.753  -5.003   8.383  0.00  0.00    +0.038 A 
ATOM     21  C   UNL     1     -10.808  -5.977   9.196  0.00  0.00    +0.038 A 
ATOM     22  C   UNL     1     -10.061  -4.853   8.843  0.00  0.00    +0.123 A 
ENDBRANCH  14  16
ENDBRANCH   5  14
TORSDOF 3
ENDMDL
MODEL 8
REMARK VINA RESULT:      -6.5      1.529      2.201
REMARK  Name = 75536998
REMARK  3 active torsions:
REMARK  status: ('A' for Active; 'I' for Inactive)
REMARK    1  A    between atoms: N_5  and  C_14
REMARK    2  A    between atoms: N_7  and  C_19
REMARK    3  A    between atoms: C_14  and  C_16
REMARK                            x       y       z     vdW  Elec       q    Type
REMARK                         _______ _______ _______ _____ _____    ______ ____
ROOT
ATOM      2  O   UNL     1      18.066  10.731  22.011  0.00  0.00    -0.252 OA
ATOM      3  O   UNL     1      22.976   6.097  23.490  0.00  0.00    -0.252 OA
ATOM      4  N   UNL     1      19.166   8.658  22.134  0.00  0.00    -0.278 N 
ATOM      5  N   UNL     1      17.299   8.802  20.892  0.00  0.00    -0.279 N 
ATOM      6  N   UNL     1      21.286   6.861  22.112  0.00  0.00    -0.282 N 
ATOM      7  N   UNL     1      21.693   4.549  22.333  0.00  0.00    -0.269 N 
ATOM      8  C   UNL     1      18.912   7.296  21.694  0.00  0.00    +0.112 C 
ATOM      9  C   UNL     1      17.780   7.448  20.681  0.00  0.00    +0.133 C 
ATOM     10  C   UNL     1      20.190   6.679  21.138  0.00  0.00    +0.133 C 
ATOM     11  C   UNL     1      20.303   8.943  22.993  0.00  0.00    +0.128 C 
ATOM     12  C   UNL     1      21.560   8.268  22.444  0.00  0.00    +0.128 C 
ATOM     13  C   UNL     1      18.163   9.546  21.719  0.00  0.00    +0.306 C 
ATOM     15  C   UNL     1      22.064   5.842  22.700  0.00  0.00    +0.307 C 
ATOM     28  H   UNL     1      20.724   4.383  22.083  0.00  0.00    +0.156 HD
ENDROOT
BRANCH   7  19
ATOM     19  C   UNL     1      22.531   3.410  22.234  0.00  0.00    +0.035 A 
ATOM     23  C   UNL     1      22.793   2.639  23.366  0.00  0.00    +0.023 A 
ATOM     24  C   UNL     1      23.093   3.061  21.007  0.00  0.00    +0.023 A 
ATOM     25  C   UNL     1      23.618   1.517  23.271  0.00  0.00    +0.002 A 
ATOM     26  C   UNL     1      23.916   1.939  20.911  0.00  0.00    +0.002 A 
ATOM     27  C   UNL     1      24.180   1.168  22.043  0.00  0.00    +0.000 A 
ENDBRANCH   7  19
BRANCH   5  14
ATOM     14  C   UNL     1      16.141   9.320  20.197  0.00  0.00    +0.144 C 
BRANCH  14  16
ATOM      1  F   UNL     1      11.600   6.081  20.969  0.00  0.00    -0.205 F 
ATOM     16  C   UNL     1      14.929   8.456  20.403  0.00  0.00    -0.030 A 
ATOM     17  C   UNL     1      14.257   8.478  21.625  0.00  0.00    +0.008 A 
ATOM     18  C   UNL     1      14.478   7.632  19.373  0.00  0.00    +0.008 A 
ATOM     20  C   UNL     1      13.132   7.676  21.816  0.00  0.00    +0.038 A 
ATOM     21  C   UNL     1      13.353   6.829  19.564  0.00  0.00    +0.038 A 
ATOM     22  C   UNL     1      12.680   6.851  20.786  0.00  0.00    +0.123 A 
ENDBRANCH  14  16
ENDBRANCH   5  14
TORSDOF 3
ENDMDL
MODEL 9
REMARK VINA RESULT:      -6.3     15.116     16.077
REMARK  Name = 75536998
REMARK  3 active torsions:
REMARK  status: ('A' for Active; 'I' for Inactive)
REMARK    1  A    between atoms: N_5  and  C_14
REMARK    2  A    between atoms: N_7  and  C_19
REMARK    3  A    between atoms: C_14  and  C_16
REMARK                            x       y       z     vdW  Elec       q    Type
REMARK                         _______ _______ _______ _____ _____    ______ ____
ROOT
ATOM      2  O   UNL     1      12.063  10.247   6.789  0.00  0.00    -0.252 OA
ATOM      3  O   UNL     1      18.855   9.901   5.555  0.00  0.00    -0.252 OA
ATOM      4  N   UNL     1      14.127   9.372   6.084  0.00  0.00    -0.278 N 
ATOM      5  N   UNL     1      12.255   8.246   5.556  0.00  0.00    -0.279 N 
ATOM      6  N   UNL     1      16.681   9.360   4.988  0.00  0.00    -0.282 N 
ATOM      7  N   UNL     1      18.442   7.859   4.536  0.00  0.00    -0.269 N 
ATOM      8  C   UNL     1      14.598   8.154   5.446  0.00  0.00    +0.112 C 
ATOM      9  C   UNL     1      13.324   7.514   4.901  0.00  0.00    +0.133 C 
ATOM     10  C   UNL     1      15.648   8.488   4.392  0.00  0.00    +0.133 C 
ATOM     11  C   UNL     1      15.082  10.345   6.585  0.00  0.00    +0.128 C 
ATOM     12  C   UNL     1      16.154  10.622   5.531  0.00  0.00    +0.128 C 
ATOM     13  C   UNL     1      12.731   9.395   6.219  0.00  0.00    +0.306 C 
ATOM     15  C   UNL     1      18.065   9.097   5.054  0.00  0.00    +0.307 C 
ATOM     28  H   UNL     1      17.768   7.102   4.571  0.00  0.00    +0.156 HD
ENDROOT
BRANCH   7  19
ATOM     19  C   UNL     1      19.675   7.524   3.922  0.00  0.00    +0.035 A 
ATOM     23  C   UNL     1      19.881   7.808   2.572  0.00  0.00    +0.023 A 
ATOM     24  C   UNL     1      20.680   6.910   4.667  0.00  0.00    +0.023 A 
ATOM     25  C   UNL     1      21.094   7.479   1.967  0.00  0.00    +0.002 A 
ATOM     26  C   UNL     1      21.894   6.581   4.063  0.00  0.00    +0.002 A 
ATOM     27  C   UNL     1      22.101   6.865   2.713  0.00  0.00    +0.000 A 
ENDBRANCH   7  19
BRANCH   5  14
ATOM     14  C   UNL     1      10.865   7.878   5.397  0.00  0.00    +0.144 C 
BRANCH  14  16
ATOM      1  F   UNL     1       9.407   3.635   8.800  0.00  0.00    -0.205 F 
ATOM     16  C   UNL     1      10.476   6.746   6.305  0.00  0.00    -0.030 A 
ATOM     17  C   UNL     1      10.264   5.472   5.778  0.00  0.00    +0.008 A 
ATOM     18  C   UNL     1      10.327   6.970   7.673  0.00  0.00    +0.008 A 
ATOM     20  C   UNL     1       9.903   4.421   6.622  0.00  0.00    +0.038 A 
ATOM     21  C   UNL     1       9.966   5.919   8.516  0.00  0.00    +0.038 A 
ATOM     22  C   UNL     1       9.754   4.644   7.991  0.00  0.00    +0.123 A 
ENDBRANCH  14  16
ENDBRANCH   5  14
TORSDOF 3
ENDMDL
MODEL 10
REMARK VINA RESULT:      -6.3     27.606     30.771
REMARK  Name = 75536998
REMARK  3 active torsions:
REMARK  status: ('A' for Active; 'I' for Inactive)
REMARK    1  A    between atoms: N_5  and  C_14
REMARK    2  A    between atoms: N_7  and  C_19
REMARK    3  A    between atoms: C_14  and  C_16
REMARK                            x       y       z     vdW  Elec       q    Type
REMARK                         _______ _______ _______ _____ _____    ______ ____
ROOT
ATOM      2  O   UNL     1     -10.994 -10.121  19.988  0.00  0.00    -0.252 OA
ATOM      3  O   UNL     1      -4.480 -11.982  18.620  0.00  0.00    -0.252 OA
ATOM      4  N   UNL     1      -9.075 -10.647  18.738  0.00  0.00    -0.278 N 
ATOM      5  N   UNL     1     -10.845  -9.778  17.659  0.00  0.00    -0.279 N 
ATOM      6  N   UNL     1      -6.375 -10.770  18.091  0.00  0.00    -0.282 N 
ATOM      7  N   UNL     1      -4.964 -11.584  16.387  0.00  0.00    -0.269 N 
ATOM      8  C   UNL     1      -8.703 -10.681  17.333  0.00  0.00    +0.112 C 
ATOM      9  C   UNL     1      -9.813  -9.891  16.644  0.00  0.00    +0.133 C 
ATOM     10  C   UNL     1      -7.301 -10.109  17.150  0.00  0.00    +0.133 C 
ATOM     11  C   UNL     1      -8.162 -11.163  19.743  0.00  0.00    +0.128 C 
ATOM     12  C   UNL     1      -6.754 -10.619  19.505  0.00  0.00    +0.128 C 
ATOM     13  C   UNL     1     -10.383 -10.179  18.929  0.00  0.00    +0.306 C 
ATOM     15  C   UNL     1      -5.204 -11.481  17.757  0.00  0.00    +0.307 C 
ATOM     28  H   UNL     1      -5.762 -11.574  15.760  0.00  0.00    +0.156 HD
ENDROOT
BRANCH   7  19
ATOM     19  C   UNL     1      -3.706 -11.675  15.739  0.00  0.00    +0.035 A 
ATOM     23  C   UNL     1      -3.467 -12.698  14.822  0.00  0.00    +0.023 A 
ATOM     24  C   UNL     1      -2.709 -10.742  16.018  0.00  0.00    +0.023 A 
ATOM     25  C   UNL     1      -2.230 -12.789  14.184  0.00  0.00    +0.002 A 
ATOM     26  C   UNL     1      -1.472 -10.831  15.379  0.00  0.00    +0.002 A 
ATOM     27  C   UNL     1      -1.232 -11.855  14.463  0.00  0.00    +0.000 A 
ENDBRANCH   7  19
BRANCH   5  14
ATOM     14  C   UNL     1     -12.134  -9.184  17.378  0.00  0.00    +0.144 C 
BRANCH  14  16
ATOM      1  F   UNL     1     -11.732  -4.914  13.729  0.00  0.00    -0.205 F 
ATOM     16  C   UNL     1     -12.026  -8.044  16.405  0.00  0.00    -0.030 A 
ATOM     17  C   UNL     1     -12.754  -8.075  15.215  0.00  0.00    +0.008 A 
ATOM     18  C   UNL     1     -11.200  -6.959  16.691  0.00  0.00    +0.008 A 
ATOM     20  C   UNL     1     -12.654  -7.017  14.311  0.00  0.00    +0.038 A 
ATOM     21  C   UNL     1     -11.100  -5.901  15.787  0.00  0.00    +0.038 A 
ATOM     22  C   UNL     1     -11.828  -5.930  14.597  0.00  0.00    +0.123 A 
ENDBRANCH  14  16
ENDBRANCH   5  14
TORSDOF 3
ENDMDL
