MODEL 1
REMARK VINA RESULT:      -7.0      0.000      0.000
REMARK  Name = 28990637
REMARK  3 active torsions:
REMARK  status: ('A' for Active; 'I' for Inactive)
REMARK    1  A    between atoms: N_3  and  C_13
REMARK    2  A    between atoms: C_13  and  C_18
REMARK    3  A    between atoms: C_16  and  C_19
REMARK                            x       y       z     vdW  Elec       q    Type
REMARK                         _______ _______ _______ _____ _____    ______ ____
ROOT
ATOM      2  O   UNL     1      13.877  11.109  22.748  0.00  0.00    -0.267 OA
ATOM      3  N   UNL     1      13.710   8.443  18.503  0.00  0.00    -0.297 NA
ATOM      4  N   UNL     1      13.398   9.136  21.601  0.00  0.00    -0.311 N 
ATOM      6  C   UNL     1      15.197   7.759  20.403  0.00  0.00    +0.024 C 
ATOM      7  C   UNL     1      12.867   7.007  20.367  0.00  0.00    +0.050 C 
ATOM      8  C   UNL     1      14.290   6.577  20.714  0.00  0.00    +0.017 C 
ATOM      9  C   UNL     1      15.087   8.132  18.910  0.00  0.00    +0.090 C 
ATOM     10  C   UNL     1      12.787   7.356  18.862  0.00  0.00    +0.094 C 
ATOM     11  C   UNL     1      14.826   8.924  21.330  0.00  0.00    +0.130 C 
ATOM     12  C   UNL     1      12.442   8.195  21.211  0.00  0.00    +0.026 A 
ATOM     14  C   UNL     1      11.157   8.352  21.565  0.00  0.00    +0.022 A 
ATOM     15  C   UNL     1      13.058  10.276  22.356  0.00  0.00    +0.259 A 
ATOM     16  C   UNL     1      11.604  10.443  22.710  0.00  0.00    +0.048 A 
ATOM     17  C   UNL     1      10.736   9.498  22.321  0.00  0.00    +0.015 A 
ENDROOT
BRANCH  16  19
ATOM      5  N   UNL     1      10.552  12.621  25.582  0.00  0.00    -0.263 NA
ATOM     19  C   UNL     1      11.131  11.620  23.459  0.00  0.00    +0.005 A 
ATOM     22  C   UNL     1      10.820  12.809  22.806  0.00  0.00    +0.011 A 
ATOM     24  C   UNL     1      10.981  11.579  24.835  0.00  0.00    +0.119 A 
ATOM     25  C   UNL     1      10.375  13.902  23.539  0.00  0.00    +0.020 A 
ATOM     26  C   UNL     1      10.259  13.759  24.913  0.00  0.00    +0.111 A 
ENDBRANCH  16  19
BRANCH   3  13
ATOM     13  C   UNL     1      13.640   8.738  17.074  0.00  0.00    +0.126 C 
BRANCH  13  18
ATOM      1  S   UNL     1      14.772  10.529  15.278  0.00  0.00    -0.100 S 
ATOM     18  C   UNL     1      14.030  10.157  16.775  0.00  0.00    +0.004 A 
ATOM     20  C   UNL     1      13.872  11.273  17.565  0.00  0.00    +0.012 A 
ATOM     21  C   UNL     1      14.369  12.450  16.934  0.00  0.00    +0.008 A 
ATOM     23  C   UNL     1      14.887  12.188  15.684  0.00  0.00    +0.045 A 
ENDBRANCH  13  18
ENDBRANCH   3  13
TORSDOF 3
ENDMDL
MODEL 2
REMARK VINA RESULT:      -6.9      2.255      3.768
REMARK  Name = 28990637
REMARK  3 active torsions:
REMARK  status: ('A' for Active; 'I' for Inactive)
REMARK    1  A    between atoms: N_3  and  C_13
REMARK    2  A    between atoms: C_13  and  C_18
REMARK    3  A    between atoms: C_16  and  C_19
REMARK                            x       y       z     vdW  Elec       q    Type
REMARK                         _______ _______ _______ _____ _____    ______ ____
ROOT
ATOM      2  O   UNL     1      10.543   9.739  22.216  0.00  0.00    -0.267 OA
ATOM      3  N   UNL     1      14.144   7.647  19.421  0.00  0.00    -0.297 NA
ATOM      4  N   UNL     1      11.898   9.727  20.318  0.00  0.00    -0.311 N 
ATOM      6  C   UNL     1      11.800   7.866  18.559  0.00  0.00    +0.024 C 
ATOM      7  C   UNL     1      13.367   9.726  18.273  0.00  0.00    +0.050 C 
ATOM      8  C   UNL     1      12.236   8.959  17.592  0.00  0.00    +0.017 C 
ATOM      9  C   UNL     1      12.987   6.930  18.870  0.00  0.00    +0.090 C 
ATOM     10  C   UNL     1      14.545   8.765  18.555  0.00  0.00    +0.094 C 
ATOM     11  C   UNL     1      11.220   8.522  19.819  0.00  0.00    +0.130 C 
ATOM     12  C   UNL     1      12.884  10.366  19.562  0.00  0.00    +0.026 A 
ATOM     14  C   UNL     1      13.411  11.526  19.984  0.00  0.00    +0.022 A 
ATOM     15  C   UNL     1      11.434  10.255  21.539  0.00  0.00    +0.259 A 
ATOM     16  C   UNL     1      12.068  11.540  22.003  0.00  0.00    +0.048 A 
ATOM     17  C   UNL     1      12.998  12.115  21.226  0.00  0.00    +0.015 A 
ENDROOT
BRANCH  16  19
ATOM      5  N   UNL     1      12.027  12.329  25.674  0.00  0.00    -0.263 NA
ATOM     19  C   UNL     1      11.690  12.157  23.287  0.00  0.00    +0.005 A 
ATOM     22  C   UNL     1      10.684  13.116  23.352  0.00  0.00    +0.011 A 
ATOM     24  C   UNL     1      12.325  11.802  24.465  0.00  0.00    +0.119 A 
ATOM     25  C   UNL     1      10.349  13.680  24.578  0.00  0.00    +0.020 A 
ATOM     26  C   UNL     1      11.044  13.257  25.699  0.00  0.00    +0.111 A 
ENDBRANCH  16  19
BRANCH   3  13
ATOM     13  C   UNL     1      15.263   6.737  19.652  0.00  0.00    +0.126 C 
BRANCH  13  18
ATOM      1  S   UNL     1      17.961   6.732  20.314  0.00  0.00    -0.100 S 
ATOM     18  C   UNL     1      16.388   7.405  20.387  0.00  0.00    +0.004 A 
ATOM     20  C   UNL     1      16.350   8.546  21.158  0.00  0.00    +0.012 A 
ATOM     21  C   UNL     1      17.628   8.871  21.697  0.00  0.00    +0.008 A 
ATOM     23  C   UNL     1      18.595   7.967  21.316  0.00  0.00    +0.045 A 
ENDBRANCH  13  18
ENDBRANCH   3  13
TORSDOF 3
ENDMDL
MODEL 3
REMARK VINA RESULT:      -6.8      3.118      6.886
REMARK  Name = 28990637
REMARK  3 active torsions:
REMARK  status: ('A' for Active; 'I' for Inactive)
REMARK    1  A    between atoms: N_3  and  C_13
REMARK    2  A    between atoms: C_13  and  C_18
REMARK    3  A    between atoms: C_16  and  C_19
REMARK                            x       y       z     vdW  Elec       q    Type
REMARK                         _______ _______ _______ _____ _____    ______ ____
ROOT
ATOM      2  O   UNL     1      14.215  12.125  17.917  0.00  0.00    -0.267 OA
ATOM      3  N   UNL     1      14.070   8.322  21.183  0.00  0.00    -0.297 NA
ATOM      4  N   UNL     1      13.076  10.373  18.952  0.00  0.00    -0.311 N 
ATOM      6  C   UNL     1      12.596  10.330  21.468  0.00  0.00    +0.024 C 
ATOM      7  C   UNL     1      11.845   8.475  20.057  0.00  0.00    +0.050 C 
ATOM      8  C   UNL     1      11.373   9.514  21.071  0.00  0.00    +0.017 C 
ATOM      9  C   UNL     1      13.669   9.409  22.085  0.00  0.00    +0.090 C 
ATOM     10  C   UNL     1      12.905   7.560  20.711  0.00  0.00    +0.094 C 
ATOM     11  C   UNL     1      13.107  11.087  20.235  0.00  0.00    +0.130 C 
ATOM     12  C   UNL     1      12.415   9.149  18.822  0.00  0.00    +0.026 A 
ATOM     14  C   UNL     1      12.303   8.568  17.617  0.00  0.00    +0.022 A 
ATOM     15  C   UNL     1      13.654  11.030  17.847  0.00  0.00    +0.259 A 
ATOM     16  C   UNL     1      13.542  10.337  16.515  0.00  0.00    +0.048 A 
ATOM     17  C   UNL     1      12.881   9.172  16.450  0.00  0.00    +0.015 A 
ENDROOT
BRANCH  16  19
ATOM      5  N   UNL     1      13.865  12.099  13.215  0.00  0.00    -0.263 NA
ATOM     19  C   UNL     1      14.149  10.913  15.302  0.00  0.00    +0.005 A 
ATOM     22  C   UNL     1      15.519  10.832  15.078  0.00  0.00    +0.011 A 
ATOM     24  C   UNL     1      13.372  11.551  14.348  0.00  0.00    +0.119 A 
ATOM     25  C   UNL     1      16.063  11.384  13.923  0.00  0.00    +0.020 A 
ATOM     26  C   UNL     1      15.201  12.002  13.031  0.00  0.00    +0.111 A 
ENDBRANCH  16  19
BRANCH   3  13
ATOM     13  C   UNL     1      15.046   7.444  21.823  0.00  0.00    +0.126 C 
BRANCH  13  18
ATOM      1  S   UNL     1      17.694   6.846  21.232  0.00  0.00    -0.100 S 
ATOM     18  C   UNL     1      16.029   6.883  20.835  0.00  0.00    +0.004 A 
ATOM     20  C   UNL     1      15.784   6.363  19.584  0.00  0.00    +0.012 A 
ATOM     21  C   UNL     1      16.979   5.928  18.942  0.00  0.00    +0.008 A 
ATOM     23  C   UNL     1      18.092   6.133  19.728  0.00  0.00    +0.045 A 
ENDBRANCH  13  18
ENDBRANCH   3  13
TORSDOF 3
ENDMDL
MODEL 4
REMARK VINA RESULT:      -6.5     24.969     26.661
REMARK  Name = 28990637
REMARK  3 active torsions:
REMARK  status: ('A' for Active; 'I' for Inactive)
REMARK    1  A    between atoms: N_3  and  C_13
REMARK    2  A    between atoms: C_13  and  C_18
REMARK    3  A    between atoms: C_16  and  C_19
REMARK                            x       y       z     vdW  Elec       q    Type
REMARK                         _______ _______ _______ _____ _____    ______ ____
ROOT
ATOM      2  O   UNL     1     -15.014   8.882  20.556  0.00  0.00    -0.267 OA
ATOM      3  N   UNL     1     -11.701   9.273  16.811  0.00  0.00    -0.297 NA
ATOM      4  N   UNL     1     -12.820   9.083  19.792  0.00  0.00    -0.311 N 
ATOM      6  C   UNL     1     -11.993  11.122  18.479  0.00  0.00    +0.024 C 
ATOM      7  C   UNL     1     -10.448   9.288  18.973  0.00  0.00    +0.050 C 
ATOM      8  C   UNL     1     -10.645  10.796  19.107  0.00  0.00    +0.017 C 
ATOM      9  C   UNL     1     -12.002  10.699  16.995  0.00  0.00    +0.090 C 
ATOM     10  C   UNL     1     -10.444   8.900  17.476  0.00  0.00    +0.094 C 
ATOM     11  C   UNL     1     -13.098  10.437  19.294  0.00  0.00    +0.130 C 
ATOM     12  C   UNL     1     -11.537   8.534  19.714  0.00  0.00    +0.026 A 
ATOM     14  C   UNL     1     -11.278   7.342  20.274  0.00  0.00    +0.022 A 
ATOM     15  C   UNL     1     -13.879   8.415  20.437  0.00  0.00    +0.259 A 
ATOM     16  C   UNL     1     -13.567   7.065  21.026  0.00  0.00    +0.048 A 
ATOM     17  C   UNL     1     -12.313   6.597  20.934  0.00  0.00    +0.015 A 
ENDROOT
BRANCH  16  19
ATOM      5  N   UNL     1     -16.518   4.788  21.484  0.00  0.00    -0.263 NA
ATOM     19  C   UNL     1     -14.611   6.260  21.685  0.00  0.00    +0.005 A 
ATOM     22  C   UNL     1     -14.697   6.193  23.072  0.00  0.00    +0.011 A 
ATOM     24  C   UNL     1     -15.537   5.545  20.943  0.00  0.00    +0.119 A 
ATOM     25  C   UNL     1     -15.693   5.426  23.665  0.00  0.00    +0.020 A 
ATOM     26  C   UNL     1     -16.571   4.747  22.834  0.00  0.00    +0.111 A 
ENDBRANCH  16  19
BRANCH   3  13
ATOM     13  C   UNL     1     -11.666   8.924  15.393  0.00  0.00    +0.126 C 
BRANCH  13  18
ATOM      1  S   UNL     1     -13.004   7.526  13.400  0.00  0.00    -0.100 S 
ATOM     18  C   UNL     1     -12.933   8.251  14.950  0.00  0.00    +0.004 A 
ATOM     20  C   UNL     1     -14.119   8.118  15.638  0.00  0.00    +0.012 A 
ATOM     21  C   UNL     1     -15.099   7.412  14.883  0.00  0.00    +0.008 A 
ATOM     23  C   UNL     1     -14.625   7.031  13.646  0.00  0.00    +0.045 A 
ENDBRANCH  13  18
ENDBRANCH   3  13
TORSDOF 3
ENDMDL
MODEL 5
REMARK VINA RESULT:      -6.4     27.025     29.083
REMARK  Name = 28990637
REMARK  3 active torsions:
REMARK  status: ('A' for Active; 'I' for Inactive)
REMARK    1  A    between atoms: N_3  and  C_13
REMARK    2  A    between atoms: C_13  and  C_18
REMARK    3  A    between atoms: C_16  and  C_19
REMARK                            x       y       z     vdW  Elec       q    Type
REMARK                         _______ _______ _______ _____ _____    ______ ____
ROOT
ATOM      2  O   UNL     1      -6.117 -11.796  10.892  0.00  0.00    -0.267 OA
ATOM      3  N   UNL     1      -3.225 -11.103  14.931  0.00  0.00    -0.297 NA
ATOM      4  N   UNL     1      -4.016 -11.709  11.901  0.00  0.00    -0.311 N 
ATOM      6  C   UNL     1      -3.307 -13.320  13.763  0.00  0.00    +0.024 C 
ATOM      7  C   UNL     1      -1.745 -11.604  12.982  0.00  0.00    +0.050 C 
ATOM      8  C   UNL     1      -1.904 -13.105  13.213  0.00  0.00    +0.017 C 
ATOM      9  C   UNL     1      -3.483 -12.541  15.083  0.00  0.00    +0.090 C 
ATOM     10  C   UNL     1      -1.909 -10.855  14.324  0.00  0.00    +0.094 C 
ATOM     11  C   UNL     1      -4.327 -12.906  12.693  0.00  0.00    +0.130 C 
ATOM     12  C   UNL     1      -2.758 -11.105  11.968  0.00  0.00    +0.026 A 
ATOM     14  C   UNL     1      -2.457 -10.081  11.154  0.00  0.00    +0.022 A 
ATOM     15  C   UNL     1      -5.008 -11.268  11.004  0.00  0.00    +0.259 A 
ATOM     16  C   UNL     1      -4.655 -10.096  10.127  0.00  0.00    +0.048 A 
ATOM     17  C   UNL     1      -3.425  -9.568  10.226  0.00  0.00    +0.015 A 
ENDROOT
BRANCH  16  19
ATOM      5  N   UNL     1      -7.443  -7.977   8.772  0.00  0.00    -0.263 NA
ATOM     19  C   UNL     1      -5.632  -9.524   9.184  0.00  0.00    +0.005 A 
ATOM     22  C   UNL     1      -5.689  -9.954   7.863  0.00  0.00    +0.011 A 
ATOM     24  C   UNL     1      -6.522  -8.542   9.586  0.00  0.00    +0.119 A 
ATOM     25  C   UNL     1      -6.623  -9.397   6.996  0.00  0.00    +0.020 A 
ATOM     26  C   UNL     1      -7.469  -8.420   7.495  0.00  0.00    +0.111 A 
ENDBRANCH  16  19
BRANCH   3  13
ATOM     13  C   UNL     1      -3.350 -10.410  16.211  0.00  0.00    +0.126 C 
BRANCH  13  18
ATOM      1  S   UNL     1      -5.299 -10.851  18.141  0.00  0.00    -0.100 S 
ATOM     18  C   UNL     1      -4.785 -10.248  16.623  0.00  0.00    +0.004 A 
ATOM     20  C   UNL     1      -5.814  -9.653  15.928  0.00  0.00    +0.012 A 
ATOM     21  C   UNL     1      -7.041  -9.693  16.651  0.00  0.00    +0.008 A 
ATOM     23  C   UNL     1      -6.903 -10.317  17.871  0.00  0.00    +0.045 A 
ENDBRANCH  13  18
ENDBRANCH   3  13
TORSDOF 3
ENDMDL
MODEL 6
REMARK VINA RESULT:      -6.4     27.693     29.938
REMARK  Name = 28990637
REMARK  3 active torsions:
REMARK  status: ('A' for Active; 'I' for Inactive)
REMARK    1  A    between atoms: N_3  and  C_13
REMARK    2  A    between atoms: C_13  and  C_18
REMARK    3  A    between atoms: C_16  and  C_19
REMARK                            x       y       z     vdW  Elec       q    Type
REMARK                         _______ _______ _______ _____ _____    ______ ____
ROOT
ATOM      2  O   UNL     1      -5.519 -13.170  15.776  0.00  0.00    -0.267 OA
ATOM      3  N   UNL     1      -9.832 -11.726  17.889  0.00  0.00    -0.297 NA
ATOM      4  N   UNL     1      -6.770 -12.589  17.656  0.00  0.00    -0.311 N 
ATOM      6  C   UNL     1      -8.799 -13.943  18.441  0.00  0.00    +0.024 C 
ATOM      7  C   UNL     1      -8.112 -11.951  19.688  0.00  0.00    +0.050 C 
ATOM      8  C   UNL     1      -8.413 -13.441  19.826  0.00  0.00    +0.017 C 
ATOM      9  C   UNL     1     -10.038 -13.179  17.928  0.00  0.00    +0.090 C 
ATOM     10  C   UNL     1      -9.377 -11.214  19.190  0.00  0.00    +0.094 C 
ATOM     11  C   UNL     1      -7.590 -13.799  17.508  0.00  0.00    +0.130 C 
ATOM     12  C   UNL     1      -6.954 -11.721  18.735  0.00  0.00    +0.026 A 
ATOM     14  C   UNL     1      -6.122 -10.682  18.914  0.00  0.00    +0.022 A 
ATOM     15  C   UNL     1      -5.733 -12.407  16.720  0.00  0.00    +0.259 A 
ATOM     16  C   UNL     1      -4.838 -11.215  16.927  0.00  0.00    +0.048 A 
ATOM     17  C   UNL     1      -5.053 -10.426  17.990  0.00  0.00    +0.015 A 
ENDROOT
BRANCH  16  19
ATOM      5  N   UNL     1      -3.054 -10.425  13.719  0.00  0.00    -0.263 NA
ATOM     19  C   UNL     1      -3.749 -10.904  15.984  0.00  0.00    +0.005 A 
ATOM     22  C   UNL     1      -2.433 -10.794  16.419  0.00  0.00    +0.011 A 
ATOM     24  C   UNL     1      -4.005 -10.712  14.636  0.00  0.00    +0.119 A 
ATOM     25  C   UNL     1      -1.427 -10.501  15.505  0.00  0.00    +0.020 A 
ATOM     26  C   UNL     1      -1.786 -10.326  14.178  0.00  0.00    +0.111 A 
ENDBRANCH  16  19
BRANCH   3  13
ATOM     13  C   UNL     1     -11.043 -11.037  17.450  0.00  0.00    +0.126 C 
BRANCH  13  18
ATOM      1  S   UNL     1      -9.451  -9.287  15.994  0.00  0.00    -0.100 S 
ATOM     18  C   UNL     1     -10.764  -9.619  17.041  0.00  0.00    +0.004 A 
ATOM     20  C   UNL     1     -11.442  -8.475  17.399  0.00  0.00    +0.012 A 
ATOM     21  C   UNL     1     -10.876  -7.310  16.806  0.00  0.00    +0.008 A 
ATOM     23  C   UNL     1      -9.786  -7.608  16.017  0.00  0.00    +0.045 A 
ENDBRANCH  13  18
ENDBRANCH   3  13
TORSDOF 3
ENDMDL
MODEL 7
REMARK VINA RESULT:      -6.3     16.689     19.829
REMARK  Name = 28990637
REMARK  3 active torsions:
REMARK  status: ('A' for Active; 'I' for Inactive)
REMARK    1  A    between atoms: N_3  and  C_13
REMARK    2  A    between atoms: C_13  and  C_18
REMARK    3  A    between atoms: C_16  and  C_19
REMARK                            x       y       z     vdW  Elec       q    Type
REMARK                         _______ _______ _______ _____ _____    ______ ____
ROOT
ATOM      2  O   UNL     1      12.440   7.378   3.477  0.00  0.00    -0.267 OA
ATOM      3  N   UNL     1      13.175   4.797  -0.759  0.00  0.00    -0.297 NA
ATOM      4  N   UNL     1      12.898   5.381   2.364  0.00  0.00    -0.311 N 
ATOM      6  C   UNL     1      15.002   5.041   0.941  0.00  0.00    +0.024 C 
ATOM      7  C   UNL     1      13.382   3.219   1.167  0.00  0.00    +0.050 C 
ATOM      8  C   UNL     1      14.856   3.578   1.337  0.00  0.00    +0.017 C 
ATOM      9  C   UNL     1      14.555   5.239  -0.523  0.00  0.00    +0.090 C 
ATOM     10  C   UNL     1      12.971   3.411  -0.311  0.00  0.00    +0.094 C 
ATOM     11  C   UNL     1      14.199   5.903   1.923  0.00  0.00    +0.130 C 
ATOM     12  C   UNL     1      12.512   4.070   2.074  0.00  0.00    +0.026 A 
ATOM     14  C   UNL     1      11.370   3.576   2.580  0.00  0.00    +0.022 A 
ATOM     15  C   UNL     1      12.116   6.228   3.172  0.00  0.00    +0.259 A 
ATOM     16  C   UNL     1      10.825   5.658   3.697  0.00  0.00    +0.048 A 
ATOM     17  C   UNL     1      10.515   4.388   3.399  0.00  0.00    +0.015 A 
ENDROOT
BRANCH  16  19
ATOM      5  N   UNL     1       9.170   7.175   6.707  0.00  0.00    -0.263 NA
ATOM     19  C   UNL     1       9.908   6.471   4.516  0.00  0.00    +0.005 A 
ATOM     22  C   UNL     1       8.943   7.280   3.923  0.00  0.00    +0.011 A 
ATOM     24  C   UNL     1       9.979   6.455   5.899  0.00  0.00    +0.119 A 
ATOM     25  C   UNL     1       8.092   8.035   4.722  0.00  0.00    +0.020 A 
ATOM     26  C   UNL     1       8.244   7.949   6.096  0.00  0.00    +0.111 A 
ENDBRANCH  16  19
BRANCH   3  13
ATOM     13  C   UNL     1      12.809   4.951  -2.165  0.00  0.00    +0.126 C 
BRANCH  13  18
ATOM      1  S   UNL     1      10.613   4.220  -3.702  0.00  0.00    -0.100 S 
ATOM     18  C   UNL     1      11.321   5.005  -2.355  0.00  0.00    +0.004 A 
ATOM     20  C   UNL     1      10.378   5.625  -1.565  0.00  0.00    +0.012 A 
ATOM     21  C   UNL     1       9.058   5.455  -2.072  0.00  0.00    +0.008 A 
ATOM     23  C   UNL     1       9.042   4.710  -3.232  0.00  0.00    +0.045 A 
ENDBRANCH  13  18
ENDBRANCH   3  13
TORSDOF 3
ENDMDL
MODEL 8
REMARK VINA RESULT:      -6.3      2.818      6.734
REMARK  Name = 28990637
REMARK  3 active torsions:
REMARK  status: ('A' for Active; 'I' for Inactive)
REMARK    1  A    between atoms: N_3  and  C_13
REMARK    2  A    between atoms: C_13  and  C_18
REMARK    3  A    between atoms: C_16  and  C_19
REMARK                            x       y       z     vdW  Elec       q    Type
REMARK                         _______ _______ _______ _____ _____    ______ ____
ROOT
ATOM      2  O   UNL     1      11.940   9.568  17.007  0.00  0.00    -0.267 OA
ATOM      3  N   UNL     1      11.523   9.950  21.990  0.00  0.00    -0.297 NA
ATOM      4  N   UNL     1      12.628   8.986  19.158  0.00  0.00    -0.311 N 
ATOM      6  C   UNL     1      11.100   7.773  20.819  0.00  0.00    +0.024 C 
ATOM      7  C   UNL     1      13.383   8.363  21.477  0.00  0.00    +0.050 C 
ATOM      8  C   UNL     1      12.399   7.201  21.370  0.00  0.00    +0.017 C 
ATOM      9  C   UNL     1      10.558   8.864  21.766  0.00  0.00    +0.090 C 
ATOM     10  C   UNL     1      12.820   9.429  22.445  0.00  0.00    +0.094 C 
ATOM     11  C   UNL     1      11.353   8.297  19.399  0.00  0.00    +0.130 C 
ATOM     12  C   UNL     1      13.648   8.972  20.112  0.00  0.00    +0.026 A 
ATOM     14  C   UNL     1      14.845   9.511  19.829  0.00  0.00    +0.022 A 
ATOM     15  C   UNL     1      12.804   9.566  17.886  0.00  0.00    +0.259 A 
ATOM     16  C   UNL     1      14.145  10.193  17.609  0.00  0.00    +0.048 A 
ATOM     17  C   UNL     1      15.090  10.134  18.559  0.00  0.00    +0.015 A 
ENDROOT
BRANCH  16  19
ATOM      5  N   UNL     1      15.092  10.703  14.011  0.00  0.00    -0.263 NA
ATOM     19  C   UNL     1      14.423  10.867  16.328  0.00  0.00    +0.005 A 
ATOM     22  C   UNL     1      14.293  12.246  16.201  0.00  0.00    +0.011 A 
ATOM     24  C   UNL     1      14.821  10.147  15.214  0.00  0.00    +0.119 A 
ATOM     25  C   UNL     1      14.563  12.853  14.980  0.00  0.00    +0.020 A 
ATOM     26  C   UNL     1      14.955  12.045  13.925  0.00  0.00    +0.111 A 
ENDBRANCH  16  19
BRANCH   3  13
ATOM     13  C   UNL     1      10.994  10.933  22.932  0.00  0.00    +0.126 C 
BRANCH  13  18
ATOM      1  S   UNL     1      10.544  13.642  23.353  0.00  0.00    -0.100 S 
ATOM     18  C   UNL     1      11.121  12.335  22.409  0.00  0.00    +0.004 A 
ATOM     20  C   UNL     1      11.663  12.759  21.216  0.00  0.00    +0.012 A 
ATOM     21  C   UNL     1      11.603  14.175  21.074  0.00  0.00    +0.008 A 
ATOM     23  C   UNL     1      11.018  14.780  22.165  0.00  0.00    +0.045 A 
ENDBRANCH  13  18
ENDBRANCH   3  13
TORSDOF 3
ENDMDL
MODEL 9
REMARK VINA RESULT:      -6.3     14.339     18.141
REMARK  Name = 28990637
REMARK  3 active torsions:
REMARK  status: ('A' for Active; 'I' for Inactive)
REMARK    1  A    between atoms: N_3  and  C_13
REMARK    2  A    between atoms: C_13  and  C_18
REMARK    3  A    between atoms: C_16  and  C_19
REMARK                            x       y       z     vdW  Elec       q    Type
REMARK                         _______ _______ _______ _____ _____    ______ ____
ROOT
ATOM      2  O   UNL     1      10.009   7.159   1.899  0.00  0.00    -0.267 OA
ATOM      3  N   UNL     1      10.777   8.557   6.654  0.00  0.00    -0.297 NA
ATOM      4  N   UNL     1       9.567   6.949   4.179  0.00  0.00    -0.311 N 
ATOM      6  C   UNL     1       8.534   8.838   5.568  0.00  0.00    +0.024 C 
ATOM      7  C   UNL     1       9.095   6.710   6.640  0.00  0.00    +0.050 C 
ATOM      8  C   UNL     1       7.962   7.707   6.411  0.00  0.00    +0.017 C 
ATOM      9  C   UNL     1       9.711   9.507   6.309  0.00  0.00    +0.090 C 
ATOM     10  C   UNL     1      10.248   7.405   7.399  0.00  0.00    +0.094 C 
ATOM     11  C   UNL     1       8.942   8.278   4.199  0.00  0.00    +0.130 C 
ATOM     12  C   UNL     1       9.591   6.146   5.322  0.00  0.00    +0.026 A 
ATOM     14  C   UNL     1      10.066   4.892   5.255  0.00  0.00    +0.022 A 
ATOM     15  C   UNL     1      10.045   6.492   2.935  0.00  0.00    +0.259 A 
ATOM     16  C   UNL     1      10.603   5.094   2.898  0.00  0.00    +0.048 A 
ATOM     17  C   UNL     1      10.584   4.365   4.024  0.00  0.00    +0.015 A 
ENDROOT
BRANCH  16  19
ATOM      5  N   UNL     1      10.857   3.894  -0.651  0.00  0.00    -0.263 NA
ATOM     19  C   UNL     1      11.170   4.531   1.660  0.00  0.00    +0.005 A 
ATOM     22  C   UNL     1      12.495   4.112   1.604  0.00  0.00    +0.011 A 
ATOM     24  C   UNL     1      10.400   4.402   0.516  0.00  0.00    +0.119 A 
ATOM     25  C   UNL     1      13.001   3.583   0.422  0.00  0.00    +0.020 A 
ATOM     26  C   UNL     1      12.149   3.497  -0.668  0.00  0.00    +0.111 A 
ENDBRANCH  16  19
BRANCH   3  13
ATOM     13  C   UNL     1      11.845   9.218   7.400  0.00  0.00    +0.126 C 
BRANCH  13  18
ATOM      1  S   UNL     1      14.316  10.020   6.415  0.00  0.00    -0.100 S 
ATOM     18  C   UNL     1      13.205   8.813   6.908  0.00  0.00    +0.004 A 
ATOM     20  C   UNL     1      13.730   7.546   6.784  0.00  0.00    +0.012 A 
ATOM     21  C   UNL     1      15.061   7.565   6.277  0.00  0.00    +0.008 A 
ATOM     23  C   UNL     1      15.504   8.847   6.033  0.00  0.00    +0.045 A 
ENDBRANCH  13  18
ENDBRANCH   3  13
TORSDOF 3
ENDMDL
MODEL 10
REMARK VINA RESULT:      -6.1     27.028     28.986
REMARK  Name = 28990637
REMARK  3 active torsions:
REMARK  status: ('A' for Active; 'I' for Inactive)
REMARK    1  A    between atoms: N_3  and  C_13
REMARK    2  A    between atoms: C_13  and  C_18
REMARK    3  A    between atoms: C_16  and  C_19
REMARK                            x       y       z     vdW  Elec       q    Type
REMARK                         _______ _______ _______ _____ _____    ______ ____
ROOT
ATOM      2  O   UNL     1      -6.734 -10.382  14.127  0.00  0.00    -0.267 OA
ATOM      3  N   UNL     1      -2.576 -13.061  13.299  0.00  0.00    -0.297 NA
ATOM      4  N   UNL     1      -4.419 -10.635  14.242  0.00  0.00    -0.311 N 
ATOM      6  C   UNL     1      -2.946 -10.860  12.157  0.00  0.00    +0.024 C 
ATOM      7  C   UNL     1      -1.919 -10.906  14.379  0.00  0.00    +0.050 C 
ATOM      8  C   UNL     1      -1.876 -10.208  13.022  0.00  0.00    +0.017 C 
ATOM      9  C   UNL     1      -2.658 -12.368  12.006  0.00  0.00    +0.090 C 
ATOM     10  C   UNL     1      -1.610 -12.410  14.196  0.00  0.00    +0.094 C 
ATOM     11  C   UNL     1      -4.321 -10.581  12.777  0.00  0.00    +0.130 C 
ATOM     12  C   UNL     1      -3.274 -10.719  15.038  0.00  0.00    +0.026 A 
ATOM     14  C   UNL     1      -3.376 -10.655  16.375  0.00  0.00    +0.022 A 
ATOM     15  C   UNL     1      -5.705 -10.494  14.797  0.00  0.00    +0.259 A 
ATOM     16  C   UNL     1      -5.793 -10.459  16.300  0.00  0.00    +0.048 A 
ATOM     17  C   UNL     1      -4.657 -10.528  17.011  0.00  0.00    +0.015 A 
ENDROOT
BRANCH  16  19
ATOM      5  N   UNL     1      -8.784 -11.400  18.365  0.00  0.00    -0.263 NA
ATOM     19  C   UNL     1      -7.092 -10.359  16.987  0.00  0.00    +0.005 A 
ATOM     22  C   UNL     1      -7.846  -9.192  16.930  0.00  0.00    +0.011 A 
ATOM     24  C   UNL     1      -7.600 -11.425  17.712  0.00  0.00    +0.119 A 
ATOM     25  C   UNL     1      -9.069  -9.128  17.588  0.00  0.00    +0.020 A 
ATOM     26  C   UNL     1      -9.490 -10.249  18.286  0.00  0.00    +0.111 A 
ENDBRANCH  16  19
BRANCH   3  13
ATOM     13  C   UNL     1      -2.250 -14.474  13.116  0.00  0.00    +0.126 C 
BRANCH  13  18
ATOM      1  S   UNL     1      -4.191 -15.022  15.026  0.00  0.00    -0.100 S 
ATOM     18  C   UNL     1      -2.668 -15.303  14.296  0.00  0.00    +0.004 A 
ATOM     20  C   UNL     1      -1.974 -16.316  14.920  0.00  0.00    +0.012 A 
ATOM     21  C   UNL     1      -2.702 -16.869  16.012  0.00  0.00    +0.008 A 
ATOM     23  C   UNL     1      -3.925 -16.257  16.181  0.00  0.00    +0.045 A 
ENDBRANCH  13  18
ENDBRANCH   3  13
TORSDOF 3
ENDMDL
