REMARK  Name = 75536736
REMARK  9 active torsions:
REMARK  status: ('A' for Active; 'I' for Inactive)
REMARK    1  A    between atoms: O_2  and  C_10
REMARK    2  A    between atoms: N_4  and  C_9
REMARK    3  A    between atoms: N_4  and  C_14
REMARK    4  A    between atoms: N_5  and  C_13
REMARK    5  A    between atoms: N_6  and  C_17
REMARK    6  A    between atoms: C_11  and  C_13
REMARK    7  A    between atoms: C_14  and  C_15
REMARK    8  A    between atoms: C_17  and  C_20
REMARK    9  A    between atoms: C_17  and  C_21
REMARK                            x       y       z     vdW  Elec       q    Type
REMARK                         _______ _______ _______ _____ _____    ______ ____
ROOT
ATOM      1  O   UNL     1       0.556   1.111  -0.430  0.00  0.00    -0.371 OA
ATOM      9  C   UNL     1      -1.412   0.003   0.305  0.00  0.00    +0.111 C 
ATOM     10  C   UNL     1      -0.435  -1.027  -0.232  0.00  0.00    +0.164 C 
ATOM     11  C   UNL     1       0.877  -0.261  -0.144  0.00  0.00    +0.165 C 
ATOM     12  C   UNL     1      -0.867   1.282  -0.307  0.00  0.00    +0.181 C 
ENDROOT
BRANCH  10   2
ATOM      2  O   UNL     1      -0.408  -2.210   0.543  0.00  0.00    -0.388 OA
ATOM     23  H   UNL     1      -0.200  -1.969   1.462  0.00  0.00    +0.210 HD
ENDBRANCH  10   2
BRANCH   9   4
ATOM      4  N   UNL     1      -2.794  -0.257  -0.062  0.00  0.00    -0.304 NA
ATOM     22  H   UNL     1      -2.998  -1.245   0.090  0.00  0.00    +0.123 HD
BRANCH   4  14
ATOM     14  C   UNL     1      -3.710   0.545   0.740  0.00  0.00    +0.136 C 
BRANCH  14  15
ATOM      7  N   UNL     1      -5.976   1.298  -0.071  0.00  0.00    -0.347 N 
ATOM      8  N   UNL     1      -7.197  -0.557  -0.081  0.00  0.00    -0.244 NA
ATOM     15  C   UNL     1      -5.147   0.302   0.362  0.00  0.00    +0.049 A 
ATOM     18  C   UNL     1      -5.923  -0.833   0.348  0.00  0.00    +0.134 A 
ATOM     19  C   UNL     1      -7.196   0.735  -0.325  0.00  0.00    +0.196 A 
ATOM     26  H   UNL     1      -5.735   2.274  -0.185  0.00  0.00    +0.167 HD
ENDBRANCH  14  15
ENDBRANCH   4  14
ENDBRANCH   9   4
BRANCH  11  13
ATOM     13  C   UNL     1       1.929  -0.756  -1.121  0.00  0.00    +0.140 C 
BRANCH  13   5
ATOM      3  O   UNL     1       4.172  -1.331   0.600  0.00  0.00    -0.253 OA
ATOM      5  N   UNL     1       3.144  -0.004  -1.006  0.00  0.00    -0.297 N 
ATOM      6  N   UNL     1       5.247   0.550  -0.231  0.00  0.00    -0.297 N 
ATOM     16  C   UNL     1       4.188  -0.351  -0.143  0.00  0.00    +0.300 C 
ATOM     24  H   UNL     1       3.246   0.834  -1.571  0.00  0.00    +0.150 HD
ATOM     25  H   UNL     1       5.198   1.285  -0.930  0.00  0.00    +0.150 HD
BRANCH   6  17
ATOM     17  C   UNL     1       6.451   0.421   0.555  0.00  0.00    +0.068 C 
ATOM     20  C   UNL     1       7.469  -0.455  -0.165  0.00  0.00    +0.027 C 
ATOM     21  C   UNL     1       7.029   1.795   0.867  0.00  0.00    +0.027 C 
ENDBRANCH   6  17
ENDBRANCH  13   5
ENDBRANCH  11  13
TORSDOF 7
