REMARK  Name = 7673717
REMARK  6 active torsions:
REMARK  status: ('A' for Active; 'I' for Inactive)
REMARK    1  A    between atoms: N_5  and  C_19
REMARK    2  A    between atoms: C_8  and  C_12
REMARK    3  A    between atoms: C_11  and  C_23
REMARK    4  A    between atoms: C_12  and  C_19
REMARK    5  A    between atoms: C_18  and  C_26
REMARK    6  A    between atoms: C_19  and  C_28
REMARK                            x       y       z     vdW  Elec       q    Type
REMARK                         _______ _______ _______ _____ _____    ______ ____
ROOT
ATOM      2  O   UNL     1      -0.183   0.669   1.043  0.00  0.00    -0.274 OA
ATOM      5  N   UNL     1       1.444   0.871  -0.609  0.00  0.00    -0.302 N 
ATOM     26  C   UNL     1       0.241   0.431  -0.085  0.00  0.00    +0.235 C 
ATOM     29  H   UNL     1       1.640   0.717  -1.594  0.00  0.00    +0.150 HD
ENDROOT
BRANCH  26  18
ATOM      1  O   UNL     1      -2.907   1.136  -1.378  0.00  0.00    -0.275 OA
ATOM      4  N   UNL     1      -1.828  -0.694  -0.430  0.00  0.00    -0.287 N 
ATOM      6  N   UNL     1       0.270  -2.661  -0.501  0.00  0.00    -0.312 NA
ATOM     18  C   UNL     1      -0.548  -0.379  -1.073  0.00  0.00    +0.176 C 
ATOM     23  C   UNL     1      -2.906   0.180  -0.598  0.00  0.00    +0.219 C 
ATOM     24  C   UNL     1      -1.822  -1.834   0.497  0.00  0.00    +0.123 C 
ATOM     25  C   UNL     1       0.215  -1.622  -1.532  0.00  0.00    +0.113 C 
ATOM     27  C   UNL     1      -1.078  -3.034  -0.079  0.00  0.00    +0.100 C 
ATOM     30  H   UNL     1       0.787  -2.306   0.303  0.00  0.00    +0.122 HD
BRANCH  23  11
ATOM     11  C   UNL     1      -4.126  -0.089   0.233  0.00  0.00    +0.075 C 
ATOM     16  C   UNL     1      -5.053  -1.060  -0.501  0.00  0.00    +0.013 C 
ATOM     17  C   UNL     1      -4.837   1.227   0.558  0.00  0.00    +0.013 C 
ATOM     20  C   UNL     1      -6.352  -1.290   0.267  0.00  0.00    +0.001 C 
ATOM     21  C   UNL     1      -6.136   0.992   1.324  0.00  0.00    +0.001 C 
ATOM     22  C   UNL     1      -7.057   0.025   0.586  0.00  0.00    +0.000 C 
ENDBRANCH  23  11
ENDBRANCH  26  18
BRANCH   5  19
ATOM     19  C   UNL     1       2.377   1.688   0.132  0.00  0.00    +0.159 C 
BRANCH  19  28
ATOM      3  O   UNL     1       1.506   3.619  -1.060  0.00  0.00    -0.274 OA
ATOM      7  N   UNL     1       2.236   3.902   1.099  0.00  0.00    -0.328 N 
ATOM     28  C   UNL     1       1.979   3.150  -0.027  0.00  0.00    +0.231 C 
ATOM     31  H   UNL     1       2.024   4.894   1.122  0.00  0.00    +0.145 HD
ATOM     32  H   UNL     1       2.646   3.506   1.940  0.00  0.00    +0.145 HD
ENDBRANCH  19  28
BRANCH  19  12
ATOM     12  C   UNL     1       3.830   1.421  -0.275  0.00  0.00    +0.035 C 
BRANCH  12   8
ATOM      8  C   UNL     1       4.254  -0.042  -0.160  0.00  0.00    -0.009 C 
ATOM      9  C   UNL     1       5.704  -0.224  -0.628  0.00  0.00    +0.003 C 
ATOM     10  C   UNL     1       4.077  -0.546   1.279  0.00  0.00    +0.003 C 
ATOM     13  C   UNL     1       6.169  -1.670  -0.472  0.00  0.00    +0.000 C 
ATOM     14  C   UNL     1       4.545  -1.991   1.431  0.00  0.00    +0.000 C 
ATOM     15  C   UNL     1       5.984  -2.171   0.957  0.00  0.00    +0.000 C 
ENDBRANCH  12   8
ENDBRANCH  19  12
ENDBRANCH   5  19
TORSDOF 6
