MODEL 1
REMARK VINA RESULT:      -7.9      0.000      0.000
REMARK  Name = 56774604
REMARK  9 active torsions:
REMARK  status: ('A' for Active; 'I' for Inactive)
REMARK    1  A    between atoms: O_2  and  C_9
REMARK    2  A    between atoms: O_5  and  C_27
REMARK    3  A    between atoms: O_5  and  C_28
REMARK    4  A    between atoms: N_6  and  C_11
REMARK    5  A    between atoms: N_7  and  C_22
REMARK    6  A    between atoms: C_8  and  C_9
REMARK    7  A    between atoms: C_9  and  C_13
REMARK    8  A    between atoms: C_11  and  C_15
REMARK    9  A    between atoms: C_26  and  C_27
REMARK                            x       y       z     vdW  Elec       q    Type
REMARK                         _______ _______ _______ _____ _____    ______ ____
ROOT
ATOM      9  C   UNL     1      14.273   6.808  19.820  0.00  0.00    +0.167 C 
ENDROOT
BRANCH   9   8
ATOM      1  O   UNL     1      14.255   8.452  17.391  0.00  0.00    -0.369 OA
ATOM      3  O   UNL     1      10.688   8.392  17.950  0.00  0.00    -0.273 OA
ATOM      6  N   UNL     1      12.417   8.402  19.508  0.00  0.00    -0.287 N 
ATOM      8  C   UNL     1      13.862   8.281  19.742  0.00  0.00    +0.135 C 
ATOM     10  C   UNL     1      14.631   9.008  18.645  0.00  0.00    +0.185 C 
ATOM     12  C   UNL     1      11.889   8.463  18.220  0.00  0.00    +0.242 C 
ATOM     14  C   UNL     1      12.899   8.717  17.107  0.00  0.00    +0.255 C 
BRANCH   6  11
ATOM     11  C   UNL     1      11.535   8.274  20.660  0.00  0.00    +0.143 C 
BRANCH  11  15
ATOM     15  C   UNL     1      11.441   9.553  21.440  0.00  0.00    -0.030 A 
ATOM     20  C   UNL     1      11.865  10.752  20.869  0.00  0.00    +0.005 A 
ATOM     21  C   UNL     1      10.929   9.541  22.737  0.00  0.00    +0.005 A 
ATOM     23  C   UNL     1      11.777  11.940  21.594  0.00  0.00    +0.000 A 
ATOM     24  C   UNL     1      10.841  10.728  23.463  0.00  0.00    +0.000 A 
ATOM     25  C   UNL     1      11.266  11.928  22.892  0.00  0.00    +0.000 A 
ENDBRANCH  11  15
ENDBRANCH   6  11
ENDBRANCH   9   8
BRANCH   9  13
ATOM     13  C   UNL     1      15.764   6.651  19.980  0.00  0.00    -0.017 A 
ATOM     16  C   UNL     1      16.499   5.954  19.020  0.00  0.00    +0.008 A 
ATOM     17  C   UNL     1      16.409   7.203  21.087  0.00  0.00    +0.008 A 
ATOM     18  C   UNL     1      17.879   5.809  19.168  0.00  0.00    +0.023 A 
ATOM     19  C   UNL     1      17.789   7.058  21.235  0.00  0.00    +0.023 A 
ATOM     22  C   UNL     1      18.524   6.360  20.276  0.00  0.00    +0.033 A 
BRANCH  22   7
ATOM      4  O   UNL     1      20.188   5.917  22.743  0.00  0.00    -0.273 OA
ATOM      7  N   UNL     1      19.903   6.215  20.423  0.00  0.00    -0.284 N 
ATOM     26  C   UNL     1      20.631   6.007  21.602  0.00  0.00    +0.243 C 
ATOM     30  H   UNL     1      20.440   6.267  19.559  0.00  0.00    +0.155 HD
BRANCH  26  27
ATOM     27  C   UNL     1      22.118   5.900  21.345  0.00  0.00    +0.255 C 
BRANCH  27   5
ATOM      5  O   UNL     1      22.358   4.780  20.518  0.00  0.00    -0.374 OA
ATOM     28  C   UNL     1      22.207   3.555  21.229  0.00  0.00    +0.194 C 
ENDBRANCH  27   5
ENDBRANCH  26  27
ENDBRANCH  22   7
ENDBRANCH   9  13
BRANCH   9   2
ATOM      2  O   UNL     1      13.610   6.191  20.918  0.00  0.00    -0.385 OA
ATOM     29  H   UNL     1      13.433   6.858  21.602  0.00  0.00    +0.210 HD
ENDBRANCH   9   2
TORSDOF 8
ENDMDL
MODEL 2
REMARK VINA RESULT:      -7.0      1.823      3.539
REMARK  Name = 56774604
REMARK  9 active torsions:
REMARK  status: ('A' for Active; 'I' for Inactive)
REMARK    1  A    between atoms: O_2  and  C_9
REMARK    2  A    between atoms: O_5  and  C_27
REMARK    3  A    between atoms: O_5  and  C_28
REMARK    4  A    between atoms: N_6  and  C_11
REMARK    5  A    between atoms: N_7  and  C_22
REMARK    6  A    between atoms: C_8  and  C_9
REMARK    7  A    between atoms: C_9  and  C_13
REMARK    8  A    between atoms: C_11  and  C_15
REMARK    9  A    between atoms: C_26  and  C_27
REMARK                            x       y       z     vdW  Elec       q    Type
REMARK                         _______ _______ _______ _____ _____    ______ ____
ROOT
ATOM      9  C   UNL     1      14.255   6.882  20.493  0.00  0.00    +0.167 C 
ENDROOT
BRANCH   9   8
ATOM      1  O   UNL     1      11.425   7.274  19.828  0.00  0.00    -0.369 OA
ATOM      3  O   UNL     1      12.221  10.718  20.566  0.00  0.00    -0.273 OA
ATOM      6  N   UNL     1      13.562   9.076  19.605  0.00  0.00    -0.287 N 
ATOM      8  C   UNL     1      13.721   7.652  19.282  0.00  0.00    +0.135 C 
ATOM     10  C   UNL     1      12.394   7.074  18.806  0.00  0.00    +0.185 C 
ATOM     12  C   UNL     1      12.367   9.579  20.116  0.00  0.00    +0.242 C 
ATOM     14  C   UNL     1      11.166   8.648  20.016  0.00  0.00    +0.255 C 
BRANCH   6  11
ATOM     11  C   UNL     1      14.749   9.917  19.546  0.00  0.00    +0.143 C 
BRANCH  11  15
ATOM     15  C   UNL     1      14.895  10.591  18.213  0.00  0.00    -0.030 A 
ATOM     20  C   UNL     1      14.403   9.977  17.063  0.00  0.00    +0.005 A 
ATOM     21  C   UNL     1      15.524  11.833  18.126  0.00  0.00    +0.005 A 
ATOM     23  C   UNL     1      14.539  10.604  15.824  0.00  0.00    +0.000 A 
ATOM     24  C   UNL     1      15.660  12.461  16.888  0.00  0.00    +0.000 A 
ATOM     25  C   UNL     1      15.167  11.845  15.737  0.00  0.00    +0.000 A 
ENDBRANCH  11  15
ENDBRANCH   6  11
ENDBRANCH   9   8
BRANCH   9  13
ATOM     13  C   UNL     1      15.730   6.596  20.369  0.00  0.00    -0.017 A 
ATOM     16  C   UNL     1      16.251   6.130  19.161  0.00  0.00    +0.008 A 
ATOM     17  C   UNL     1      16.575   6.799  21.460  0.00  0.00    +0.008 A 
ATOM     18  C   UNL     1      17.616   5.867  19.045  0.00  0.00    +0.023 A 
ATOM     19  C   UNL     1      17.940   6.536  21.344  0.00  0.00    +0.023 A 
ATOM     22  C   UNL     1      18.460   6.069  20.137  0.00  0.00    +0.033 A 
BRANCH  22   7
ATOM      4  O   UNL     1      20.642   6.120  22.208  0.00  0.00    -0.273 OA
ATOM      7  N   UNL     1      19.825   5.805  20.020  0.00  0.00    -0.284 N 
ATOM     26  C   UNL     1      20.803   5.841  21.023  0.00  0.00    +0.243 C 
ATOM     30  H   UNL     1      20.141   5.555  19.085  0.00  0.00    +0.155 HD
BRANCH  26  27
ATOM     27  C   UNL     1      22.177   5.491  20.496  0.00  0.00    +0.255 C 
BRANCH  27   5
ATOM      5  O   UNL     1      22.768   4.541  21.360  0.00  0.00    -0.374 OA
ATOM     28  C   UNL     1      22.179   3.253  21.213  0.00  0.00    +0.194 C 
ENDBRANCH  27   5
ENDBRANCH  26  27
ENDBRANCH  22   7
ENDBRANCH   9  13
BRANCH   9   2
ATOM      2  O   UNL     1      14.016   7.638  21.675  0.00  0.00    -0.385 OA
ATOM     29  H   UNL     1      14.864   7.939  22.041  0.00  0.00    +0.210 HD
ENDBRANCH   9   2
TORSDOF 8
ENDMDL
MODEL 3
REMARK VINA RESULT:      -6.6     13.822     17.171
REMARK  Name = 56774604
REMARK  9 active torsions:
REMARK  status: ('A' for Active; 'I' for Inactive)
REMARK    1  A    between atoms: O_2  and  C_9
REMARK    2  A    between atoms: O_5  and  C_27
REMARK    3  A    between atoms: O_5  and  C_28
REMARK    4  A    between atoms: N_6  and  C_11
REMARK    5  A    between atoms: N_7  and  C_22
REMARK    6  A    between atoms: C_8  and  C_9
REMARK    7  A    between atoms: C_9  and  C_13
REMARK    8  A    between atoms: C_11  and  C_15
REMARK    9  A    between atoms: C_26  and  C_27
REMARK                            x       y       z     vdW  Elec       q    Type
REMARK                         _______ _______ _______ _____ _____    ______ ____
ROOT
ATOM      9  C   UNL     1      10.167   5.722   4.946  0.00  0.00    +0.167 C 
ENDROOT
BRANCH   9   8
ATOM      1  O   UNL     1       8.333   7.058   6.805  0.00  0.00    -0.369 OA
ATOM      3  O   UNL     1      10.672   5.814   9.259  0.00  0.00    -0.273 OA
ATOM      6  N   UNL     1      11.075   6.547   7.087  0.00  0.00    -0.287 N 
ATOM      8  C   UNL     1      10.497   6.951   5.799  0.00  0.00    +0.135 C 
ATOM     10  C   UNL     1       9.258   7.808   6.029  0.00  0.00    +0.185 C 
ATOM     12  C   UNL     1      10.276   6.317   8.205  0.00  0.00    +0.242 C 
ATOM     14  C   UNL     1       8.839   6.813   8.099  0.00  0.00    +0.255 C 
BRANCH   6  11
ATOM     11  C   UNL     1      12.493   6.215   7.115  0.00  0.00    +0.143 C 
BRANCH  11  15
ATOM     15  C   UNL     1      13.355   7.411   6.834  0.00  0.00    -0.030 A 
ATOM     20  C   UNL     1      14.652   7.238   6.350  0.00  0.00    +0.005 A 
ATOM     21  C   UNL     1      12.860   8.695   7.059  0.00  0.00    +0.005 A 
ATOM     23  C   UNL     1      15.453   8.350   6.090  0.00  0.00    +0.000 A 
ATOM     24  C   UNL     1      13.661   9.807   6.799  0.00  0.00    +0.000 A 
ATOM     25  C   UNL     1      14.958   9.634   6.315  0.00  0.00    +0.000 A 
ENDBRANCH  11  15
ENDBRANCH   6  11
ENDBRANCH   9   8
BRANCH   9  13
ATOM     13  C   UNL     1      11.177   5.517   3.845  0.00  0.00    -0.017 A 
ATOM     16  C   UNL     1      12.125   6.505   3.576  0.00  0.00    +0.008 A 
ATOM     17  C   UNL     1      11.163   4.341   3.096  0.00  0.00    +0.008 A 
ATOM     18  C   UNL     1      13.059   6.315   2.558  0.00  0.00    +0.023 A 
ATOM     19  C   UNL     1      12.097   4.151   2.077  0.00  0.00    +0.023 A 
ATOM     22  C   UNL     1      13.045   5.139   1.808  0.00  0.00    +0.033 A 
BRANCH  22   7
ATOM      4  O   UNL     1      15.356   3.223   1.609  0.00  0.00    -0.273 OA
ATOM      7  N   UNL     1      13.979   4.950   0.789  0.00  0.00    -0.284 N 
ATOM     26  C   UNL     1      15.040   4.036   0.746  0.00  0.00    +0.243 C 
ATOM     30  H   UNL     1      13.867   5.556  -0.021  0.00  0.00    +0.155 HD
BRANCH  26  27
ATOM     27  C   UNL     1      15.834   4.140  -0.538  0.00  0.00    +0.255 C 
BRANCH  27   5
ATOM      5  O   UNL     1      14.937   4.105  -1.631  0.00  0.00    -0.374 OA
ATOM     28  C   UNL     1      15.318   5.015  -2.658  0.00  0.00    +0.194 C 
ENDBRANCH  27   5
ENDBRANCH  26  27
ENDBRANCH  22   7
ENDBRANCH   9  13
BRANCH   9   2
ATOM      2  O   UNL     1      10.132   4.568   5.778  0.00  0.00    -0.385 OA
ATOM     29  H   UNL     1      11.036   4.342   6.053  0.00  0.00    +0.210 HD
ENDBRANCH   9   2
TORSDOF 8
ENDMDL
MODEL 4
REMARK VINA RESULT:      -6.6     26.115     29.272
REMARK  Name = 56774604
REMARK  9 active torsions:
REMARK  status: ('A' for Active; 'I' for Inactive)
REMARK    1  A    between atoms: O_2  and  C_9
REMARK    2  A    between atoms: O_5  and  C_27
REMARK    3  A    between atoms: O_5  and  C_28
REMARK    4  A    between atoms: N_6  and  C_11
REMARK    5  A    between atoms: N_7  and  C_22
REMARK    6  A    between atoms: C_8  and  C_9
REMARK    7  A    between atoms: C_9  and  C_13
REMARK    8  A    between atoms: C_11  and  C_15
REMARK    9  A    between atoms: C_26  and  C_27
REMARK                            x       y       z     vdW  Elec       q    Type
REMARK                         _______ _______ _______ _____ _____    ______ ____
ROOT
ATOM      9  C   UNL     1     -12.458   8.614  19.226  0.00  0.00    +0.167 C 
ENDROOT
BRANCH   9   8
ATOM      1  O   UNL     1     -10.012   9.988  18.369  0.00  0.00    -0.369 OA
ATOM      3  O   UNL     1     -12.159  12.887  18.510  0.00  0.00    -0.273 OA
ATOM      6  N   UNL     1     -12.174  10.984  19.850  0.00  0.00    -0.287 N 
ATOM      8  C   UNL     1     -11.662   9.624  20.058  0.00  0.00    +0.135 C 
ATOM     10  C   UNL     1     -10.177   9.567  19.717  0.00  0.00    +0.185 C 
ATOM     12  C   UNL     1     -11.665  11.810  18.850  0.00  0.00    +0.242 C 
ATOM     14  C   UNL     1     -10.358  11.347  18.217  0.00  0.00    +0.255 C 
BRANCH   6  11
ATOM     11  C   UNL     1     -13.357  11.381  20.600  0.00  0.00    +0.143 C 
BRANCH  11  15
ATOM     15  C   UNL     1     -13.273  10.968  22.041  0.00  0.00    -0.030 A 
ATOM     20  C   UNL     1     -12.251  11.465  22.850  0.00  0.00    +0.005 A 
ATOM     21  C   UNL     1     -14.216  10.087  22.570  0.00  0.00    +0.005 A 
ATOM     23  C   UNL     1     -12.173  11.081  24.189  0.00  0.00    +0.000 A 
ATOM     24  C   UNL     1     -14.138   9.704  23.908  0.00  0.00    +0.000 A 
ATOM     25  C   UNL     1     -13.116  10.200  24.718  0.00  0.00    +0.000 A 
ENDBRANCH  11  15
ENDBRANCH   6  11
ENDBRANCH   9   8
BRANCH   9  13
ATOM     13  C   UNL     1     -13.048   7.523  20.083  0.00  0.00    -0.017 A 
ATOM     16  C   UNL     1     -12.221   6.763  20.911  0.00  0.00    +0.008 A 
ATOM     17  C   UNL     1     -14.420   7.276  20.050  0.00  0.00    +0.008 A 
ATOM     18  C   UNL     1     -12.767   5.754  21.704  0.00  0.00    +0.023 A 
ATOM     19  C   UNL     1     -14.966   6.267  20.844  0.00  0.00    +0.023 A 
ATOM     22  C   UNL     1     -14.140   5.505  21.671  0.00  0.00    +0.033 A 
BRANCH  22   7
ATOM      4  O   UNL     1     -16.079   5.660  23.965  0.00  0.00    -0.273 OA
ATOM      7  N   UNL     1     -14.685   4.496  22.464  0.00  0.00    -0.284 N 
ATOM     26  C   UNL     1     -15.592   4.623  23.525  0.00  0.00    +0.243 C 
ATOM     30  H   UNL     1     -14.380   3.552  22.236  0.00  0.00    +0.155 HD
BRANCH  26  27
ATOM     27  C   UNL     1     -15.945   3.286  24.139  0.00  0.00    +0.255 C 
BRANCH  27   5
ATOM      5  O   UNL     1     -16.414   2.427  23.119  0.00  0.00    -0.374 OA
ATOM     28  C   UNL     1     -17.781   2.075  23.311  0.00  0.00    +0.194 C 
ENDBRANCH  27   5
ENDBRANCH  26  27
ENDBRANCH  22   7
ENDBRANCH   9  13
BRANCH   9   2
ATOM      2  O   UNL     1     -13.501   9.292  18.535  0.00  0.00    -0.385 OA
ATOM     29  H   UNL     1     -13.463  10.240  18.746  0.00  0.00    +0.210 HD
ENDBRANCH   9   2
TORSDOF 8
ENDMDL
MODEL 5
REMARK VINA RESULT:      -6.6     26.251     29.266
REMARK  Name = 56774604
REMARK  9 active torsions:
REMARK  status: ('A' for Active; 'I' for Inactive)
REMARK    1  A    between atoms: O_2  and  C_9
REMARK    2  A    between atoms: O_5  and  C_27
REMARK    3  A    between atoms: O_5  and  C_28
REMARK    4  A    between atoms: N_6  and  C_11
REMARK    5  A    between atoms: N_7  and  C_22
REMARK    6  A    between atoms: C_8  and  C_9
REMARK    7  A    between atoms: C_9  and  C_13
REMARK    8  A    between atoms: C_11  and  C_15
REMARK    9  A    between atoms: C_26  and  C_27
REMARK                            x       y       z     vdW  Elec       q    Type
REMARK                         _______ _______ _______ _____ _____    ______ ____
ROOT
ATOM      9  C   UNL     1     -11.119   9.672  19.725  0.00  0.00    +0.167 C 
ENDROOT
BRANCH   9   8
ATOM      1  O   UNL     1     -10.160  11.821  17.974  0.00  0.00    -0.369 OA
ATOM      3  O   UNL     1     -10.370   9.227  15.470  0.00  0.00    -0.273 OA
ATOM      6  N   UNL     1     -11.719   9.580  17.335  0.00  0.00    -0.287 N 
ATOM      8  C   UNL     1     -11.914  10.320  18.588  0.00  0.00    +0.135 C 
ATOM     10  C   UNL     1     -11.516  11.779  18.401  0.00  0.00    +0.185 C 
ATOM     12  C   UNL     1     -10.696   9.907  16.447  0.00  0.00    +0.242 C 
ATOM     14  C   UNL     1     -10.015  11.248  16.693  0.00  0.00    +0.255 C 
BRANCH   6  11
ATOM     11  C   UNL     1     -12.513   8.376  17.131  0.00  0.00    +0.143 C 
BRANCH  11  15
ATOM     15  C   UNL     1     -13.981   8.636  17.307  0.00  0.00    -0.030 A 
ATOM     20  C   UNL     1     -14.611   9.623  16.550  0.00  0.00    +0.005 A 
ATOM     21  C   UNL     1     -14.715   7.889  18.229  0.00  0.00    +0.005 A 
ATOM     23  C   UNL     1     -15.975   9.864  16.714  0.00  0.00    +0.000 A 
ATOM     24  C   UNL     1     -16.079   8.130  18.393  0.00  0.00    +0.000 A 
ATOM     25  C   UNL     1     -16.709   9.118  17.636  0.00  0.00    +0.000 A 
ENDBRANCH  11  15
ENDBRANCH   6  11
ENDBRANCH   9   8
BRANCH   9  13
ATOM     13  C   UNL     1     -11.949   8.676  20.493  0.00  0.00    -0.017 A 
ATOM     16  C   UNL     1     -13.090   9.098  21.177  0.00  0.00    +0.008 A 
ATOM     17  C   UNL     1     -11.579   7.331  20.519  0.00  0.00    +0.008 A 
ATOM     18  C   UNL     1     -13.859   8.176  21.887  0.00  0.00    +0.023 A 
ATOM     19  C   UNL     1     -12.348   6.409  21.229  0.00  0.00    +0.023 A 
ATOM     22  C   UNL     1     -13.488   6.831  21.914  0.00  0.00    +0.033 A 
BRANCH  22   7
ATOM      4  O   UNL     1     -15.703   5.016  20.993  0.00  0.00    -0.273 OA
ATOM      7  N   UNL     1     -14.257   5.910  22.624  0.00  0.00    -0.284 N 
ATOM     26  C   UNL     1     -15.281   5.083  22.143  0.00  0.00    +0.243 C 
ATOM     30  H   UNL     1     -14.039   5.835  23.616  0.00  0.00    +0.155 HD
BRANCH  26  27
ATOM     27  C   UNL     1     -15.877   4.218  23.232  0.00  0.00    +0.255 C 
BRANCH  27   5
ATOM      5  O   UNL     1     -16.206   2.958  22.684  0.00  0.00    -0.374 OA
ATOM     28  C   UNL     1     -17.400   2.428  23.252  0.00  0.00    +0.194 C 
ENDBRANCH  27   5
ENDBRANCH  26  27
ENDBRANCH  22   7
ENDBRANCH   9  13
BRANCH   9   2
ATOM      2  O   UNL     1      -9.973   9.021  19.187  0.00  0.00    -0.385 OA
ATOM     29  H   UNL     1     -10.083   8.059  19.267  0.00  0.00    +0.210 HD
ENDBRANCH   9   2
TORSDOF 8
ENDMDL
MODEL 6
REMARK VINA RESULT:      -6.5     27.519     29.950
REMARK  Name = 56774604
REMARK  9 active torsions:
REMARK  status: ('A' for Active; 'I' for Inactive)
REMARK    1  A    between atoms: O_2  and  C_9
REMARK    2  A    between atoms: O_5  and  C_27
REMARK    3  A    between atoms: O_5  and  C_28
REMARK    4  A    between atoms: N_6  and  C_11
REMARK    5  A    between atoms: N_7  and  C_22
REMARK    6  A    between atoms: C_8  and  C_9
REMARK    7  A    between atoms: C_9  and  C_13
REMARK    8  A    between atoms: C_11  and  C_15
REMARK    9  A    between atoms: C_26  and  C_27
REMARK                            x       y       z     vdW  Elec       q    Type
REMARK                         _______ _______ _______ _____ _____    ______ ____
ROOT
ATOM      9  C   UNL     1      -7.430 -11.374  19.259  0.00  0.00    +0.167 C 
ENDROOT
BRANCH   9   8
ATOM      1  O   UNL     1      -8.542 -14.045  18.777  0.00  0.00    -0.369 OA
ATOM      3  O   UNL     1     -11.037 -12.911  21.128  0.00  0.00    -0.273 OA
ATOM      6  N   UNL     1      -9.861 -11.689  19.533  0.00  0.00    -0.287 N 
ATOM      8  C   UNL     1      -8.760 -11.675  18.562  0.00  0.00    +0.135 C 
ATOM     10  C   UNL     1      -8.702 -13.005  17.820  0.00  0.00    +0.185 C 
ATOM     12  C   UNL     1     -10.244 -12.860  20.185  0.00  0.00    +0.242 C 
ATOM     14  C   UNL     1      -9.681 -14.150  19.603  0.00  0.00    +0.255 C 
BRANCH   6  11
ATOM     11  C   UNL     1     -10.424 -10.407  19.932  0.00  0.00    +0.143 C 
BRANCH  11  15
ATOM     15  C   UNL     1     -11.155  -9.738  18.804  0.00  0.00    -0.030 A 
ATOM     20  C   UNL     1     -10.486  -8.836  17.977  0.00  0.00    +0.005 A 
ATOM     21  C   UNL     1     -12.503 -10.019  18.583  0.00  0.00    +0.005 A 
ATOM     23  C   UNL     1     -11.165  -8.215  16.929  0.00  0.00    +0.000 A 
ATOM     24  C   UNL     1     -13.182  -9.398  17.536  0.00  0.00    +0.000 A 
ATOM     25  C   UNL     1     -12.513  -8.495  16.709  0.00  0.00    +0.000 A 
ENDBRANCH  11  15
ENDBRANCH   6  11
ENDBRANCH   9   8
BRANCH   9  13
ATOM     13  C   UNL     1      -6.332 -11.083  18.268  0.00  0.00    -0.017 A 
ATOM     16  C   UNL     1      -6.547 -10.168  17.237  0.00  0.00    +0.008 A 
ATOM     17  C   UNL     1      -5.100 -11.729  18.383  0.00  0.00    +0.008 A 
ATOM     18  C   UNL     1      -5.530  -9.899  16.321  0.00  0.00    +0.023 A 
ATOM     19  C   UNL     1      -4.084 -11.460  17.466  0.00  0.00    +0.023 A 
ATOM     22  C   UNL     1      -4.299 -10.545  16.435  0.00  0.00    +0.033 A 
BRANCH  22   7
ATOM      4  O   UNL     1      -3.835 -11.619  13.663  0.00  0.00    -0.273 OA
ATOM      7  N   UNL     1      -3.283 -10.275  15.518  0.00  0.00    -0.284 N 
ATOM     26  C   UNL     1      -3.115 -10.804  14.231  0.00  0.00    +0.243 C 
ATOM     30  H   UNL     1      -2.581  -9.608  15.831  0.00  0.00    +0.155 HD
BRANCH  26  27
ATOM     27  C   UNL     1      -1.880 -10.260  13.546  0.00  0.00    +0.255 C 
BRANCH  27   5
ATOM      5  O   UNL     1      -1.810 -10.798  12.241  0.00  0.00    -0.374 OA
ATOM     28  C   UNL     1      -2.011  -9.799  11.245  0.00  0.00    +0.194 C 
ENDBRANCH  27   5
ENDBRANCH  26  27
ENDBRANCH  22   7
ENDBRANCH   9  13
BRANCH   9   2
ATOM      2  O   UNL     1      -7.596 -10.257  20.126  0.00  0.00    -0.385 OA
ATOM     29  H   UNL     1      -8.146  -9.588  19.686  0.00  0.00    +0.210 HD
ENDBRANCH   9   2
TORSDOF 8
ENDMDL
MODEL 7
REMARK VINA RESULT:      -6.3     26.130     29.295
REMARK  Name = 56774604
REMARK  9 active torsions:
REMARK  status: ('A' for Active; 'I' for Inactive)
REMARK    1  A    between atoms: O_2  and  C_9
REMARK    2  A    between atoms: O_5  and  C_27
REMARK    3  A    between atoms: O_5  and  C_28
REMARK    4  A    between atoms: N_6  and  C_11
REMARK    5  A    between atoms: N_7  and  C_22
REMARK    6  A    between atoms: C_8  and  C_9
REMARK    7  A    between atoms: C_9  and  C_13
REMARK    8  A    between atoms: C_11  and  C_15
REMARK    9  A    between atoms: C_26  and  C_27
REMARK                            x       y       z     vdW  Elec       q    Type
REMARK                         _______ _______ _______ _____ _____    ______ ____
ROOT
ATOM      9  C   UNL     1      -3.657 -11.355  16.443  0.00  0.00    +0.167 C 
ENDROOT
BRANCH   9   8
ATOM      1  O   UNL     1      -0.914 -11.475  15.413  0.00  0.00    -0.369 OA
ATOM      3  O   UNL     1      -2.495 -13.361  12.771  0.00  0.00    -0.273 OA
ATOM      6  N   UNL     1      -3.338 -11.578  14.008  0.00  0.00    -0.287 N 
ATOM      8  C   UNL     1      -3.155 -10.687  15.160  0.00  0.00    +0.135 C 
ATOM     10  C   UNL     1      -1.689 -10.290  15.286  0.00  0.00    +0.185 C 
ATOM     12  C   UNL     1      -2.345 -12.473  13.613  0.00  0.00    +0.242 C 
ATOM     14  C   UNL     1      -0.972 -12.246  14.233  0.00  0.00    +0.255 C 
BRANCH   6  11
ATOM     11  C   UNL     1      -4.659 -11.630  13.399  0.00  0.00    +0.143 C 
BRANCH  11  15
ATOM     15  C   UNL     1      -4.866 -10.518  12.411  0.00  0.00    -0.030 A 
ATOM     20  C   UNL     1      -3.896 -10.253  11.446  0.00  0.00    +0.005 A 
ATOM     21  C   UNL     1      -6.029  -9.750  12.460  0.00  0.00    +0.005 A 
ATOM     23  C   UNL     1      -4.088  -9.220  10.528  0.00  0.00    +0.000 A 
ATOM     24  C   UNL     1      -6.223  -8.718  11.544  0.00  0.00    +0.000 A 
ATOM     25  C   UNL     1      -5.251  -8.452  10.578  0.00  0.00    +0.000 A 
ENDBRANCH  11  15
ENDBRANCH   6  11
ENDBRANCH   9   8
BRANCH   9  13
ATOM     13  C   UNL     1      -5.010 -10.831  16.855  0.00  0.00    -0.017 A 
ATOM     16  C   UNL     1      -5.644 -11.350  17.985  0.00  0.00    +0.008 A 
ATOM     17  C   UNL     1      -5.626  -9.828  16.108  0.00  0.00    +0.008 A 
ATOM     18  C   UNL     1      -6.895 -10.864  18.366  0.00  0.00    +0.023 A 
ATOM     19  C   UNL     1      -6.877  -9.343  16.489  0.00  0.00    +0.023 A 
ATOM     22  C   UNL     1      -7.512  -9.861  17.618  0.00  0.00    +0.033 A 
BRANCH  22   7
ATOM      4  O   UNL     1     -10.268 -10.961  17.118  0.00  0.00    -0.273 OA
ATOM      7  N   UNL     1      -8.763  -9.377  18.000  0.00  0.00    -0.284 N 
ATOM     26  C   UNL     1     -10.023  -9.933  17.742  0.00  0.00    +0.243 C 
ATOM     30  H   UNL     1      -8.748  -8.510  18.535  0.00  0.00    +0.155 HD
BRANCH  26  27
ATOM     27  C   UNL     1     -11.145  -9.104  18.327  0.00  0.00    +0.255 C 
BRANCH  27   5
ATOM      5  O   UNL     1     -12.019  -8.721  17.284  0.00  0.00    -0.374 OA
ATOM     28  C   UNL     1     -11.539  -7.577  16.584  0.00  0.00    +0.194 C 
ENDBRANCH  27   5
ENDBRANCH  26  27
ENDBRANCH  22   7
ENDBRANCH   9  13
BRANCH   9   2
ATOM      2  O   UNL     1      -3.734 -12.762  16.243  0.00  0.00    -0.385 OA
ATOM     29  H   UNL     1      -3.635 -12.958  15.296  0.00  0.00    +0.210 HD
ENDBRANCH   9   2
TORSDOF 8
ENDMDL
MODEL 8
REMARK VINA RESULT:      -6.3     14.322     17.974
REMARK  Name = 56774604
REMARK  9 active torsions:
REMARK  status: ('A' for Active; 'I' for Inactive)
REMARK    1  A    between atoms: O_2  and  C_9
REMARK    2  A    between atoms: O_5  and  C_27
REMARK    3  A    between atoms: O_5  and  C_28
REMARK    4  A    between atoms: N_6  and  C_11
REMARK    5  A    between atoms: N_7  and  C_22
REMARK    6  A    between atoms: C_8  and  C_9
REMARK    7  A    between atoms: C_9  and  C_13
REMARK    8  A    between atoms: C_11  and  C_15
REMARK    9  A    between atoms: C_26  and  C_27
REMARK                            x       y       z     vdW  Elec       q    Type
REMARK                         _______ _______ _______ _____ _____    ______ ____
ROOT
ATOM      9  C   UNL     1       9.194   6.309   4.816  0.00  0.00    +0.167 C 
ENDROOT
BRANCH   9   8
ATOM      1  O   UNL     1       8.074   7.576   7.213  0.00  0.00    -0.369 OA
ATOM      3  O   UNL     1      10.831   5.884   8.816  0.00  0.00    -0.273 OA
ATOM      6  N   UNL     1      10.721   6.816   6.686  0.00  0.00    -0.287 N 
ATOM      8  C   UNL     1       9.870   7.405   5.645  0.00  0.00    +0.135 C 
ATOM     10  C   UNL     1       8.836   8.330   6.278  0.00  0.00    +0.185 C 
ATOM     12  C   UNL     1      10.227   6.530   7.958  0.00  0.00    +0.242 C 
ATOM     14  C   UNL     1       8.876   7.151   8.292  0.00  0.00    +0.255 C 
BRANCH   6  11
ATOM     11  C   UNL     1      12.051   6.369   6.296  0.00  0.00    +0.143 C 
BRANCH  11  15
ATOM     15  C   UNL     1      12.915   7.508   5.839  0.00  0.00    -0.030 A 
ATOM     20  C   UNL     1      13.318   7.587   4.507  0.00  0.00    +0.005 A 
ATOM     21  C   UNL     1      13.315   8.487   6.748  0.00  0.00    +0.005 A 
ATOM     23  C   UNL     1      14.122   8.645   4.082  0.00  0.00    +0.000 A 
ATOM     24  C   UNL     1      14.118   9.545   6.325  0.00  0.00    +0.000 A 
ATOM     25  C   UNL     1      14.522   9.624   4.992  0.00  0.00    +0.000 A 
ENDBRANCH  11  15
ENDBRANCH   6  11
ENDBRANCH   9   8
BRANCH   9  13
ATOM     13  C   UNL     1      10.029   5.915   3.624  0.00  0.00    -0.017 A 
ATOM     16  C   UNL     1      10.623   4.653   3.575  0.00  0.00    +0.008 A 
ATOM     17  C   UNL     1      10.205   6.811   2.569  0.00  0.00    +0.008 A 
ATOM     18  C   UNL     1      11.394   4.289   2.471  0.00  0.00    +0.023 A 
ATOM     19  C   UNL     1      10.977   6.446   1.466  0.00  0.00    +0.023 A 
ATOM     22  C   UNL     1      11.572   5.185   1.417  0.00  0.00    +0.033 A 
BRANCH  22   7
ATOM      4  O   UNL     1      10.825   3.667  -1.071  0.00  0.00    -0.273 OA
ATOM      7  N   UNL     1      12.344   4.819   0.314  0.00  0.00    -0.284 N 
ATOM     26  C   UNL     1      11.943   4.111  -0.827  0.00  0.00    +0.243 C 
ATOM     30  H   UNL     1      13.319   5.110   0.351  0.00  0.00    +0.155 HD
BRANCH  26  27
ATOM     27  C   UNL     1      13.080   3.911  -1.805  0.00  0.00    +0.255 C 
BRANCH  27   5
ATOM      5  O   UNL     1      14.292   3.823  -1.083  0.00  0.00    -0.374 OA
ATOM     28  C   UNL     1      15.354   4.502  -1.746  0.00  0.00    +0.194 C 
ENDBRANCH  27   5
ENDBRANCH  26  27
ENDBRANCH  22   7
ENDBRANCH   9  13
BRANCH   9   2
ATOM      2  O   UNL     1       8.971   5.168   5.637  0.00  0.00    -0.385 OA
ATOM     29  H   UNL     1       9.057   5.422   6.571  0.00  0.00    +0.210 HD
ENDBRANCH   9   2
TORSDOF 8
ENDMDL
MODEL 9
REMARK VINA RESULT:      -6.3     15.874     19.504
REMARK  Name = 56774604
REMARK  9 active torsions:
REMARK  status: ('A' for Active; 'I' for Inactive)
REMARK    1  A    between atoms: O_2  and  C_9
REMARK    2  A    between atoms: O_5  and  C_27
REMARK    3  A    between atoms: O_5  and  C_28
REMARK    4  A    between atoms: N_6  and  C_11
REMARK    5  A    between atoms: N_7  and  C_22
REMARK    6  A    between atoms: C_8  and  C_9
REMARK    7  A    between atoms: C_9  and  C_13
REMARK    8  A    between atoms: C_11  and  C_15
REMARK    9  A    between atoms: C_26  and  C_27
REMARK                            x       y       z     vdW  Elec       q    Type
REMARK                         _______ _______ _______ _____ _____    ______ ____
ROOT
ATOM      9  C   UNL     1      10.279   6.695   4.501  0.00  0.00    +0.167 C 
ENDROOT
BRANCH   9   8
ATOM      1  O   UNL     1       8.897   6.370   7.068  0.00  0.00    -0.369 OA
ATOM      3  O   UNL     1       9.208   9.967   7.148  0.00  0.00    -0.273 OA
ATOM      6  N   UNL     1       8.890   8.562   5.319  0.00  0.00    -0.287 N 
ATOM      8  C   UNL     1       8.862   7.181   4.820  0.00  0.00    +0.135 C 
ATOM     10  C   UNL     1       8.187   6.272   5.839  0.00  0.00    +0.185 C 
ATOM     12  C   UNL     1       9.007   8.844   6.679  0.00  0.00    +0.242 C 
ATOM     14  C   UNL     1       8.781   7.664   7.616  0.00  0.00    +0.255 C 
BRANCH   6  11
ATOM     11  C   UNL     1       8.977   9.632   4.336  0.00  0.00    +0.143 C 
BRANCH  11  15
ATOM     15  C   UNL     1       7.719   9.753   3.525  0.00  0.00    -0.030 A 
ATOM     20  C   UNL     1       7.732   9.440   2.166  0.00  0.00    +0.005 A 
ATOM     21  C   UNL     1       6.538  10.180   4.131  0.00  0.00    +0.005 A 
ATOM     23  C   UNL     1       6.563   9.553   1.413  0.00  0.00    +0.000 A 
ATOM     24  C   UNL     1       5.369  10.292   3.379  0.00  0.00    +0.000 A 
ATOM     25  C   UNL     1       5.382   9.980   2.019  0.00  0.00    +0.000 A 
ENDBRANCH  11  15
ENDBRANCH   6  11
ENDBRANCH   9   8
BRANCH   9  13
ATOM     13  C   UNL     1      10.335   5.959   3.186  0.00  0.00    -0.017 A 
ATOM     16  C   UNL     1      10.781   4.638   3.145  0.00  0.00    +0.008 A 
ATOM     17  C   UNL     1       9.940   6.599   2.011  0.00  0.00    +0.008 A 
ATOM     18  C   UNL     1      10.833   3.957   1.928  0.00  0.00    +0.023 A 
ATOM     19  C   UNL     1       9.991   5.918   0.794  0.00  0.00    +0.023 A 
ATOM     22  C   UNL     1      10.438   4.597   0.753  0.00  0.00    +0.033 A 
BRANCH  22   7
ATOM      4  O   UNL     1      12.780   3.940  -1.019  0.00  0.00    -0.273 OA
ATOM      7  N   UNL     1      10.490   3.915  -0.463  0.00  0.00    -0.284 N 
ATOM     26  C   UNL     1      11.614   3.633  -1.250  0.00  0.00    +0.243 C 
ATOM     30  H   UNL     1       9.593   3.585  -0.814  0.00  0.00    +0.155 HD
BRANCH  26  27
ATOM     27  C   UNL     1      11.255   2.870  -2.507  0.00  0.00    +0.255 C 
BRANCH  27   5
ATOM      5  O   UNL     1       9.897   3.111  -2.814  0.00  0.00    -0.374 OA
ATOM     28  C   UNL     1       9.464   2.346  -3.935  0.00  0.00    +0.194 C 
ENDBRANCH  27   5
ENDBRANCH  26  27
ENDBRANCH  22   7
ENDBRANCH   9  13
BRANCH   9   2
ATOM      2  O   UNL     1      11.162   7.811   4.458  0.00  0.00    -0.385 OA
ATOM     29  H   UNL     1      10.643   8.628   4.378  0.00  0.00    +0.210 HD
ENDBRANCH   9   2
TORSDOF 8
ENDMDL
MODEL 10
REMARK VINA RESULT:      -6.3     27.116     30.059
REMARK  Name = 56774604
REMARK  9 active torsions:
REMARK  status: ('A' for Active; 'I' for Inactive)
REMARK    1  A    between atoms: O_2  and  C_9
REMARK    2  A    between atoms: O_5  and  C_27
REMARK    3  A    between atoms: O_5  and  C_28
REMARK    4  A    between atoms: N_6  and  C_11
REMARK    5  A    between atoms: N_7  and  C_22
REMARK    6  A    between atoms: C_8  and  C_9
REMARK    7  A    between atoms: C_9  and  C_13
REMARK    8  A    between atoms: C_11  and  C_15
REMARK    9  A    between atoms: C_26  and  C_27
REMARK                            x       y       z     vdW  Elec       q    Type
REMARK                         _______ _______ _______ _____ _____    ______ ____
ROOT
ATOM      9  C   UNL     1      -3.614 -10.642  15.847  0.00  0.00    +0.167 C 
ENDROOT
BRANCH   9   8
ATOM      1  O   UNL     1      -1.819 -10.802  13.533  0.00  0.00    -0.369 OA
ATOM      3  O   UNL     1      -2.003 -14.339  14.235  0.00  0.00    -0.273 OA
ATOM      6  N   UNL     1      -3.640 -12.704  14.495  0.00  0.00    -0.287 N 
ATOM      8  C   UNL     1      -3.956 -11.271  14.493  0.00  0.00    +0.135 C 
ATOM     10  C   UNL     1      -3.212 -10.573  13.360  0.00  0.00    +0.185 C 
ATOM     12  C   UNL     1      -2.390 -13.177  14.097  0.00  0.00    +0.242 C 
ATOM     14  C   UNL     1      -1.508 -12.168  13.372  0.00  0.00    +0.255 C 
BRANCH   6  11
ATOM     11  C   UNL     1      -4.610 -13.608  15.098  0.00  0.00    +0.143 C 
BRANCH  11  15
ATOM     15  C   UNL     1      -6.016 -13.277  14.688  0.00  0.00    -0.030 A 
ATOM     20  C   UNL     1      -6.317 -13.053  13.346  0.00  0.00    +0.005 A 
ATOM     21  C   UNL     1      -7.020 -13.192  15.652  0.00  0.00    +0.005 A 
ATOM     23  C   UNL     1      -7.624 -12.745  12.966  0.00  0.00    +0.000 A 
ATOM     24  C   UNL     1      -8.326 -12.885  15.273  0.00  0.00    +0.000 A 
ATOM     25  C   UNL     1      -8.628 -12.660  13.930  0.00  0.00    +0.000 A 
ENDBRANCH  11  15
ENDBRANCH   6  11
ENDBRANCH   9   8
BRANCH   9  13
ATOM     13  C   UNL     1      -4.831 -10.511  16.727  0.00  0.00    -0.017 A 
ATOM     16  C   UNL     1      -5.955  -9.824  16.266  0.00  0.00    +0.008 A 
ATOM     17  C   UNL     1      -4.835 -11.077  18.002  0.00  0.00    +0.008 A 
ATOM     18  C   UNL     1      -7.081  -9.704  17.080  0.00  0.00    +0.023 A 
ATOM     19  C   UNL     1      -5.961 -10.957  18.816  0.00  0.00    +0.023 A 
ATOM     22  C   UNL     1      -7.084 -10.269  18.355  0.00  0.00    +0.033 A 
BRANCH  22   7
ATOM      4  O   UNL     1      -9.581 -11.943  18.494  0.00  0.00    -0.273 OA
ATOM      7  N   UNL     1      -8.211 -10.148  19.169  0.00  0.00    -0.284 N 
ATOM     26  C   UNL     1      -9.351 -10.961  19.195  0.00  0.00    +0.243 C 
ATOM     30  H   UNL     1      -8.192  -9.368  19.823  0.00  0.00    +0.155 HD
BRANCH  26  27
ATOM     27  C   UNL     1     -10.360 -10.499  20.224  0.00  0.00    +0.255 C 
BRANCH  27   5
ATOM      5  O   UNL     1     -11.649 -10.906  19.812  0.00  0.00    -0.374 OA
ATOM     28  C   UNL     1     -12.588  -9.836  19.877  0.00  0.00    +0.194 C 
ENDBRANCH  27   5
ENDBRANCH  26  27
ENDBRANCH  22   7
ENDBRANCH   9  13
BRANCH   9   2
ATOM      2  O   UNL     1      -2.637 -11.441  16.504  0.00  0.00    -0.385 OA
ATOM     29  H   UNL     1      -1.815 -10.931  16.599  0.00  0.00    +0.210 HD
ENDBRANCH   9   2
TORSDOF 8
ENDMDL
