REMARK  Name = 11882030
REMARK  10 active torsions:
REMARK  status: ('A' for Active; 'I' for Inactive)
REMARK    1  A    between atoms: S_1  and  C_26
REMARK    2  A    between atoms: S_1  and  C_34
REMARK    3  A    between atoms: N_7  and  C_12
REMARK    4  A    between atoms: N_8  and  C_16
REMARK    5  A    between atoms: N_9  and  C_25
REMARK    6  A    between atoms: C_13  and  C_21
REMARK    7  A    between atoms: C_23  and  C_26
REMARK    8  A    between atoms: C_25  and  C_27
REMARK    9  A    between atoms: C_25  and  C_29
REMARK   10  A    between atoms: C_27  and  C_28
REMARK                            x       y       z     vdW  Elec       q    Type
REMARK                         _______ _______ _______ _____ _____    ______ ____
ROOT
ATOM      3  O   UNL     1       4.952  -1.205  -0.516  0.00  0.00    -0.275 OA
ATOM      6  N   UNL     1       3.457  -0.057   0.827  0.00  0.00    -0.287 N 
ATOM     12  C   UNL     1       1.657   0.789   2.126  0.00  0.00    +0.094 C 
ATOM     13  C   UNL     1       2.605  -1.198   1.129  0.00  0.00    +0.164 C 
ATOM     14  C   UNL     1       1.713  -0.734   2.279  0.00  0.00    +0.055 C 
ATOM     15  C   UNL     1       3.026   1.138   1.551  0.00  0.00    +0.131 C 
ATOM     23  C   UNL     1       4.620  -0.181   0.083  0.00  0.00    +0.226 C 
ENDROOT
BRANCH  12   7
ATOM      4  O   UNL     1       0.234   3.287   2.207  0.00  0.00    -0.253 OA
ATOM      7  N   UNL     1       0.588   1.201   1.252  0.00  0.00    -0.295 N 
ATOM      8  N   UNL     1      -1.043   2.584   0.400  0.00  0.00    -0.297 N 
ATOM     24  C   UNL     1      -0.049   2.437   1.363  0.00  0.00    +0.300 C 
ATOM     38  H   UNL     1       0.316   0.592   0.486  0.00  0.00    +0.151 HD
ATOM     39  H   UNL     1      -1.148   1.848  -0.291  0.00  0.00    +0.151 HD
BRANCH   8  16
ATOM     16  C   UNL     1      -1.863   3.769   0.284  0.00  0.00    +0.074 C 
ATOM     17  C   UNL     1      -3.267   3.421  -0.224  0.00  0.00    +0.022 C 
ATOM     18  C   UNL     1      -1.193   4.817  -0.612  0.00  0.00    +0.022 C 
ATOM     19  C   UNL     1      -3.273   3.024  -1.700  0.00  0.00    +0.002 C 
ATOM     20  C   UNL     1      -1.203   4.418  -2.087  0.00  0.00    +0.002 C 
ATOM     22  C   UNL     1      -2.611   4.087  -2.572  0.00  0.00    +0.000 C 
ENDBRANCH   8  16
ENDBRANCH  12   7
BRANCH  13  21
ATOM      2  O   UNL     1       1.911  -0.901  -1.135  0.00  0.00    -0.274 OA
ATOM      9  N   UNL     1       0.938  -2.596   0.129  0.00  0.00    -0.302 N 
ATOM     21  C   UNL     1       1.800  -1.535  -0.089  0.00  0.00    +0.234 C 
ATOM     40  H   UNL     1       1.000  -3.106   1.006  0.00  0.00    +0.150 HD
BRANCH   9  25
ATOM     25  C   UNL     1       0.036  -3.103  -0.880  0.00  0.00    +0.163 C 
BRANCH  25  29
ATOM      5  O   UNL     1       1.662  -4.875  -1.226  0.00  0.00    -0.274 OA
ATOM     11  N   UNL     1       0.416  -4.162  -3.019  0.00  0.00    -0.328 N 
ATOM     29  C   UNL     1       0.810  -4.127  -1.698  0.00  0.00    +0.231 C 
ATOM     42  H   UNL     1       0.843  -4.811  -3.672  0.00  0.00    +0.145 HD
ATOM     43  H   UNL     1      -0.306  -3.553  -3.390  0.00  0.00    +0.145 HD
ENDBRANCH  25  29
BRANCH  25  27
ATOM     27  C   UNL     1      -1.219  -3.741  -0.271  0.00  0.00    +0.069 C 
BRANCH  27  28
ATOM     10  N   UNL     1      -2.758  -1.639   2.323  0.00  0.00    -0.360 N 
ATOM     28  C   UNL     1      -2.013  -2.787   0.575  0.00  0.00    -0.020 A 
ATOM     30  C   UNL     1      -3.066  -1.938   0.133  0.00  0.00    +0.003 A 
ATOM     31  C   UNL     1      -1.847  -2.581   1.925  0.00  0.00    +0.087 A 
ATOM     32  C   UNL     1      -3.516  -1.229   1.249  0.00  0.00    +0.047 A 
ATOM     33  C   UNL     1      -3.682  -1.703  -1.112  0.00  0.00    +0.010 A 
ATOM     35  C   UNL     1      -4.555  -0.293   1.182  0.00  0.00    +0.026 A 
ATOM     36  C   UNL     1      -4.722  -0.770  -1.195  0.00  0.00    +0.001 A 
ATOM     37  C   UNL     1      -5.150  -0.078  -0.064  0.00  0.00    +0.002 A 
ATOM     41  H   UNL     1      -2.860  -1.295   3.268  0.00  0.00    +0.165 HD
ENDBRANCH  27  28
ENDBRANCH  25  27
ENDBRANCH   9  25
ENDBRANCH  13  21
BRANCH  23  26
ATOM     26  C   UNL     1       5.490   1.050   0.025  0.00  0.00    +0.164 C 
BRANCH  26   1
ATOM      1  S   UNL     1       4.973   2.019  -1.399  0.00  0.00    -0.155 S 
ATOM     34  C   UNL     1       6.139   3.394  -1.239  0.00  0.00    +0.085 C 
ENDBRANCH  26   1
ENDBRANCH  23  26
TORSDOF 9
