MODEL 1
REMARK VINA RESULT:      -6.6      0.000      0.000
REMARK  Name = 11912204
REMARK  8 active torsions:
REMARK  status: ('A' for Active; 'I' for Inactive)
REMARK    1  A    between atoms: S_1  and  C_25
REMARK    2  A    between atoms: S_1  and  C_27
REMARK    3  A    between atoms: O_8  and  C_34
REMARK    4  A    between atoms: O_8  and  C_38
REMARK    5  A    between atoms: N_11  and  C_18
REMARK    6  A    between atoms: C_13  and  C_17
REMARK    7  A    between atoms: C_20  and  C_25
REMARK    8  A    between atoms: C_22  and  C_26
REMARK                            x       y       z     vdW  Elec       q    Type
REMARK                         _______ _______ _______ _____ _____    ______ ____
ROOT
ATOM      3  O   UNL     1      -9.701 -11.861  12.925  0.00  0.00    -0.274 OA
ATOM      4  O   UNL     1      -7.567 -10.518  19.658  0.00  0.00    -0.270 OA
ATOM      9  N   UNL     1      -8.434 -11.279  17.620  0.00  0.00    -0.283 N 
ATOM     10  N   UNL     1      -9.017 -10.800  14.873  0.00  0.00    -0.296 N 
ATOM     13  C   UNL     1      -7.523 -10.451  16.820  0.00  0.00    +0.179 C 
ATOM     14  C   UNL     1      -8.185  -9.829  15.591  0.00  0.00    +0.139 C 
ATOM     15  C   UNL     1      -9.331 -12.182  16.877  0.00  0.00    +0.128 C 
ATOM     16  C   UNL     1     -10.006 -11.473  15.710  0.00  0.00    +0.127 C 
ATOM     20  C   UNL     1      -8.956 -11.068  13.508  0.00  0.00    +0.237 C 
ATOM     22  C   UNL     1      -8.307 -11.261  19.016  0.00  0.00    +0.247 C 
ENDROOT
BRANCH  22  26
ATOM     26  C   UNL     1      -9.108 -12.211  19.801  0.00  0.00    +0.037 A 
ATOM     28  C   UNL     1      -8.562 -13.439  20.169  0.00  0.00    +0.016 A 
ATOM     29  C   UNL     1     -10.408 -11.880  20.171  0.00  0.00    +0.016 A 
ATOM     30  C   UNL     1      -9.322 -14.340  20.913  0.00  0.00    +0.046 A 
ATOM     31  C   UNL     1     -11.169 -12.783  20.915  0.00  0.00    +0.046 A 
ATOM     34  C   UNL     1     -10.625 -14.012  21.286  0.00  0.00    +0.120 A 
BRANCH  34   8
ATOM      8  O   UNL     1     -11.368 -14.893  22.011  0.00  0.00    -0.495 OA
ATOM     38  C   UNL     1     -12.527 -14.380  22.667  0.00  0.00    +0.277 C 
ENDBRANCH  34   8
ENDBRANCH  22  26
BRANCH  13  17
ATOM      2  O   UNL     1      -6.459 -12.561  16.476  0.00  0.00    -0.274 OA
ATOM     11  N   UNL     1      -5.249 -10.612  16.084  0.00  0.00    -0.302 N 
ATOM     17  C   UNL     1      -6.372 -11.336  16.440  0.00  0.00    +0.236 C 
ATOM     39  H   UNL     1      -5.277  -9.598  16.122  0.00  0.00    +0.150 HD
BRANCH  11  18
ATOM      5  O   UNL     1      -3.502 -11.337  18.058  0.00  0.00    -0.274 OA
ATOM     12  N   UNL     1      -1.724 -11.149  16.637  0.00  0.00    -0.314 N 
ATOM     18  C   UNL     1      -4.005 -11.226  15.700  0.00  0.00    +0.159 C 
ATOM     19  C   UNL     1      -3.432 -10.559  14.457  0.00  0.00    +0.033 C 
ATOM     21  C   UNL     1      -2.042 -11.108  14.178  0.00  0.00    +0.021 C 
ATOM     23  C   UNL     1      -1.139 -10.793  15.356  0.00  0.00    +0.104 C 
ATOM     24  C   UNL     1      -3.076 -11.205  16.908  0.00  0.00    +0.233 C 
ATOM     40  H   UNL     1      -1.094 -11.192  17.432  0.00  0.00    +0.149 HD
ENDBRANCH  11  18
ENDBRANCH  13  17
BRANCH  20  25
ATOM     25  C   UNL     1      -7.902 -10.332  12.722  0.00  0.00    +0.267 C 
BRANCH  25   1
ATOM      1  S   UNL     1      -6.807 -11.494  12.001  0.00  0.00    +0.005 S 
ATOM      6  O   UNL     1      -7.480 -12.167  10.896  0.00  0.00    -0.169 OA
ATOM      7  O   UNL     1      -6.210 -12.285  13.069  0.00  0.00    -0.169 OA
BRANCH   1  27
ATOM     27  C   UNL     1      -5.523 -10.506  11.284  0.00  0.00    +0.089 A 
ATOM     32  C   UNL     1      -5.774  -9.175  11.009  0.00  0.00    +0.027 A 
ATOM     33  C   UNL     1      -4.298 -11.088  11.015  0.00  0.00    +0.027 A 
ATOM     35  C   UNL     1      -4.762  -8.397  10.445  0.00  0.00    +0.002 A 
ATOM     36  C   UNL     1      -3.288 -10.311  10.451  0.00  0.00    +0.002 A 
ATOM     37  C   UNL     1      -3.520  -8.966  10.166  0.00  0.00    +0.000 A 
ENDBRANCH   1  27
ENDBRANCH  25   1
ENDBRANCH  20  25
TORSDOF 7
ENDMDL
MODEL 2
REMARK VINA RESULT:      -6.6     25.725     30.027
REMARK  Name = 11912204
REMARK  8 active torsions:
REMARK  status: ('A' for Active; 'I' for Inactive)
REMARK    1  A    between atoms: S_1  and  C_25
REMARK    2  A    between atoms: S_1  and  C_27
REMARK    3  A    between atoms: O_8  and  C_34
REMARK    4  A    between atoms: O_8  and  C_38
REMARK    5  A    between atoms: N_11  and  C_18
REMARK    6  A    between atoms: C_13  and  C_17
REMARK    7  A    between atoms: C_20  and  C_25
REMARK    8  A    between atoms: C_22  and  C_26
REMARK                            x       y       z     vdW  Elec       q    Type
REMARK                         _______ _______ _______ _____ _____    ______ ____
ROOT
ATOM      3  O   UNL     1       9.425   8.566   2.354  0.00  0.00    -0.274 OA
ATOM      4  O   UNL     1      13.754   2.962   1.109  0.00  0.00    -0.270 OA
ATOM      9  N   UNL     1      12.375   4.855   1.123  0.00  0.00    -0.283 N 
ATOM     10  N   UNL     1      10.513   6.520   2.493  0.00  0.00    -0.296 N 
ATOM     13  C   UNL     1      12.509   5.052   2.572  0.00  0.00    +0.179 C 
ATOM     14  C   UNL     1      11.208   5.475   3.252  0.00  0.00    +0.139 C 
ATOM     15  C   UNL     1      11.593   5.865   0.388  0.00  0.00    +0.128 C 
ATOM     16  C   UNL     1      10.280   6.184   1.091  0.00  0.00    +0.127 C 
ATOM     20  C   UNL     1      10.046   7.726   3.010  0.00  0.00    +0.237 C 
ATOM     22  C   UNL     1      13.095   3.815   0.518  0.00  0.00    +0.247 C 
ENDROOT
BRANCH  22  26
ATOM     26  C   UNL     1      13.086   3.725  -0.949  0.00  0.00    +0.037 A 
ATOM     28  C   UNL     1      12.187   2.871  -1.585  0.00  0.00    +0.016 A 
ATOM     29  C   UNL     1      13.976   4.492  -1.695  0.00  0.00    +0.016 A 
ATOM     30  C   UNL     1      12.179   2.785  -2.977  0.00  0.00    +0.046 A 
ATOM     31  C   UNL     1      13.967   4.406  -3.088  0.00  0.00    +0.046 A 
ATOM     34  C   UNL     1      13.068   3.553  -3.728  0.00  0.00    +0.120 A 
BRANCH  34   8
ATOM      8  O   UNL     1      13.060   3.468  -5.086  0.00  0.00    -0.495 OA
ATOM     38  C   UNL     1      11.805   3.207  -5.715  0.00  0.00    +0.277 C 
ENDBRANCH  34   8
ENDBRANCH  22  26
BRANCH  13  17
ATOM      2  O   UNL     1      14.460   6.261   1.914  0.00  0.00    -0.274 OA
ATOM     11  N   UNL     1      13.485   6.732   3.973  0.00  0.00    -0.302 N 
ATOM     17  C   UNL     1      13.590   6.076   2.760  0.00  0.00    +0.236 C 
ATOM     39  H   UNL     1      12.742   6.476   4.616  0.00  0.00    +0.150 HD
BRANCH  11  18
ATOM      5  O   UNL     1      14.194   6.796   6.613  0.00  0.00    -0.274 OA
ATOM     12  N   UNL     1      14.658   9.029   6.496  0.00  0.00    -0.314 N 
ATOM     18  C   UNL     1      14.413   7.745   4.404  0.00  0.00    +0.159 C 
ATOM     19  C   UNL     1      14.126   9.072   3.716  0.00  0.00    +0.033 C 
ATOM     21  C   UNL     1      15.003  10.159   4.316  0.00  0.00    +0.021 C 
ATOM     23  C   UNL     1      14.679  10.299   5.792  0.00  0.00    +0.104 C 
ATOM     24  C   UNL     1      14.370   7.805   5.927  0.00  0.00    +0.233 C 
ATOM     40  H   UNL     1      14.689   9.067   7.510  0.00  0.00    +0.149 HD
ENDBRANCH  11  18
ENDBRANCH  13  17
BRANCH  20  25
ATOM     25  C   UNL     1      10.335   7.992   4.466  0.00  0.00    +0.267 C 
BRANCH  25   1
ATOM      1  S   UNL     1       8.849   7.849   5.382  0.00  0.00    +0.005 S 
ATOM      6  O   UNL     1       7.806   7.302   4.522  0.00  0.00    -0.169 OA
ATOM      7  O   UNL     1       8.620   9.105   6.083  0.00  0.00    -0.169 OA
BRANCH   1  27
ATOM     27  C   UNL     1       9.199   6.612   6.601  0.00  0.00    +0.089 A 
ATOM     32  C   UNL     1       9.558   5.343   6.187  0.00  0.00    +0.027 A 
ATOM     33  C   UNL     1       9.106   6.943   7.940  0.00  0.00    +0.027 A 
ATOM     35  C   UNL     1       9.834   4.369   7.147  0.00  0.00    +0.002 A 
ATOM     36  C   UNL     1       9.381   5.970   8.900  0.00  0.00    +0.002 A 
ATOM     37  C   UNL     1       9.745   4.683   8.503  0.00  0.00    +0.000 A 
ENDBRANCH   1  27
ENDBRANCH  25   1
ENDBRANCH  20  25
TORSDOF 7
ENDMDL
MODEL 3
REMARK VINA RESULT:      -6.2      2.783      5.513
REMARK  Name = 11912204
REMARK  8 active torsions:
REMARK  status: ('A' for Active; 'I' for Inactive)
REMARK    1  A    between atoms: S_1  and  C_25
REMARK    2  A    between atoms: S_1  and  C_27
REMARK    3  A    between atoms: O_8  and  C_34
REMARK    4  A    between atoms: O_8  and  C_38
REMARK    5  A    between atoms: N_11  and  C_18
REMARK    6  A    between atoms: C_13  and  C_17
REMARK    7  A    between atoms: C_20  and  C_25
REMARK    8  A    between atoms: C_22  and  C_26
REMARK                            x       y       z     vdW  Elec       q    Type
REMARK                         _______ _______ _______ _____ _____    ______ ____
ROOT
ATOM      3  O   UNL     1      -4.820 -10.858  18.928  0.00  0.00    -0.274 OA
ATOM      4  O   UNL     1     -11.690 -12.454  17.527  0.00  0.00    -0.270 OA
ATOM      9  N   UNL     1      -9.563 -11.945  18.365  0.00  0.00    -0.283 N 
ATOM     10  N   UNL     1      -6.766 -11.636  17.927  0.00  0.00    -0.296 N 
ATOM     13  C   UNL     1      -9.085 -11.416  17.081  0.00  0.00    +0.179 C 
ATOM     14  C   UNL     1      -7.641 -11.803  16.763  0.00  0.00    +0.139 C 
ATOM     15  C   UNL     1      -8.632 -11.855  19.505  0.00  0.00    +0.128 C 
ATOM     16  C   UNL     1      -7.232 -12.322  19.129  0.00  0.00    +0.127 C 
ATOM     20  C   UNL     1      -5.558 -10.943  17.942  0.00  0.00    +0.237 C 
ATOM     22  C   UNL     1     -10.895 -12.371  18.462  0.00  0.00    +0.247 C 
ENDROOT
BRANCH  22  26
ATOM     26  C   UNL     1     -11.413 -12.745  19.786  0.00  0.00    +0.037 A 
ATOM     28  C   UNL     1     -10.899 -13.863  20.439  0.00  0.00    +0.016 A 
ATOM     29  C   UNL     1     -12.412 -11.979  20.379  0.00  0.00    +0.016 A 
ATOM     30  C   UNL     1     -11.391 -14.218  21.695  0.00  0.00    +0.046 A 
ATOM     31  C   UNL     1     -12.902 -12.335  21.637  0.00  0.00    +0.046 A 
ATOM     34  C   UNL     1     -12.392 -13.453  22.294  0.00  0.00    +0.120 A 
BRANCH  34   8
ATOM      8  O   UNL     1     -12.872 -13.800  23.519  0.00  0.00    -0.495 OA
ATOM     38  C   UNL     1     -13.813 -12.913  24.124  0.00  0.00    +0.277 C 
ENDBRANCH  34   8
ENDBRANCH  22  26
BRANCH  13  17
ATOM      2  O   UNL     1      -8.361  -9.190  17.550  0.00  0.00    -0.274 OA
ATOM     11  N   UNL     1     -10.515  -9.525  16.736  0.00  0.00    -0.302 N 
ATOM     17  C   UNL     1      -9.257  -9.927  17.149  0.00  0.00    +0.236 C 
ATOM     39  H   UNL     1     -11.194 -10.225  16.453  0.00  0.00    +0.150 HD
BRANCH  11  18
ATOM      5  O   UNL     1     -13.160  -8.987  17.170  0.00  0.00    -0.274 OA
ATOM     12  N   UNL     1     -13.014  -7.029  16.004  0.00  0.00    -0.314 N 
ATOM     18  C   UNL     1     -10.939  -8.149  16.727  0.00  0.00    +0.159 C 
ATOM     19  C   UNL     1     -10.229  -7.370  15.629  0.00  0.00    +0.033 C 
ATOM     21  C   UNL     1     -10.822  -5.973  15.530  0.00  0.00    +0.021 C 
ATOM     23  C   UNL     1     -12.292  -6.083  15.172  0.00  0.00    +0.104 C 
ATOM     24  C   UNL     1     -12.460  -8.127  16.629  0.00  0.00    +0.233 C 
ATOM     40  H   UNL     1     -14.028  -6.975  15.984  0.00  0.00    +0.149 HD
ENDBRANCH  11  18
ENDBRANCH  13  17
BRANCH  20  25
ATOM     25  C   UNL     1      -5.155 -10.261  16.659  0.00  0.00    +0.267 C 
BRANCH  25   1
ATOM      1  S   UNL     1      -3.856 -11.167  15.911  0.00  0.00    +0.005 S 
ATOM      6  O   UNL     1      -4.162 -12.591  15.979  0.00  0.00    -0.169 OA
ATOM      7  O   UNL     1      -2.591 -10.676  16.443  0.00  0.00    -0.169 OA
BRANCH   1  27
ATOM     27  C   UNL     1      -3.929 -10.715  14.200  0.00  0.00    +0.089 A 
ATOM     32  C   UNL     1      -2.766 -10.723  13.453  0.00  0.00    +0.027 A 
ATOM     33  C   UNL     1      -5.147 -10.363  13.650  0.00  0.00    +0.027 A 
ATOM     35  C   UNL     1      -2.824 -10.366  12.105  0.00  0.00    +0.002 A 
ATOM     36  C   UNL     1      -5.205 -10.005  12.303  0.00  0.00    +0.002 A 
ATOM     37  C   UNL     1      -4.043 -10.008  11.531  0.00  0.00    +0.000 A 
ENDBRANCH   1  27
ENDBRANCH  25   1
ENDBRANCH  20  25
TORSDOF 7
ENDMDL
MODEL 4
REMARK VINA RESULT:      -6.2     29.064     33.527
REMARK  Name = 11912204
REMARK  8 active torsions:
REMARK  status: ('A' for Active; 'I' for Inactive)
REMARK    1  A    between atoms: S_1  and  C_25
REMARK    2  A    between atoms: S_1  and  C_27
REMARK    3  A    between atoms: O_8  and  C_34
REMARK    4  A    between atoms: O_8  and  C_38
REMARK    5  A    between atoms: N_11  and  C_18
REMARK    6  A    between atoms: C_13  and  C_17
REMARK    7  A    between atoms: C_20  and  C_25
REMARK    8  A    between atoms: C_22  and  C_26
REMARK                            x       y       z     vdW  Elec       q    Type
REMARK                         _______ _______ _______ _____ _____    ______ ____
ROOT
ATOM      3  O   UNL     1      21.322   3.319  20.781  0.00  0.00    -0.274 OA
ATOM      4  O   UNL     1      17.820   9.593  21.044  0.00  0.00    -0.270 OA
ATOM      9  N   UNL     1      18.600   7.385  20.993  0.00  0.00    -0.283 N 
ATOM     10  N   UNL     1      20.723   5.547  20.517  0.00  0.00    -0.296 N 
ATOM     13  C   UNL     1      19.978   7.770  21.322  0.00  0.00    +0.179 C 
ATOM     14  C   UNL     1      21.032   6.979  20.547  0.00  0.00    +0.139 C 
ATOM     15  C   UNL     1      18.327   5.942  20.873  0.00  0.00    +0.128 C 
ATOM     16  C   UNL     1      19.381   5.235  20.031  0.00  0.00    +0.127 C 
ATOM     20  C   UNL     1      21.599   4.519  20.859  0.00  0.00    +0.237 C 
ATOM     22  C   UNL     1      17.617   8.384  20.946  0.00  0.00    +0.247 C 
ENDROOT
BRANCH  22  26
ATOM     26  C   UNL     1      16.216   7.975  20.779  0.00  0.00    +0.037 A 
ATOM     28  C   UNL     1      15.345   8.027  21.865  0.00  0.00    +0.016 A 
ATOM     29  C   UNL     1      15.767   7.536  19.536  0.00  0.00    +0.016 A 
ATOM     30  C   UNL     1      14.015   7.638  21.705  0.00  0.00    +0.046 A 
ATOM     31  C   UNL     1      14.436   7.148  19.378  0.00  0.00    +0.046 A 
ATOM     34  C   UNL     1      13.560   7.199  20.462  0.00  0.00    +0.120 A 
BRANCH  34   8
ATOM      8  O   UNL     1      12.263   6.818  20.308  0.00  0.00    -0.495 OA
ATOM     38  C   UNL     1      11.563   6.402  21.480  0.00  0.00    +0.277 C 
ENDBRANCH  34   8
ENDBRANCH  22  26
BRANCH  13  17
ATOM      2  O   UNL     1      19.793   6.542  23.361  0.00  0.00    -0.274 OA
ATOM     11  N   UNL     1      20.642   8.707  23.425  0.00  0.00    -0.302 N 
ATOM     17  C   UNL     1      20.125   7.584  22.804  0.00  0.00    +0.236 C 
ATOM     39  H   UNL     1      20.853   9.531  22.869  0.00  0.00    +0.150 HD
BRANCH  11  18
ATOM      5  O   UNL     1      19.777  10.948  24.730  0.00  0.00    -0.274 OA
ATOM     12  N   UNL     1      21.346  10.672  26.367  0.00  0.00    -0.314 N 
ATOM     18  C   UNL     1      20.859   8.793  24.845  0.00  0.00    +0.159 C 
ATOM     19  C   UNL     1      22.227   8.239  25.219  0.00  0.00    +0.033 C 
ATOM     21  C   UNL     1      22.498   8.502  26.692  0.00  0.00    +0.021 C 
ATOM     23  C   UNL     1      22.499   9.999  26.936  0.00  0.00    +0.104 C 
ATOM     24  C   UNL     1      20.630  10.239  25.269  0.00  0.00    +0.233 C 
ATOM     40  H   UNL     1      21.159  11.616  26.694  0.00  0.00    +0.149 HD
ENDBRANCH  11  18
ENDBRANCH  13  17
BRANCH  20  25
ATOM     25  C   UNL     1      22.961   4.931  21.356  0.00  0.00    +0.267 C 
BRANCH  25   1
ATOM      1  S   UNL     1      23.164   4.375  23.005  0.00  0.00    +0.005 S 
ATOM      6  O   UNL     1      21.854   4.102  23.583  0.00  0.00    -0.169 OA
ATOM      7  O   UNL     1      24.077   5.284  23.685  0.00  0.00    -0.169 OA
BRANCH   1  27
ATOM     27  C   UNL     1      23.983   2.812  22.846  0.00  0.00    +0.089 A 
ATOM     32  C   UNL     1      24.598   2.495  21.650  0.00  0.00    +0.027 A 
ATOM     33  C   UNL     1      23.989   1.945  23.922  0.00  0.00    +0.027 A 
ATOM     35  C   UNL     1      25.243   1.263  21.525  0.00  0.00    +0.002 A 
ATOM     36  C   UNL     1      24.633   0.714  23.798  0.00  0.00    +0.002 A 
ATOM     37  C   UNL     1      25.260   0.374  22.599  0.00  0.00    +0.000 A 
ENDBRANCH   1  27
ENDBRANCH  25   1
ENDBRANCH  20  25
TORSDOF 7
ENDMDL
MODEL 5
REMARK VINA RESULT:      -6.1      3.332      6.262
REMARK  Name = 11912204
REMARK  8 active torsions:
REMARK  status: ('A' for Active; 'I' for Inactive)
REMARK    1  A    between atoms: S_1  and  C_25
REMARK    2  A    between atoms: S_1  and  C_27
REMARK    3  A    between atoms: O_8  and  C_34
REMARK    4  A    between atoms: O_8  and  C_38
REMARK    5  A    between atoms: N_11  and  C_18
REMARK    6  A    between atoms: C_13  and  C_17
REMARK    7  A    between atoms: C_20  and  C_25
REMARK    8  A    between atoms: C_22  and  C_26
REMARK                            x       y       z     vdW  Elec       q    Type
REMARK                         _______ _______ _______ _____ _____    ______ ____
ROOT
ATOM      3  O   UNL     1      -6.138 -11.121  20.464  0.00  0.00    -0.274 OA
ATOM      4  O   UNL     1     -12.534 -11.999  17.298  0.00  0.00    -0.270 OA
ATOM      9  N   UNL     1     -10.661 -11.662  18.664  0.00  0.00    -0.283 N 
ATOM     10  N   UNL     1      -7.836 -11.765  19.018  0.00  0.00    -0.296 N 
ATOM     13  C   UNL     1      -9.778 -11.359  17.530  0.00  0.00    +0.179 C 
ATOM     14  C   UNL     1      -8.380 -11.961  17.670  0.00  0.00    +0.139 C 
ATOM     15  C   UNL     1     -10.071 -11.552  20.010  0.00  0.00    +0.128 C 
ATOM     16  C   UNL     1      -8.711 -12.234  20.088  0.00  0.00    +0.127 C 
ATOM     20  C   UNL     1      -6.585 -11.232  19.320  0.00  0.00    +0.237 C 
ATOM     22  C   UNL     1     -12.019 -11.903  18.411  0.00  0.00    +0.247 C 
ENDROOT
BRANCH  22  26
ATOM     26  C   UNL     1     -12.926 -12.044  19.558  0.00  0.00    +0.037 A 
ATOM     28  C   UNL     1     -13.171 -13.305  20.096  0.00  0.00    +0.016 A 
ATOM     29  C   UNL     1     -13.536 -10.916  20.101  0.00  0.00    +0.016 A 
ATOM     30  C   UNL     1     -14.032 -13.439  21.185  0.00  0.00    +0.046 A 
ATOM     31  C   UNL     1     -14.397 -11.051  21.191  0.00  0.00    +0.046 A 
ATOM     34  C   UNL     1     -14.645 -12.312  21.732  0.00  0.00    +0.120 A 
BRANCH  34   8
ATOM      8  O   UNL     1     -15.487 -12.443  22.794  0.00  0.00    -0.495 OA
ATOM     38  C   UNL     1     -14.921 -12.910  24.018  0.00  0.00    +0.277 C 
ENDBRANCH  34   8
ENDBRANCH  22  26
BRANCH  13  17
ATOM      2  O   UNL     1      -8.762  -9.217  17.821  0.00  0.00    -0.274 OA
ATOM     11  N   UNL     1     -10.879  -9.339  16.863  0.00  0.00    -0.302 N 
ATOM     17  C   UNL     1      -9.728  -9.863  17.424  0.00  0.00    +0.236 C 
ATOM     39  H   UNL     1     -11.634  -9.965  16.598  0.00  0.00    +0.150 HD
BRANCH  11  18
ATOM      5  O   UNL     1     -13.444  -8.395  16.939  0.00  0.00    -0.274 OA
ATOM     12  N   UNL     1     -12.894  -6.621  15.610  0.00  0.00    -0.314 N 
ATOM     18  C   UNL     1     -11.090  -7.928  16.671  0.00  0.00    +0.159 C 
ATOM     19  C   UNL     1     -10.167  -7.383  15.590  0.00  0.00    +0.033 C 
ATOM     21  C   UNL     1     -10.532  -5.939  15.287  0.00  0.00    +0.021 C 
ATOM     23  C   UNL     1     -11.960  -5.884  14.777  0.00  0.00    +0.104 C 
ATOM     24  C   UNL     1     -12.574  -7.707  16.399  0.00  0.00    +0.233 C 
ATOM     40  H   UNL     1     -13.881  -6.430  15.470  0.00  0.00    +0.149 HD
ENDBRANCH  11  18
ENDBRANCH  13  17
BRANCH  20  25
ATOM     25  C   UNL     1      -5.750 -10.769  18.153  0.00  0.00    +0.267 C 
BRANCH  25   1
ATOM      1  S   UNL     1      -4.432 -11.897  17.907  0.00  0.00    +0.005 S 
ATOM      6  O   UNL     1      -4.976 -13.195  17.529  0.00  0.00    -0.169 OA
ATOM      7  O   UNL     1      -3.526 -11.797  19.043  0.00  0.00    -0.169 OA
BRANCH   1  27
ATOM     27  C   UNL     1      -3.577 -11.274  16.486  0.00  0.00    +0.089 A 
ATOM     32  C   UNL     1      -2.249 -10.911  16.606  0.00  0.00    +0.027 A 
ATOM     33  C   UNL     1      -4.258 -11.163  15.287  0.00  0.00    +0.027 A 
ATOM     35  C   UNL     1      -1.576 -10.421  15.487  0.00  0.00    +0.002 A 
ATOM     36  C   UNL     1      -3.585 -10.672  14.169  0.00  0.00    +0.002 A 
ATOM     37  C   UNL     1      -2.244 -10.301  14.269  0.00  0.00    +0.000 A 
ENDBRANCH   1  27
ENDBRANCH  25   1
ENDBRANCH  20  25
TORSDOF 7
ENDMDL
MODEL 6
REMARK VINA RESULT:      -6.1     27.387     31.280
REMARK  Name = 11912204
REMARK  8 active torsions:
REMARK  status: ('A' for Active; 'I' for Inactive)
REMARK    1  A    between atoms: S_1  and  C_25
REMARK    2  A    between atoms: S_1  and  C_27
REMARK    3  A    between atoms: O_8  and  C_34
REMARK    4  A    between atoms: O_8  and  C_38
REMARK    5  A    between atoms: N_11  and  C_18
REMARK    6  A    between atoms: C_13  and  C_17
REMARK    7  A    between atoms: C_20  and  C_25
REMARK    8  A    between atoms: C_22  and  C_26
REMARK                            x       y       z     vdW  Elec       q    Type
REMARK                         _______ _______ _______ _____ _____    ______ ____
ROOT
ATOM      3  O   UNL     1      11.614   6.204   7.380  0.00  0.00    -0.274 OA
ATOM      4  O   UNL     1      16.037  10.288   3.450  0.00  0.00    -0.270 OA
ATOM      9  N   UNL     1      14.896   8.945   4.992  0.00  0.00    -0.283 N 
ATOM     10  N   UNL     1      12.463   7.759   5.880  0.00  0.00    -0.296 N 
ATOM     13  C   UNL     1      13.906   8.497   4.004  0.00  0.00    +0.179 C 
ATOM     14  C   UNL     1      12.487   8.404   4.563  0.00  0.00    +0.139 C 
ATOM     15  C   UNL     1      14.799   8.356   6.339  0.00  0.00    +0.128 C 
ATOM     16  C   UNL     1      13.366   8.362   6.856  0.00  0.00    +0.127 C 
ATOM     20  C   UNL     1      11.642   6.697   6.249  0.00  0.00    +0.237 C 
ATOM     22  C   UNL     1      15.935   9.786   4.567  0.00  0.00    +0.247 C 
ENDROOT
BRANCH  22  26
ATOM     26  C   UNL     1      17.011  10.098   5.519  0.00  0.00    +0.037 A 
ATOM     28  C   UNL     1      16.964  11.281   6.253  0.00  0.00    +0.016 A 
ATOM     29  C   UNL     1      18.070   9.210   5.681  0.00  0.00    +0.016 A 
ATOM     30  C   UNL     1      17.985  11.577   7.156  0.00  0.00    +0.046 A 
ATOM     31  C   UNL     1      19.091   9.507   6.585  0.00  0.00    +0.046 A 
ATOM     34  C   UNL     1      19.048  10.690   7.322  0.00  0.00    +0.120 A 
BRANCH  34   8
ATOM      8  O   UNL     1      20.045  10.980   8.202  0.00  0.00    -0.495 OA
ATOM     38  C   UNL     1      20.002  12.258   8.835  0.00  0.00    +0.277 C 
ENDBRANCH  34   8
ENDBRANCH  22  26
BRANCH  13  17
ATOM      2  O   UNL     1      15.448   6.678   3.876  0.00  0.00    -0.274 OA
ATOM     11  N   UNL     1      13.524   6.617   2.569  0.00  0.00    -0.302 N 
ATOM     17  C   UNL     1      14.389   7.169   3.496  0.00  0.00    +0.236 C 
ATOM     39  H   UNL     1      12.687   7.127   2.302  0.00  0.00    +0.150 HD
BRANCH  11  18
ATOM      5  O   UNL     1      14.778   6.647   0.139  0.00  0.00    -0.274 OA
ATOM     12  N   UNL     1      13.806   4.667  -0.453  0.00  0.00    -0.314 N 
ATOM     18  C   UNL     1      13.769   5.358   1.914  0.00  0.00    +0.159 C 
ATOM     19  C   UNL     1      12.585   4.417   2.089  0.00  0.00    +0.033 C 
ATOM     21  C   UNL     1      12.797   3.170   1.246  0.00  0.00    +0.021 C 
ATOM     23  C   UNL     1      12.887   3.568  -0.216  0.00  0.00    +0.104 C 
ATOM     24  C   UNL     1      14.134   5.646   0.462  0.00  0.00    +0.233 C 
ATOM     40  H   UNL     1      14.095   4.822  -1.414  0.00  0.00    +0.149 HD
ENDBRANCH  11  18
ENDBRANCH  13  17
BRANCH  20  25
ATOM     25  C   UNL     1      10.744   6.133   5.176  0.00  0.00    +0.267 C 
BRANCH  25   1
ATOM      1  S   UNL     1       9.156   6.859   5.318  0.00  0.00    +0.005 S 
ATOM      6  O   UNL     1       9.204   7.931   6.304  0.00  0.00    -0.169 OA
ATOM      7  O   UNL     1       8.176   5.790   5.463  0.00  0.00    -0.169 OA
BRANCH   1  27
ATOM     27  C   UNL     1       8.880   7.628   3.746  0.00  0.00    +0.089 A 
ATOM     32  C   UNL     1       9.637   7.229   2.661  0.00  0.00    +0.027 A 
ATOM     33  C   UNL     1       7.913   8.610   3.639  0.00  0.00    +0.027 A 
ATOM     35  C   UNL     1       9.419   7.835   1.423  0.00  0.00    +0.002 A 
ATOM     36  C   UNL     1       7.696   9.216   2.402  0.00  0.00    +0.002 A 
ATOM     37  C   UNL     1       8.449   8.828   1.294  0.00  0.00    +0.000 A 
ENDBRANCH   1  27
ENDBRANCH  25   1
ENDBRANCH  20  25
TORSDOF 7
ENDMDL
MODEL 7
REMARK VINA RESULT:      -6.0      4.396      8.177
REMARK  Name = 11912204
REMARK  8 active torsions:
REMARK  status: ('A' for Active; 'I' for Inactive)
REMARK    1  A    between atoms: S_1  and  C_25
REMARK    2  A    between atoms: S_1  and  C_27
REMARK    3  A    between atoms: O_8  and  C_34
REMARK    4  A    between atoms: O_8  and  C_38
REMARK    5  A    between atoms: N_11  and  C_18
REMARK    6  A    between atoms: C_13  and  C_17
REMARK    7  A    between atoms: C_20  and  C_25
REMARK    8  A    between atoms: C_22  and  C_26
REMARK                            x       y       z     vdW  Elec       q    Type
REMARK                         _______ _______ _______ _____ _____    ______ ____
ROOT
ATOM      3  O   UNL     1      -9.307 -11.916  13.588  0.00  0.00    -0.274 OA
ATOM      4  O   UNL     1     -11.422  -5.785  16.693  0.00  0.00    -0.270 OA
ATOM      9  N   UNL     1     -11.032  -7.716  15.426  0.00  0.00    -0.283 N 
ATOM     10  N   UNL     1      -9.349  -9.921  14.775  0.00  0.00    -0.296 N 
ATOM     13  C   UNL     1     -10.233  -8.355  16.481  0.00  0.00    +0.179 C 
ATOM     14  C   UNL     1      -9.016  -9.110  15.950  0.00  0.00    +0.139 C 
ATOM     15  C   UNL     1     -11.278  -8.512  14.211  0.00  0.00    +0.128 C 
ATOM     16  C   UNL     1     -10.006  -9.177  13.703  0.00  0.00    +0.127 C 
ATOM     20  C   UNL     1      -9.052 -11.271  14.609  0.00  0.00    +0.237 C 
ATOM     22  C   UNL     1     -11.612  -6.467  15.687  0.00  0.00    +0.247 C 
ENDROOT
BRANCH  22  26
ATOM     26  C   UNL     1     -12.540  -5.910  14.693  0.00  0.00    +0.037 A 
ATOM     28  C   UNL     1     -12.064  -5.044  13.710  0.00  0.00    +0.016 A 
ATOM     29  C   UNL     1     -13.889  -6.249  14.740  0.00  0.00    +0.016 A 
ATOM     30  C   UNL     1     -12.946  -4.515  12.768  0.00  0.00    +0.046 A 
ATOM     31  C   UNL     1     -14.770  -5.720  13.795  0.00  0.00    +0.046 A 
ATOM     34  C   UNL     1     -14.298  -4.853  12.810  0.00  0.00    +0.120 A 
BRANCH  34   8
ATOM      8  O   UNL     1     -15.158  -4.336  11.890  0.00  0.00    -0.495 OA
ATOM     38  C   UNL     1     -14.705  -3.210  11.138  0.00  0.00    +0.277 C 
ENDBRANCH  34   8
ENDBRANCH  22  26
BRANCH  13  17
ATOM      2  O   UNL     1     -12.380  -9.066  17.249  0.00  0.00    -0.274 OA
ATOM     11  N   UNL     1     -10.500 -10.293  17.864  0.00  0.00    -0.302 N 
ATOM     17  C   UNL     1     -11.168  -9.264  17.224  0.00  0.00    +0.236 C 
ATOM     39  H   UNL     1      -9.487 -10.343  17.803  0.00  0.00    +0.150 HD
BRANCH  11  18
ATOM      5  O   UNL     1      -9.707 -10.607  20.461  0.00  0.00    -0.274 OA
ATOM     12  N   UNL     1     -10.409 -12.780  20.475  0.00  0.00    -0.314 N 
ATOM     18  C   UNL     1     -11.166 -11.288  18.663  0.00  0.00    +0.159 C 
ATOM     19  C   UNL     1     -11.436 -12.545  17.848  0.00  0.00    +0.033 C 
ATOM     21  C   UNL     1     -11.978 -13.636  18.758  0.00  0.00    +0.021 C 
ATOM     23  C   UNL     1     -10.940 -13.960  19.816  0.00  0.00    +0.104 C 
ATOM     24  C   UNL     1     -10.331 -11.520  19.917  0.00  0.00    +0.233 C 
ATOM     40  H   UNL     1      -9.902 -12.929  21.343  0.00  0.00    +0.149 HD
ENDBRANCH  11  18
ENDBRANCH  13  17
BRANCH  20  25
ATOM     25  C   UNL     1      -8.378 -11.961  15.768  0.00  0.00    +0.267 C 
BRANCH  25   1
ATOM      1  S   UNL     1      -6.648 -11.983  15.496  0.00  0.00    +0.005 S 
ATOM      6  O   UNL     1      -6.271 -10.815  14.708  0.00  0.00    -0.169 OA
ATOM      7  O   UNL     1      -6.273 -13.314  15.036  0.00  0.00    -0.169 OA
BRANCH   1  27
ATOM     27  C   UNL     1      -5.944 -11.755  17.106  0.00  0.00    +0.089 A 
ATOM     32  C   UNL     1      -4.614 -12.072  17.308  0.00  0.00    +0.027 A 
ATOM     33  C   UNL     1      -6.741 -11.267  18.124  0.00  0.00    +0.027 A 
ATOM     35  C   UNL     1      -4.060 -11.892  18.576  0.00  0.00    +0.002 A 
ATOM     36  C   UNL     1      -6.187 -11.088  19.392  0.00  0.00    +0.002 A 
ATOM     37  C   UNL     1      -4.847 -11.400  19.617  0.00  0.00    +0.000 A 
ENDBRANCH   1  27
ENDBRANCH  25   1
ENDBRANCH  20  25
TORSDOF 7
ENDMDL
MODEL 8
REMARK VINA RESULT:      -6.0     25.463     29.531
REMARK  Name = 11912204
REMARK  8 active torsions:
REMARK  status: ('A' for Active; 'I' for Inactive)
REMARK    1  A    between atoms: S_1  and  C_25
REMARK    2  A    between atoms: S_1  and  C_27
REMARK    3  A    between atoms: O_8  and  C_34
REMARK    4  A    between atoms: O_8  and  C_38
REMARK    5  A    between atoms: N_11  and  C_18
REMARK    6  A    between atoms: C_13  and  C_17
REMARK    7  A    between atoms: C_20  and  C_25
REMARK    8  A    between atoms: C_22  and  C_26
REMARK                            x       y       z     vdW  Elec       q    Type
REMARK                         _______ _______ _______ _____ _____    ______ ____
ROOT
ATOM      3  O   UNL     1      12.765  12.513   5.659  0.00  0.00    -0.274 OA
ATOM      4  O   UNL     1       7.600   7.786   4.024  0.00  0.00    -0.270 OA
ATOM      9  N   UNL     1       9.528   9.065   4.384  0.00  0.00    -0.283 N 
ATOM     10  N   UNL     1      10.722  11.539   5.137  0.00  0.00    -0.296 N 
ATOM     13  C   UNL     1       8.898   9.886   5.425  0.00  0.00    +0.179 C 
ATOM     14  C   UNL     1       9.283  11.363   5.352  0.00  0.00    +0.139 C 
ATOM     15  C   UNL     1      10.955   9.320   4.114  0.00  0.00    +0.128 C 
ATOM     16  C   UNL     1      11.248  10.809   3.986  0.00  0.00    +0.127 C 
ATOM     20  C   UNL     1      11.564  12.352   5.893  0.00  0.00    +0.237 C 
ATOM     22  C   UNL     1       8.789   8.018   3.814  0.00  0.00    +0.247 C 
ENDROOT
BRANCH  22  26
ATOM     26  C   UNL     1       9.476   7.101   2.895  0.00  0.00    +0.037 A 
ATOM     28  C   UNL     1      10.049   5.929   3.385  0.00  0.00    +0.016 A 
ATOM     29  C   UNL     1       9.551   7.407   1.539  0.00  0.00    +0.016 A 
ATOM     30  C   UNL     1      10.701   5.059   2.512  0.00  0.00    +0.046 A 
ATOM     31  C   UNL     1      10.203   6.535   0.666  0.00  0.00    +0.046 A 
ATOM     34  C   UNL     1      10.778   5.362   1.153  0.00  0.00    +0.120 A 
BRANCH  34   8
ATOM      8  O   UNL     1      11.416   4.513   0.302  0.00  0.00    -0.495 OA
ATOM     38  C   UNL     1      12.236   5.099  -0.709  0.00  0.00    +0.277 C 
ENDBRANCH  34   8
ENDBRANCH  22  26
BRANCH  13  17
ATOM      2  O   UNL     1       9.448   9.957   7.747  0.00  0.00    -0.274 OA
ATOM     11  N   UNL     1       9.463   7.906   6.650  0.00  0.00    -0.302 N 
ATOM     17  C   UNL     1       9.291   9.275   6.739  0.00  0.00    +0.236 C 
ATOM     39  H   UNL     1       9.338   7.445   5.753  0.00  0.00    +0.150 HD
BRANCH  11  18
ATOM      5  O   UNL     1      11.703   6.361   6.382  0.00  0.00    -0.274 OA
ATOM     12  N   UNL     1      10.934   4.872   7.934  0.00  0.00    -0.314 N 
ATOM     18  C   UNL     1       9.862   7.088   7.765  0.00  0.00    +0.159 C 
ATOM     19  C   UNL     1       8.649   6.465   8.442  0.00  0.00    +0.033 C 
ATOM     21  C   UNL     1       9.108   5.474   9.499  0.00  0.00    +0.021 C 
ATOM     23  C   UNL     1       9.909   4.371   8.831  0.00  0.00    +0.104 C 
ATOM     24  C   UNL     1      10.889   6.078   7.264  0.00  0.00    +0.233 C 
ATOM     40  H   UNL     1      11.652   4.214   7.647  0.00  0.00    +0.149 HD
ENDBRANCH  11  18
ENDBRANCH  13  17
BRANCH  20  25
ATOM     25  C   UNL     1      10.938  13.064   7.065  0.00  0.00    +0.267 C 
BRANCH  25   1
ATOM      1  S   UNL     1      11.798  12.627   8.527  0.00  0.00    +0.005 S 
ATOM      6  O   UNL     1      12.682  13.722   8.910  0.00  0.00    -0.169 OA
ATOM      7  O   UNL     1      12.343  11.287   8.355  0.00  0.00    -0.169 OA
BRANCH   1  27
ATOM     27  C   UNL     1      10.539  12.537   9.770  0.00  0.00    +0.089 A 
ATOM     32  C   UNL     1       9.261  12.965   9.464  0.00  0.00    +0.027 A 
ATOM     33  C   UNL     1      10.862  12.040  11.019  0.00  0.00    +0.027 A 
ATOM     35  C   UNL     1       8.270  12.894  10.443  0.00  0.00    +0.002 A 
ATOM     36  C   UNL     1       9.871  11.969  11.998  0.00  0.00    +0.002 A 
ATOM     37  C   UNL     1       8.575  12.395  11.710  0.00  0.00    +0.000 A 
ENDBRANCH   1  27
ENDBRANCH  25   1
ENDBRANCH  20  25
TORSDOF 7
ENDMDL
MODEL 9
REMARK VINA RESULT:      -6.0     28.065     31.187
REMARK  Name = 11912204
REMARK  8 active torsions:
REMARK  status: ('A' for Active; 'I' for Inactive)
REMARK    1  A    between atoms: S_1  and  C_25
REMARK    2  A    between atoms: S_1  and  C_27
REMARK    3  A    between atoms: O_8  and  C_34
REMARK    4  A    between atoms: O_8  and  C_38
REMARK    5  A    between atoms: N_11  and  C_18
REMARK    6  A    between atoms: C_13  and  C_17
REMARK    7  A    between atoms: C_20  and  C_25
REMARK    8  A    between atoms: C_22  and  C_26
REMARK                            x       y       z     vdW  Elec       q    Type
REMARK                         _______ _______ _______ _____ _____    ______ ____
ROOT
ATOM      3  O   UNL     1      15.400  10.999   5.832  0.00  0.00    -0.274 OA
ATOM      4  O   UNL     1      10.520   5.820   4.802  0.00  0.00    -0.270 OA
ATOM      9  N   UNL     1      11.841   7.746   4.968  0.00  0.00    -0.283 N 
ATOM     10  N   UNL     1      14.138   9.059   6.024  0.00  0.00    -0.296 N 
ATOM     13  C   UNL     1      13.082   6.987   5.167  0.00  0.00    +0.179 C 
ATOM     14  C   UNL     1      14.017   7.609   6.203  0.00  0.00    +0.139 C 
ATOM     15  C   UNL     1      11.970   9.212   4.885  0.00  0.00    +0.128 C 
ATOM     16  C   UNL     1      12.860   9.765   5.990  0.00  0.00    +0.127 C 
ATOM     20  C   UNL     1      15.332   9.771   5.938  0.00  0.00    +0.237 C 
ATOM     22  C   UNL     1      10.652   7.040   4.739  0.00  0.00    +0.247 C 
ENDROOT
BRANCH  22  26
ATOM     26  C   UNL     1       9.448   7.803   4.379  0.00  0.00    +0.037 A 
ATOM     28  C   UNL     1       8.699   8.425   5.376  0.00  0.00    +0.016 A 
ATOM     29  C   UNL     1       9.063   7.900   3.045  0.00  0.00    +0.016 A 
ATOM     30  C   UNL     1       7.557   9.148   5.034  0.00  0.00    +0.046 A 
ATOM     31  C   UNL     1       7.920   8.625   2.704  0.00  0.00    +0.046 A 
ATOM     34  C   UNL     1       7.167   9.248   3.698  0.00  0.00    +0.120 A 
BRANCH  34   8
ATOM      8  O   UNL     1       6.052   9.954   3.366  0.00  0.00    -0.495 OA
ATOM     38  C   UNL     1       5.546  10.867   4.338  0.00  0.00    +0.277 C 
ENDBRANCH  34   8
ENDBRANCH  22  26
BRANCH  13  17
ATOM      2  O   UNL     1      14.610   7.675   3.465  0.00  0.00    -0.274 OA
ATOM     11  N   UNL     1      13.225   5.849   3.063  0.00  0.00    -0.302 N 
ATOM     17  C   UNL     1      13.736   6.888   3.820  0.00  0.00    +0.236 C 
ATOM     39  H   UNL     1      12.477   5.276   3.444  0.00  0.00    +0.150 HD
BRANCH  11  18
ATOM      5  O   UNL     1      11.421   6.089   1.023  0.00  0.00    -0.274 OA
ATOM     12  N   UNL     1      12.556   4.563  -0.240  0.00  0.00    -0.314 N 
ATOM     18  C   UNL     1      13.668   5.555   1.726  0.00  0.00    +0.159 C 
ATOM     19  C   UNL     1      14.593   4.346   1.714  0.00  0.00    +0.033 C 
ATOM     21  C   UNL     1      14.903   3.955   0.278  0.00  0.00    +0.021 C 
ATOM     23  C   UNL     1      13.611   3.582  -0.424  0.00  0.00    +0.104 C 
ATOM     24  C   UNL     1      12.434   5.410   0.843  0.00  0.00    +0.233 C 
ATOM     40  H   UNL     1      11.760   4.502  -0.868  0.00  0.00    +0.149 HD
ENDBRANCH  11  18
ENDBRANCH  13  17
BRANCH  20  25
ATOM     25  C   UNL     1      16.604   8.962   5.977  0.00  0.00    +0.267 C 
BRANCH  25   1
ATOM      1  S   UNL     1      17.785   9.698   4.914  0.00  0.00    +0.005 S 
ATOM      6  O   UNL     1      18.198  10.981   5.470  0.00  0.00    -0.169 OA
ATOM      7  O   UNL     1      17.276   9.635   3.550  0.00  0.00    -0.169 OA
BRANCH   1  27
ATOM     27  C   UNL     1      19.193   8.628   5.009  0.00  0.00    +0.089 A 
ATOM     32  C   UNL     1      19.559   7.898   3.893  0.00  0.00    +0.027 A 
ATOM     33  C   UNL     1      19.895   8.546   6.197  0.00  0.00    +0.027 A 
ATOM     35  C   UNL     1      20.668   7.055   3.969  0.00  0.00    +0.002 A 
ATOM     36  C   UNL     1      21.004   7.702   6.272  0.00  0.00    +0.002 A 
ATOM     37  C   UNL     1      21.390   6.958   5.158  0.00  0.00    +0.000 A 
ENDBRANCH   1  27
ENDBRANCH  25   1
ENDBRANCH  20  25
TORSDOF 7
ENDMDL
MODEL 10
REMARK VINA RESULT:      -6.0     27.539     31.211
REMARK  Name = 11912204
REMARK  8 active torsions:
REMARK  status: ('A' for Active; 'I' for Inactive)
REMARK    1  A    between atoms: S_1  and  C_25
REMARK    2  A    between atoms: S_1  and  C_27
REMARK    3  A    between atoms: O_8  and  C_34
REMARK    4  A    between atoms: O_8  and  C_38
REMARK    5  A    between atoms: N_11  and  C_18
REMARK    6  A    between atoms: C_13  and  C_17
REMARK    7  A    between atoms: C_20  and  C_25
REMARK    8  A    between atoms: C_22  and  C_26
REMARK                            x       y       z     vdW  Elec       q    Type
REMARK                         _______ _______ _______ _____ _____    ______ ____
ROOT
ATOM      3  O   UNL     1      11.665   6.220   7.367  0.00  0.00    -0.274 OA
ATOM      4  O   UNL     1      16.143   9.707   2.952  0.00  0.00    -0.270 OA
ATOM      9  N   UNL     1      15.016   8.415   4.547  0.00  0.00    -0.283 N 
ATOM     10  N   UNL     1      12.606   7.782   5.928  0.00  0.00    -0.296 N 
ATOM     13  C   UNL     1      13.731   8.503   3.840  0.00  0.00    +0.179 C 
ATOM     14  C   UNL     1      12.534   8.682   4.774  0.00  0.00    +0.139 C 
ATOM     15  C   UNL     1      15.046   7.581   5.761  0.00  0.00    +0.128 C 
ATOM     16  C   UNL     1      13.860   7.865   6.673  0.00  0.00    +0.127 C 
ATOM     20  C   UNL     1      11.590   6.935   6.363  0.00  0.00    +0.237 C 
ATOM     22  C   UNL     1      16.144   9.008   3.963  0.00  0.00    +0.247 C 
ENDROOT
BRANCH  22  26
ATOM     26  C   UNL     1      17.453   8.779   4.590  0.00  0.00    +0.037 A 
ATOM     28  C   UNL     1      18.392   7.968   3.956  0.00  0.00    +0.016 A 
ATOM     29  C   UNL     1      17.748   9.372   5.814  0.00  0.00    +0.016 A 
ATOM     30  C   UNL     1      19.634   7.749   4.551  0.00  0.00    +0.046 A 
ATOM     31  C   UNL     1      18.992   9.153   6.408  0.00  0.00    +0.046 A 
ATOM     34  C   UNL     1      19.934   8.342   5.777  0.00  0.00    +0.120 A 
BRANCH  34   8
ATOM      8  O   UNL     1      21.146   8.128   6.358  0.00  0.00    -0.495 OA
ATOM     38  C   UNL     1      22.127   9.156   6.214  0.00  0.00    +0.277 C 
ENDBRANCH  34   8
ENDBRANCH  22  26
BRANCH  13  17
ATOM      2  O   UNL     1      14.559   6.479   2.880  0.00  0.00    -0.274 OA
ATOM     11  N   UNL     1      12.356   7.104   2.464  0.00  0.00    -0.302 N 
ATOM     17  C   UNL     1      13.613   7.249   3.023  0.00  0.00    +0.236 C 
ATOM     39  H   UNL     1      11.655   7.822   2.621  0.00  0.00    +0.150 HD
BRANCH  11  18
ATOM      5  O   UNL     1      12.981   7.250  -0.194  0.00  0.00    -0.274 OA
ATOM     12  N   UNL     1      11.269   5.838  -0.734  0.00  0.00    -0.314 N 
ATOM     18  C   UNL     1      11.993   5.997   1.618  0.00  0.00    +0.159 C 
ATOM     19  C   UNL     1      10.622   5.455   1.995  0.00  0.00    +0.033 C 
ATOM     21  C   UNL     1      10.191   4.408   0.980  0.00  0.00    +0.021 C 
ATOM     23  C   UNL     1      10.096   5.055  -0.390  0.00  0.00    +0.104 C 
ATOM     24  C   UNL     1      12.112   6.454   0.169  0.00  0.00    +0.233 C 
ATOM     40  H   UNL     1      11.378   6.092  -1.711  0.00  0.00    +0.149 HD
ENDBRANCH  11  18
ENDBRANCH  13  17
BRANCH  20  25
ATOM     25  C   UNL     1      10.332   6.909   5.532  0.00  0.00    +0.267 C 
BRANCH  25   1
ATOM      1  S   UNL     1       9.177   8.043   6.204  0.00  0.00    +0.005 S 
ATOM      6  O   UNL     1       9.896   9.157   6.811  0.00  0.00    -0.169 OA
ATOM      7  O   UNL     1       8.207   7.295   6.993  0.00  0.00    -0.169 OA
BRANCH   1  27
ATOM     27  C   UNL     1       8.329   8.696   4.793  0.00  0.00    +0.089 A 
ATOM     32  C   UNL     1       7.394   9.699   4.976  0.00  0.00    +0.027 A 
ATOM     33  C   UNL     1       8.620   8.191   3.540  0.00  0.00    +0.027 A 
ATOM     35  C   UNL     1       6.726  10.213   3.865  0.00  0.00    +0.002 A 
ATOM     36  C   UNL     1       7.951   8.705   2.429  0.00  0.00    +0.002 A 
ATOM     37  C   UNL     1       7.005   9.717   2.592  0.00  0.00    +0.000 A 
ENDBRANCH   1  27
ENDBRANCH  25   1
ENDBRANCH  20  25
TORSDOF 7
ENDMDL
