MODEL 1
REMARK VINA RESULT:      -7.1      0.000      0.000
REMARK  Name = 38028541
REMARK  11 active torsions:
REMARK  status: ('A' for Active; 'I' for Inactive)
REMARK    1  A    between atoms: N_4  and  C_14
REMARK    2  A    between atoms: N_5  and  C_21
REMARK    3  A    between atoms: C_7  and  C_11
REMARK    4  A    between atoms: C_8  and  C_14
REMARK    5  A    between atoms: C_10  and  C_15
REMARK    6  A    between atoms: C_11  and  C_16
REMARK    7  A    between atoms: C_11  and  C_17
REMARK    8  A    between atoms: C_12  and  C_18
REMARK    9  A    between atoms: C_15  and  C_19
REMARK   10  A    between atoms: C_20  and  C_22
REMARK   11  A    between atoms: C_21  and  C_23
REMARK                            x       y       z     vdW  Elec       q    Type
REMARK                         _______ _______ _______ _____ _____    ______ ____
ROOT
ATOM      7  C   UNL     1      -3.151 -12.165  12.648  0.00  0.00    +0.000 C 
ATOM      8  C   UNL     1      -2.058 -11.080  12.486  0.00  0.00    +0.032 C 
ATOM      9  C   UNL     1      -3.742 -12.540  11.280  0.00  0.00    +0.012 C 
ATOM     10  C   UNL     1      -4.361 -11.327  10.561  0.00  0.00    +0.023 C 
ATOM     12  C   UNL     1      -3.442 -10.123  10.594  0.00  0.00    -0.073 C 
ATOM     13  C   UNL     1      -2.411 -10.035  11.452  0.00  0.00    -0.022 C 
ATOM     18  C   UNL     1      -3.709  -9.039   9.586  0.00  0.00    +0.039 C 
ENDROOT
BRANCH   7  11
ATOM     11  C   UNL     1      -2.610 -13.419  13.340  0.00  0.00    -0.013 C 
ATOM     16  C   UNL     1      -2.411 -14.542  12.327  0.00  0.00    +0.007 C 
ATOM     17  C   UNL     1      -3.550 -13.859  14.458  0.00  0.00    +0.007 C 
ENDBRANCH   7  11
BRANCH   8  14
ATOM     14  C   UNL     1      -1.759 -10.393  13.824  0.00  0.00    +0.112 C 
BRANCH  14   4
ATOM      3  O   UNL     1      -1.980 -10.929  16.635  0.00  0.00    -0.270 OA
ATOM      4  N   UNL     1      -2.942 -10.297  14.621  0.00  0.00    -0.311 N 
ATOM     20  C   UNL     1      -2.961 -10.576  15.987  0.00  0.00    +0.244 C 
ATOM     33  H   UNL     1      -3.772  -9.921  14.173  0.00  0.00    +0.149 HD
BRANCH  20  22
ATOM      1  F   UNL     1      -5.829 -11.300  19.846  0.00  0.00    -0.205 F 
ATOM     22  C   UNL     1      -4.276 -10.454  16.667  0.00  0.00    +0.039 A 
ATOM     24  C   UNL     1      -4.439 -10.944  17.963  0.00  0.00    +0.051 A 
ATOM     25  C   UNL     1      -5.348  -9.849  16.011  0.00  0.00    +0.013 A 
ATOM     28  C   UNL     1      -5.673 -10.829  18.602  0.00  0.00    +0.124 A 
ATOM     29  C   UNL     1      -6.583  -9.735  16.650  0.00  0.00    +0.004 A 
ATOM     30  C   UNL     1      -6.746 -10.225  17.946  0.00  0.00    +0.038 A 
ENDBRANCH  20  22
ENDBRANCH  14   4
ENDBRANCH   8  14
BRANCH  10  15
ATOM     15  C   UNL     1      -5.737 -10.983  11.142  0.00  0.00    +0.103 C 
BRANCH  15  19
ATOM      2  O   UNL     1      -6.860 -11.763   9.145  0.00  0.00    -0.276 OA
ATOM      5  N   UNL     1      -7.727  -9.951  10.312  0.00  0.00    -0.311 N 
ATOM     19  C   UNL     1      -6.815 -10.970  10.081  0.00  0.00    +0.214 C 
ATOM     34  H   UNL     1      -7.601  -9.337  11.112  0.00  0.00    +0.149 HD
BRANCH   5  21
ATOM     21  C   UNL     1      -8.863  -9.699   9.455  0.00  0.00    +0.141 C 
BRANCH  21  23
ATOM      6  N   UNL     1     -10.272  -6.228   8.950  0.00  0.00    -0.263 NA
ATOM     23  C   UNL     1      -8.960  -8.256   9.059  0.00  0.00    -0.012 A 
ATOM     26  C   UNL     1      -7.891  -7.605   8.453  0.00  0.00    +0.008 A 
ATOM     27  C   UNL     1     -10.118  -7.529   9.283  0.00  0.00    +0.115 A 
ATOM     31  C   UNL     1      -8.011  -6.267   8.096  0.00  0.00    +0.020 A 
ATOM     32  C   UNL     1      -9.212  -5.629   8.363  0.00  0.00    +0.111 A 
ENDBRANCH  21  23
ENDBRANCH   5  21
ENDBRANCH  15  19
ENDBRANCH  10  15
TORSDOF 8
ENDMDL
MODEL 2
REMARK VINA RESULT:      -6.9      1.579      1.960
REMARK  Name = 38028541
REMARK  11 active torsions:
REMARK  status: ('A' for Active; 'I' for Inactive)
REMARK    1  A    between atoms: N_4  and  C_14
REMARK    2  A    between atoms: N_5  and  C_21
REMARK    3  A    between atoms: C_7  and  C_11
REMARK    4  A    between atoms: C_8  and  C_14
REMARK    5  A    between atoms: C_10  and  C_15
REMARK    6  A    between atoms: C_11  and  C_16
REMARK    7  A    between atoms: C_11  and  C_17
REMARK    8  A    between atoms: C_12  and  C_18
REMARK    9  A    between atoms: C_15  and  C_19
REMARK   10  A    between atoms: C_20  and  C_22
REMARK   11  A    between atoms: C_21  and  C_23
REMARK                            x       y       z     vdW  Elec       q    Type
REMARK                         _______ _______ _______ _____ _____    ______ ____
ROOT
ATOM      7  C   UNL     1      -3.391 -12.038  12.471  0.00  0.00    +0.000 C 
ATOM      8  C   UNL     1      -2.259 -11.013  12.208  0.00  0.00    +0.032 C 
ATOM      9  C   UNL     1      -4.097 -12.407  11.157  0.00  0.00    +0.012 C 
ATOM     10  C   UNL     1      -4.705 -11.177  10.457  0.00  0.00    +0.023 C 
ATOM     12  C   UNL     1      -3.726 -10.021  10.398  0.00  0.00    -0.073 C 
ATOM     13  C   UNL     1      -2.633  -9.971  11.180  0.00  0.00    -0.022 C 
ATOM     18  C   UNL     1      -4.010  -8.944   9.389  0.00  0.00    +0.039 C 
ENDROOT
BRANCH   7  11
ATOM     11  C   UNL     1      -2.864 -13.305  13.151  0.00  0.00    -0.013 C 
ATOM     16  C   UNL     1      -2.600 -14.394  12.116  0.00  0.00    +0.007 C 
ATOM     17  C   UNL     1      -3.851 -13.791  14.209  0.00  0.00    +0.007 C 
ENDBRANCH   7  11
BRANCH   8  14
ATOM     14  C   UNL     1      -1.831 -10.318  13.506  0.00  0.00    +0.112 C 
BRANCH  14   4
ATOM      3  O   UNL     1      -1.641 -10.931  16.304  0.00  0.00    -0.270 OA
ATOM      4  N   UNL     1      -2.899 -10.312  14.455  0.00  0.00    -0.311 N 
ATOM     20  C   UNL     1      -2.719 -10.623  15.803  0.00  0.00    +0.244 C 
ATOM     33  H   UNL     1      -3.802  -9.977  14.134  0.00  0.00    +0.149 HD
BRANCH  20  22
ATOM      1  F   UNL     1      -7.284  -9.175  16.645  0.00  0.00    -0.205 F 
ATOM     22  C   UNL     1      -3.935 -10.597  16.655  0.00  0.00    +0.039 A 
ATOM     24  C   UNL     1      -5.061  -9.884  16.242  0.00  0.00    +0.051 A 
ATOM     25  C   UNL     1      -3.952 -11.285  17.869  0.00  0.00    +0.013 A 
ATOM     28  C   UNL     1      -6.203  -9.860  17.042  0.00  0.00    +0.124 A 
ATOM     29  C   UNL     1      -5.094 -11.259  18.669  0.00  0.00    +0.004 A 
ATOM     30  C   UNL     1      -6.220 -10.547  18.256  0.00  0.00    +0.038 A 
ENDBRANCH  20  22
ENDBRANCH  14   4
ENDBRANCH   8  14
BRANCH  10  15
ATOM     15  C   UNL     1      -6.016 -10.752  11.126  0.00  0.00    +0.103 C 
BRANCH  15  19
ATOM      2  O   UNL     1      -7.718 -11.777   9.746  0.00  0.00    -0.276 OA
ATOM      5  N   UNL     1      -7.533  -9.462   9.804  0.00  0.00    -0.311 N 
ATOM     19  C   UNL     1      -7.176 -10.755  10.157  0.00  0.00    +0.214 C 
ATOM     34  H   UNL     1      -7.018  -8.677  10.192  0.00  0.00    +0.149 HD
BRANCH   5  21
ATOM     21  C   UNL     1      -8.610  -9.162   8.888  0.00  0.00    +0.141 C 
BRANCH  21  23
ATOM      6  N   UNL     1      -8.331  -7.651   5.434  0.00  0.00    -0.263 NA
ATOM     23  C   UNL     1      -8.108  -8.884   7.502  0.00  0.00    -0.012 A 
ATOM     26  C   UNL     1      -7.006  -9.559   6.989  0.00  0.00    +0.008 A 
ATOM     27  C   UNL     1      -8.729  -7.948   6.691  0.00  0.00    +0.115 A 
ATOM     31  C   UNL     1      -6.565  -9.281   5.700  0.00  0.00    +0.020 A 
ATOM     32  C   UNL     1      -7.256  -8.328   4.971  0.00  0.00    +0.111 A 
ENDBRANCH  21  23
ENDBRANCH   5  21
ENDBRANCH  15  19
ENDBRANCH  10  15
TORSDOF 8
ENDMDL
MODEL 3
REMARK VINA RESULT:      -6.8      2.381      3.220
REMARK  Name = 38028541
REMARK  11 active torsions:
REMARK  status: ('A' for Active; 'I' for Inactive)
REMARK    1  A    between atoms: N_4  and  C_14
REMARK    2  A    between atoms: N_5  and  C_21
REMARK    3  A    between atoms: C_7  and  C_11
REMARK    4  A    between atoms: C_8  and  C_14
REMARK    5  A    between atoms: C_10  and  C_15
REMARK    6  A    between atoms: C_11  and  C_16
REMARK    7  A    between atoms: C_11  and  C_17
REMARK    8  A    between atoms: C_12  and  C_18
REMARK    9  A    between atoms: C_15  and  C_19
REMARK   10  A    between atoms: C_20  and  C_22
REMARK   11  A    between atoms: C_21  and  C_23
REMARK                            x       y       z     vdW  Elec       q    Type
REMARK                         _______ _______ _______ _____ _____    ______ ____
ROOT
ATOM      7  C   UNL     1      -2.987 -12.316  12.941  0.00  0.00    +0.000 C 
ATOM      8  C   UNL     1      -1.908 -11.206  12.912  0.00  0.00    +0.032 C 
ATOM      9  C   UNL     1      -3.435 -12.666  11.514  0.00  0.00    +0.012 C 
ATOM     10  C   UNL     1      -4.008 -11.448  10.767  0.00  0.00    +0.023 C 
ATOM     12  C   UNL     1      -3.122 -10.227  10.918  0.00  0.00    -0.073 C 
ATOM     13  C   UNL     1      -2.181 -10.142  11.874  0.00  0.00    -0.022 C 
ATOM     18  C   UNL     1      -3.314  -9.123   9.915  0.00  0.00    +0.039 C 
ENDROOT
BRANCH   7  11
ATOM     11  C   UNL     1      -2.488 -13.577  13.653  0.00  0.00    -0.013 C 
ATOM     16  C   UNL     1      -2.127 -14.655  12.636  0.00  0.00    +0.007 C 
ATOM     17  C   UNL     1      -3.541 -14.087  14.632  0.00  0.00    +0.007 C 
ENDBRANCH   7  11
BRANCH   8  14
ATOM     14  C   UNL     1      -1.754 -10.548  14.289  0.00  0.00    +0.112 C 
BRANCH  14   4
ATOM      3  O   UNL     1      -2.456 -11.086  17.019  0.00  0.00    -0.270 OA
ATOM      4  N   UNL     1      -3.030 -10.343  14.898  0.00  0.00    -0.311 N 
ATOM     20  C   UNL     1      -3.287 -10.631  16.238  0.00  0.00    +0.244 C 
ATOM     33  H   UNL     1      -3.742  -9.882  14.338  0.00  0.00    +0.149 HD
BRANCH  20  22
ATOM      1  F   UNL     1      -6.662 -10.753  19.737  0.00  0.00    -0.205 F 
ATOM     22  C   UNL     1      -4.673 -10.386  16.713  0.00  0.00    +0.039 A 
ATOM     24  C   UNL     1      -5.024 -10.691  18.028  0.00  0.00    +0.051 A 
ATOM     25  C   UNL     1      -5.624  -9.849  15.844  0.00  0.00    +0.013 A 
ATOM     28  C   UNL     1      -6.325 -10.460  18.474  0.00  0.00    +0.124 A 
ATOM     29  C   UNL     1      -6.925  -9.620  16.290  0.00  0.00    +0.004 A 
ATOM     30  C   UNL     1      -7.276  -9.925  17.605  0.00  0.00    +0.038 A 
ENDBRANCH  20  22
ENDBRANCH  14   4
ENDBRANCH   8  14
BRANCH  10  15
ATOM     15  C   UNL     1      -5.440 -11.145  11.219  0.00  0.00    +0.103 C 
BRANCH  15  19
ATOM      2  O   UNL     1      -7.427 -12.280  10.432  0.00  0.00    -0.276 OA
ATOM      5  N   UNL     1      -6.161 -11.024   8.943  0.00  0.00    -0.311 N 
ATOM     19  C   UNL     1      -6.463 -11.561  10.186  0.00  0.00    +0.214 C 
ATOM     34  H   UNL     1      -5.333 -10.444   8.836  0.00  0.00    +0.149 HD
BRANCH   5  21
ATOM     21  C   UNL     1      -6.966 -11.256   7.766  0.00  0.00    +0.141 C 
BRANCH  21  23
ATOM      6  N   UNL     1      -5.999 -11.981   4.183  0.00  0.00    -0.263 NA
ATOM     23  C   UNL     1      -6.125 -11.561   6.561  0.00  0.00    -0.012 A 
ATOM     26  C   UNL     1      -4.747 -11.712   6.668  0.00  0.00    +0.008 A 
ATOM     27  C   UNL     1      -6.697 -11.705   5.307  0.00  0.00    +0.115 A 
ATOM     31  C   UNL     1      -3.994 -11.996   5.534  0.00  0.00    +0.020 A 
ATOM     32  C   UNL     1      -4.662 -12.120   4.327  0.00  0.00    +0.111 A 
ENDBRANCH  21  23
ENDBRANCH   5  21
ENDBRANCH  15  19
ENDBRANCH  10  15
TORSDOF 8
ENDMDL
MODEL 4
REMARK VINA RESULT:      -6.7     23.747     26.283
REMARK  Name = 38028541
REMARK  11 active torsions:
REMARK  status: ('A' for Active; 'I' for Inactive)
REMARK    1  A    between atoms: N_4  and  C_14
REMARK    2  A    between atoms: N_5  and  C_21
REMARK    3  A    between atoms: C_7  and  C_11
REMARK    4  A    between atoms: C_8  and  C_14
REMARK    5  A    between atoms: C_10  and  C_15
REMARK    6  A    between atoms: C_11  and  C_16
REMARK    7  A    between atoms: C_11  and  C_17
REMARK    8  A    between atoms: C_12  and  C_18
REMARK    9  A    between atoms: C_15  and  C_19
REMARK   10  A    between atoms: C_20  and  C_22
REMARK   11  A    between atoms: C_21  and  C_23
REMARK                            x       y       z     vdW  Elec       q    Type
REMARK                         _______ _______ _______ _____ _____    ______ ____
ROOT
ATOM      7  C   UNL     1       8.988   8.151   5.851  0.00  0.00    +0.000 C 
ATOM      8  C   UNL     1       8.777   8.155   7.386  0.00  0.00    +0.032 C 
ATOM      9  C   UNL     1       8.549   6.805   5.253  0.00  0.00    +0.012 C 
ATOM     10  C   UNL     1       9.326   5.620   5.856  0.00  0.00    +0.023 C 
ATOM     12  C   UNL     1       9.390   5.699   7.368  0.00  0.00    -0.073 C 
ATOM     13  C   UNL     1       9.130   6.837   8.035  0.00  0.00    -0.022 C 
ATOM     18  C   UNL     1       9.719   4.427   8.100  0.00  0.00    +0.039 C 
ENDROOT
BRANCH   7  11
ATOM     11  C   UNL     1       8.229   9.293   5.170  0.00  0.00    -0.013 C 
ATOM     16  C   UNL     1       7.420   8.765   3.989  0.00  0.00    +0.007 C 
ATOM     17  C   UNL     1       9.199  10.381   4.718  0.00  0.00    +0.007 C 
ENDBRANCH   7  11
BRANCH   8  14
ATOM     14  C   UNL     1       9.577   9.282   8.050  0.00  0.00    +0.112 C 
BRANCH  14   4
ATOM      3  O   UNL     1      11.339  11.515   7.668  0.00  0.00    -0.270 OA
ATOM      4  N   UNL     1      10.951   9.228   7.659  0.00  0.00    -0.311 N 
ATOM     20  C   UNL     1      11.739  10.366   7.496  0.00  0.00    +0.244 C 
ATOM     33  H   UNL     1      11.376   8.308   7.590  0.00  0.00    +0.149 HD
BRANCH  20  22
ATOM      1  F   UNL     1      15.300   7.415   5.995  0.00  0.00    -0.205 F 
ATOM     22  C   UNL     1      13.141  10.142   7.061  0.00  0.00    +0.039 A 
ATOM     24  C   UNL     1      13.571   8.858   6.726  0.00  0.00    +0.051 A 
ATOM     25  C   UNL     1      14.029  11.216   6.986  0.00  0.00    +0.013 A 
ATOM     28  C   UNL     1      14.887   8.647   6.316  0.00  0.00    +0.124 A 
ATOM     29  C   UNL     1      15.345  11.005   6.577  0.00  0.00    +0.004 A 
ATOM     30  C   UNL     1      15.775   9.721   6.242  0.00  0.00    +0.038 A 
ENDBRANCH  20  22
ENDBRANCH  14   4
ENDBRANCH   8  14
BRANCH  10  15
ATOM     15  C   UNL     1      10.729   5.513   5.251  0.00  0.00    +0.103 C 
BRANCH  15  19
ATOM      2  O   UNL     1      10.711   6.626   3.103  0.00  0.00    -0.276 OA
ATOM      5  N   UNL     1      10.673   4.304   3.190  0.00  0.00    -0.311 N 
ATOM     19  C   UNL     1      10.704   5.577   3.741  0.00  0.00    +0.214 C 
ATOM     34  H   UNL     1      10.662   3.493   3.802  0.00  0.00    +0.149 HD
BRANCH   5  21
ATOM     21  C   UNL     1      10.642   4.061   1.766  0.00  0.00    +0.141 C 
BRANCH  21  23
ATOM      6  N   UNL     1      14.287   3.199   1.254  0.00  0.00    -0.263 NA
ATOM     23  C   UNL     1      12.019   4.032   1.171  0.00  0.00    -0.012 A 
ATOM     26  C   UNL     1      12.325   4.772   0.034  0.00  0.00    +0.008 A 
ATOM     27  C   UNL     1      13.027   3.269   1.737  0.00  0.00    +0.115 A 
ATOM     31  C   UNL     1      13.611   4.726  -0.493  0.00  0.00    +0.020 A 
ATOM     32  C   UNL     1      14.547   3.932   0.148  0.00  0.00    +0.111 A 
ENDBRANCH  21  23
ENDBRANCH   5  21
ENDBRANCH  15  19
ENDBRANCH  10  15
TORSDOF 8
ENDMDL
MODEL 5
REMARK VINA RESULT:      -6.6     24.356     26.849
REMARK  Name = 38028541
REMARK  11 active torsions:
REMARK  status: ('A' for Active; 'I' for Inactive)
REMARK    1  A    between atoms: N_4  and  C_14
REMARK    2  A    between atoms: N_5  and  C_21
REMARK    3  A    between atoms: C_7  and  C_11
REMARK    4  A    between atoms: C_8  and  C_14
REMARK    5  A    between atoms: C_10  and  C_15
REMARK    6  A    between atoms: C_11  and  C_16
REMARK    7  A    between atoms: C_11  and  C_17
REMARK    8  A    between atoms: C_12  and  C_18
REMARK    9  A    between atoms: C_15  and  C_19
REMARK   10  A    between atoms: C_20  and  C_22
REMARK   11  A    between atoms: C_21  and  C_23
REMARK                            x       y       z     vdW  Elec       q    Type
REMARK                         _______ _______ _______ _____ _____    ______ ____
ROOT
ATOM      7  C   UNL     1       9.073   8.182   5.110  0.00  0.00    +0.000 C 
ATOM      8  C   UNL     1       8.670   8.898   6.423  0.00  0.00    +0.032 C 
ATOM      9  C   UNL     1       8.537   6.742   5.098  0.00  0.00    +0.012 C 
ATOM     10  C   UNL     1       9.062   5.915   6.286  0.00  0.00    +0.023 C 
ATOM     12  C   UNL     1       8.943   6.670   7.595  0.00  0.00    -0.073 C 
ATOM     13  C   UNL     1       8.756   8.001   7.636  0.00  0.00    -0.022 C 
ATOM     18  C   UNL     1       9.001   5.853   8.855  0.00  0.00    +0.039 C 
ENDROOT
BRANCH   7  11
ATOM     11  C   UNL     1       8.570   8.934   3.875  0.00  0.00    -0.013 C 
ATOM     16  C   UNL     1       7.104   9.319   4.047  0.00  0.00    +0.007 C 
ATOM     17  C   UNL     1       8.764   8.088   2.620  0.00  0.00    +0.007 C 
ENDBRANCH   7  11
BRANCH   8  14
ATOM     14  C   UNL     1       9.524  10.151   6.654  0.00  0.00    +0.112 C 
BRANCH  14   4
ATOM      3  O   UNL     1      11.734  10.463   8.458  0.00  0.00    -0.270 OA
ATOM      4  N   UNL     1      10.899   9.887   6.372  0.00  0.00    -0.311 N 
ATOM     20  C   UNL     1      11.915  10.065   7.311  0.00  0.00    +0.244 C 
ATOM     33  H   UNL     1      11.115   9.467   5.473  0.00  0.00    +0.149 HD
BRANCH  20  22
ATOM      1  F   UNL     1      15.331   6.923   5.863  0.00  0.00    -0.205 F 
ATOM     22  C   UNL     1      13.297   9.772   6.853  0.00  0.00    +0.039 A 
ATOM     24  C   UNL     1      13.673   8.459   6.567  0.00  0.00    +0.051 A 
ATOM     25  C   UNL     1      14.219  10.808   6.709  0.00  0.00    +0.013 A 
ATOM     28  C   UNL     1      14.970   8.183   6.137  0.00  0.00    +0.124 A 
ATOM     29  C   UNL     1      15.518  10.532   6.280  0.00  0.00    +0.004 A 
ATOM     30  C   UNL     1      15.893   9.219   5.994  0.00  0.00    +0.038 A 
ENDBRANCH  20  22
ENDBRANCH  14   4
ENDBRANCH   8  14
BRANCH  10  15
ATOM     15  C   UNL     1      10.505   5.457   6.046  0.00  0.00    +0.103 C 
BRANCH  15  19
ATOM      2  O   UNL     1      10.274   4.839   3.718  0.00  0.00    -0.276 OA
ATOM      5  N   UNL     1      11.961   6.305   4.350  0.00  0.00    -0.311 N 
ATOM     19  C   UNL     1      10.872   5.478   4.579  0.00  0.00    +0.214 C 
ATOM     34  H   UNL     1      12.396   6.789   5.132  0.00  0.00    +0.149 HD
BRANCH   5  21
ATOM     21  C   UNL     1      12.532   6.515   3.040  0.00  0.00    +0.141 C 
BRANCH  21  23
ATOM      6  N   UNL     1      15.069   9.225   2.324  0.00  0.00    -0.263 NA
ATOM     23  C   UNL     1      13.149   7.876   2.906  0.00  0.00    -0.012 A 
ATOM     26  C   UNL     1      12.431   9.023   3.224  0.00  0.00    +0.008 A 
ATOM     27  C   UNL     1      14.453   8.030   2.465  0.00  0.00    +0.115 A 
ATOM     31  C   UNL     1      13.030  10.271   3.092  0.00  0.00    +0.020 A 
ATOM     32  C   UNL     1      14.339  10.317   2.642  0.00  0.00    +0.111 A 
ENDBRANCH  21  23
ENDBRANCH   5  21
ENDBRANCH  15  19
ENDBRANCH  10  15
TORSDOF 8
ENDMDL
MODEL 6
REMARK VINA RESULT:      -6.5      5.098      7.928
REMARK  Name = 38028541
REMARK  11 active torsions:
REMARK  status: ('A' for Active; 'I' for Inactive)
REMARK    1  A    between atoms: N_4  and  C_14
REMARK    2  A    between atoms: N_5  and  C_21
REMARK    3  A    between atoms: C_7  and  C_11
REMARK    4  A    between atoms: C_8  and  C_14
REMARK    5  A    between atoms: C_10  and  C_15
REMARK    6  A    between atoms: C_11  and  C_16
REMARK    7  A    between atoms: C_11  and  C_17
REMARK    8  A    between atoms: C_12  and  C_18
REMARK    9  A    between atoms: C_15  and  C_19
REMARK   10  A    between atoms: C_20  and  C_22
REMARK   11  A    between atoms: C_21  and  C_23
REMARK                            x       y       z     vdW  Elec       q    Type
REMARK                         _______ _______ _______ _____ _____    ______ ____
ROOT
ATOM      7  C   UNL     1     -12.402  -9.431  18.219  0.00  0.00    +0.000 C 
ATOM      8  C   UNL     1     -11.136 -10.299  18.013  0.00  0.00    +0.032 C 
ATOM      9  C   UNL     1     -13.138  -9.230  16.885  0.00  0.00    +0.012 C 
ATOM     10  C   UNL     1     -12.249  -8.553  15.826  0.00  0.00    +0.023 C 
ATOM     12  C   UNL     1     -10.876  -9.190  15.752  0.00  0.00    -0.073 C 
ATOM     13  C   UNL     1     -10.401  -9.977  16.733  0.00  0.00    -0.022 C 
ATOM     18  C   UNL     1     -10.078  -8.937  14.503  0.00  0.00    +0.039 C 
ENDROOT
BRANCH   7  11
ATOM     11  C   UNL     1     -13.353 -10.048  19.249  0.00  0.00    -0.013 C 
ATOM     16  C   UNL     1     -12.950  -9.633  20.661  0.00  0.00    +0.007 C 
ATOM     17  C   UNL     1     -13.370 -11.567  19.116  0.00  0.00    +0.007 C 
ENDBRANCH   7  11
BRANCH   8  14
ATOM     14  C   UNL     1     -10.175 -10.166  19.201  0.00  0.00    +0.112 C 
BRANCH  14   4
ATOM      3  O   UNL     1      -8.225 -12.051  20.140  0.00  0.00    -0.270 OA
ATOM      4  N   UNL     1      -8.817 -10.275  18.770  0.00  0.00    -0.311 N 
ATOM     20  C   UNL     1      -7.933 -11.224  19.280  0.00  0.00    +0.244 C 
ATOM     33  H   UNL     1      -8.529  -9.686  17.994  0.00  0.00    +0.149 HD
BRANCH  20  22
ATOM      1  F   UNL     1      -3.207 -12.302  19.663  0.00  0.00    -0.205 F 
ATOM     22  C   UNL     1      -6.547 -11.190  18.746  0.00  0.00    +0.039 A 
ATOM     24  C   UNL     1      -5.506 -11.774  19.469  0.00  0.00    +0.051 A 
ATOM     25  C   UNL     1      -6.286 -10.575  17.522  0.00  0.00    +0.013 A 
ATOM     28  C   UNL     1      -4.205 -11.742  18.969  0.00  0.00    +0.124 A 
ATOM     29  C   UNL     1      -4.984 -10.543  17.022  0.00  0.00    +0.004 A 
ATOM     30  C   UNL     1      -3.944 -11.126  17.745  0.00  0.00    +0.038 A 
ENDBRANCH  20  22
ENDBRANCH  14   4
ENDBRANCH   8  14
BRANCH  10  15
ATOM     15  C   UNL     1     -12.141  -7.045  16.077  0.00  0.00    +0.103 C 
BRANCH  15  19
ATOM      2  O   UNL     1     -14.312  -6.391  15.232  0.00  0.00    -0.276 OA
ATOM      5  N   UNL     1     -12.402  -5.370  14.391  0.00  0.00    -0.311 N 
ATOM     19  C   UNL     1     -13.092  -6.254  15.207  0.00  0.00    +0.214 C 
ATOM     34  H   UNL     1     -11.387  -5.335  14.436  0.00  0.00    +0.149 HD
BRANCH   5  21
ATOM     21  C   UNL     1     -13.056  -4.487  13.453  0.00  0.00    +0.141 C 
BRANCH  21  23
ATOM      6  N   UNL     1     -11.809  -6.034  10.236  0.00  0.00    -0.263 NA
ATOM     23  C   UNL     1     -12.484  -4.612  12.071  0.00  0.00    -0.012 A 
ATOM     26  C   UNL     1     -12.100  -3.487  11.350  0.00  0.00    +0.008 A 
ATOM     27  C   UNL     1     -12.319  -5.851  11.474  0.00  0.00    +0.115 A 
ATOM     31  C   UNL     1     -11.571  -3.634  10.072  0.00  0.00    +0.020 A 
ATOM     32  C   UNL     1     -11.447  -4.917   9.566  0.00  0.00    +0.111 A 
ENDBRANCH  21  23
ENDBRANCH   5  21
ENDBRANCH  15  19
ENDBRANCH  10  15
TORSDOF 8
ENDMDL
MODEL 7
REMARK VINA RESULT:      -6.5     27.431     30.515
REMARK  Name = 38028541
REMARK  11 active torsions:
REMARK  status: ('A' for Active; 'I' for Inactive)
REMARK    1  A    between atoms: N_4  and  C_14
REMARK    2  A    between atoms: N_5  and  C_21
REMARK    3  A    between atoms: C_7  and  C_11
REMARK    4  A    between atoms: C_8  and  C_14
REMARK    5  A    between atoms: C_10  and  C_15
REMARK    6  A    between atoms: C_11  and  C_16
REMARK    7  A    between atoms: C_11  and  C_17
REMARK    8  A    between atoms: C_12  and  C_18
REMARK    9  A    between atoms: C_15  and  C_19
REMARK   10  A    between atoms: C_20  and  C_22
REMARK   11  A    between atoms: C_21  and  C_23
REMARK                            x       y       z     vdW  Elec       q    Type
REMARK                         _______ _______ _______ _____ _____    ______ ____
ROOT
ATOM      7  C   UNL     1      13.545   9.373  18.975  0.00  0.00    +0.000 C 
ATOM      8  C   UNL     1      12.878   8.000  19.235  0.00  0.00    +0.032 C 
ATOM      9  C   UNL     1      15.069   9.216  18.856  0.00  0.00    +0.012 C 
ATOM     10  C   UNL     1      15.692   8.604  20.123  0.00  0.00    +0.023 C 
ATOM     12  C   UNL     1      14.922   7.388  20.599  0.00  0.00    -0.073 C 
ATOM     13  C   UNL     1      13.670   7.128  20.182  0.00  0.00    -0.022 C 
ATOM     18  C   UNL     1      15.640   6.454  21.532  0.00  0.00    +0.039 C 
ENDROOT
BRANCH   7  11
ATOM     11  C   UNL     1      12.992  10.044  17.714  0.00  0.00    -0.013 C 
ATOM     16  C   UNL     1      12.951   9.051  16.557  0.00  0.00    +0.007 C 
ATOM     17  C   UNL     1      13.830  11.266  17.349  0.00  0.00    +0.007 C 
ENDBRANCH   7  11
BRANCH   8  14
ATOM     14  C   UNL     1      11.452   8.170  19.771  0.00  0.00    +0.112 C 
BRANCH  14   4
ATOM      3  O   UNL     1      11.233   8.377  22.625  0.00  0.00    -0.270 OA
ATOM      4  N   UNL     1      11.337   9.374  20.533  0.00  0.00    -0.311 N 
ATOM     20  C   UNL     1      11.235   9.385  21.924  0.00  0.00    +0.244 C 
ATOM     33  H   UNL     1      11.425  10.251  20.030  0.00  0.00    +0.149 HD
BRANCH  20  22
ATOM      1  F   UNL     1      11.077  14.237  21.647  0.00  0.00    -0.205 F 
ATOM     22  C   UNL     1      11.096  10.717  22.566  0.00  0.00    +0.039 A 
ATOM     24  C   UNL     1      11.153  11.875  21.790  0.00  0.00    +0.051 A 
ATOM     25  C   UNL     1      10.908  10.810  23.945  0.00  0.00    +0.013 A 
ATOM     28  C   UNL     1      11.022  13.126  22.392  0.00  0.00    +0.124 A 
ATOM     29  C   UNL     1      10.778  12.062  24.548  0.00  0.00    +0.004 A 
ATOM     30  C   UNL     1      10.835  13.219  23.772  0.00  0.00    +0.038 A 
ENDBRANCH  20  22
ENDBRANCH  14   4
ENDBRANCH   8  14
BRANCH  10  15
ATOM     15  C   UNL     1      15.814   9.647  21.239  0.00  0.00    +0.103 C 
BRANCH  15  19
ATOM      2  O   UNL     1      17.615  10.934  22.215  0.00  0.00    -0.276 OA
ATOM      5  N   UNL     1      18.100   8.960  21.090  0.00  0.00    -0.311 N 
ATOM     19  C   UNL     1      17.256   9.945  21.583  0.00  0.00    +0.214 C 
ATOM     34  H   UNL     1      17.708   8.180  20.570  0.00  0.00    +0.149 HD
BRANCH   5  21
ATOM     21  C   UNL     1      19.533   8.987  21.268  0.00  0.00    +0.141 C 
BRANCH  21  23
ATOM      6  N   UNL     1      20.348   6.303  23.803  0.00  0.00    -0.263 NA
ATOM     23  C   UNL     1      19.952   8.334  22.553  0.00  0.00    -0.012 A 
ATOM     26  C   UNL     1      20.319   9.094  23.657  0.00  0.00    +0.008 A 
ATOM     27  C   UNL     1      19.983   6.954  22.677  0.00  0.00    +0.115 A 
ATOM     31  C   UNL     1      20.701   8.460  24.835  0.00  0.00    +0.020 A 
ATOM     32  C   UNL     1      20.698   7.075  24.856  0.00  0.00    +0.111 A 
ENDBRANCH  21  23
ENDBRANCH   5  21
ENDBRANCH  15  19
ENDBRANCH  10  15
TORSDOF 8
ENDMDL
MODEL 8
REMARK VINA RESULT:      -6.3     24.180     26.786
REMARK  Name = 38028541
REMARK  11 active torsions:
REMARK  status: ('A' for Active; 'I' for Inactive)
REMARK    1  A    between atoms: N_4  and  C_14
REMARK    2  A    between atoms: N_5  and  C_21
REMARK    3  A    between atoms: C_7  and  C_11
REMARK    4  A    between atoms: C_8  and  C_14
REMARK    5  A    between atoms: C_10  and  C_15
REMARK    6  A    between atoms: C_11  and  C_16
REMARK    7  A    between atoms: C_11  and  C_17
REMARK    8  A    between atoms: C_12  and  C_18
REMARK    9  A    between atoms: C_15  and  C_19
REMARK   10  A    between atoms: C_20  and  C_22
REMARK   11  A    between atoms: C_21  and  C_23
REMARK                            x       y       z     vdW  Elec       q    Type
REMARK                         _______ _______ _______ _____ _____    ______ ____
ROOT
ATOM      7  C   UNL     1       9.500   8.278   5.105  0.00  0.00    +0.000 C 
ATOM      8  C   UNL     1       9.344   7.691   6.530  0.00  0.00    +0.032 C 
ATOM      9  C   UNL     1       8.892   7.325   4.063  0.00  0.00    +0.012 C 
ATOM     10  C   UNL     1       9.551   5.934   4.092  0.00  0.00    +0.023 C 
ATOM     12  C   UNL     1       9.676   5.399   5.505  0.00  0.00    -0.073 C 
ATOM     13  C   UNL     1       9.569   6.198   6.582  0.00  0.00    -0.022 C 
ATOM     18  C   UNL     1       9.885   3.918   5.653  0.00  0.00    +0.039 C 
ENDROOT
BRANCH   7  11
ATOM     11  C   UNL     1       8.852   9.660   4.985  0.00  0.00    -0.013 C 
ATOM     16  C   UNL     1       7.438   9.538   4.425  0.00  0.00    +0.007 C 
ATOM     17  C   UNL     1       9.704  10.574   4.109  0.00  0.00    +0.007 C 
ENDBRANCH   7  11
BRANCH   8  14
ATOM     14  C   UNL     1      10.289   8.384   7.519  0.00  0.00    +0.112 C 
BRANCH  14   4
ATOM      3  O   UNL     1      12.778   6.963   7.356  0.00  0.00    -0.270 OA
ATOM      4  N   UNL     1      11.480   8.822   6.862  0.00  0.00    -0.311 N 
ATOM     20  C   UNL     1      12.651   8.066   6.829  0.00  0.00    +0.244 C 
ATOM     33  H   UNL     1      11.423   9.682   6.324  0.00  0.00    +0.149 HD
BRANCH  20  22
ATOM      1  F   UNL     1      17.436   8.390   6.029  0.00  0.00    -0.205 F 
ATOM     22  C   UNL     1      13.811   8.672   6.127  0.00  0.00    +0.039 A 
ATOM     24  C   UNL     1      15.105   8.238   6.413  0.00  0.00    +0.051 A 
ATOM     25  C   UNL     1      13.606   9.677   5.181  0.00  0.00    +0.013 A 
ATOM     28  C   UNL     1      16.194   8.807   5.754  0.00  0.00    +0.124 A 
ATOM     29  C   UNL     1      14.695  10.246   4.522  0.00  0.00    +0.004 A 
ATOM     30  C   UNL     1      15.989   9.812   4.808  0.00  0.00    +0.038 A 
ENDBRANCH  20  22
ENDBRANCH  14   4
ENDBRANCH   8  14
BRANCH  10  15
ATOM     15  C   UNL     1      10.912   5.951   3.389  0.00  0.00    +0.103 C 
BRANCH  15  19
ATOM      2  O   UNL     1      10.161   4.434   1.659  0.00  0.00    -0.276 OA
ATOM      5  N   UNL     1      12.330   4.257   2.474  0.00  0.00    -0.311 N 
ATOM     19  C   UNL     1      11.059   4.810   2.408  0.00  0.00    +0.214 C 
ATOM     34  H   UNL     1      13.005   4.633   3.134  0.00  0.00    +0.149 HD
BRANCH   5  21
ATOM     21  C   UNL     1      12.753   3.148   1.650  0.00  0.00    +0.141 C 
BRANCH  21  23
ATOM      6  N   UNL     1      14.316   4.071  -1.666  0.00  0.00    -0.263 NA
ATOM     23  C   UNL     1      13.778   3.561   0.636  0.00  0.00    -0.012 A 
ATOM     26  C   UNL     1      15.094   3.810   1.006  0.00  0.00    +0.008 A 
ATOM     27  C   UNL     1      13.443   3.704  -0.702  0.00  0.00    +0.115 A 
ATOM     31  C   UNL     1      16.022   4.190   0.043  0.00  0.00    +0.020 A 
ATOM     32  C   UNL     1      15.587   4.304  -1.267  0.00  0.00    +0.111 A 
ENDBRANCH  21  23
ENDBRANCH   5  21
ENDBRANCH  15  19
ENDBRANCH  10  15
TORSDOF 8
ENDMDL
MODEL 9
REMARK VINA RESULT:      -6.2     27.886     30.688
REMARK  Name = 38028541
REMARK  11 active torsions:
REMARK  status: ('A' for Active; 'I' for Inactive)
REMARK    1  A    between atoms: N_4  and  C_14
REMARK    2  A    between atoms: N_5  and  C_21
REMARK    3  A    between atoms: C_7  and  C_11
REMARK    4  A    between atoms: C_8  and  C_14
REMARK    5  A    between atoms: C_10  and  C_15
REMARK    6  A    between atoms: C_11  and  C_16
REMARK    7  A    between atoms: C_11  and  C_17
REMARK    8  A    between atoms: C_12  and  C_18
REMARK    9  A    between atoms: C_15  and  C_19
REMARK   10  A    between atoms: C_20  and  C_22
REMARK   11  A    between atoms: C_21  and  C_23
REMARK                            x       y       z     vdW  Elec       q    Type
REMARK                         _______ _______ _______ _____ _____    ______ ____
ROOT
ATOM      7  C   UNL     1      19.300   8.514  21.324  0.00  0.00    +0.000 C 
ATOM      8  C   UNL     1      19.316   6.974  21.489  0.00  0.00    +0.032 C 
ATOM      9  C   UNL     1      18.028   9.108  21.949  0.00  0.00    +0.012 C 
ATOM     10  C   UNL     1      16.746   8.537  21.315  0.00  0.00    +0.023 C 
ATOM     12  C   UNL     1      16.801   7.026  21.198  0.00  0.00    -0.073 C 
ATOM     13  C   UNL     1      17.956   6.345  21.290  0.00  0.00    -0.022 C 
ATOM     18  C   UNL     1      15.490   6.313  21.015  0.00  0.00    +0.039 C 
ENDROOT
BRANCH   7  11
ATOM     11  C   UNL     1      20.538   9.166  21.948  0.00  0.00    -0.013 C 
ATOM     16  C   UNL     1      20.676   8.753  23.410  0.00  0.00    +0.007 C 
ATOM     17  C   UNL     1      20.463  10.684  21.818  0.00  0.00    +0.007 C 
ENDBRANCH   7  11
BRANCH   8  14
ATOM     14  C   UNL     1      20.323   6.326  20.532  0.00  0.00    +0.112 C 
BRANCH  14   4
ATOM      3  O   UNL     1      23.039   5.482  20.143  0.00  0.00    -0.270 OA
ATOM      4  N   UNL     1      20.967   5.211  21.151  0.00  0.00    -0.311 N 
ATOM     20  C   UNL     1      22.297   4.870  20.906  0.00  0.00    +0.244 C 
ATOM     33  H   UNL     1      20.444   4.713  21.866  0.00  0.00    +0.149 HD
BRANCH  20  22
ATOM      1  F   UNL     1      22.654   2.111  24.894  0.00  0.00    -0.205 F 
ATOM     22  C   UNL     1      22.810   3.667  21.610  0.00  0.00    +0.039 A 
ATOM     24  C   UNL     1      22.485   3.449  22.948  0.00  0.00    +0.051 A 
ATOM     25  C   UNL     1      23.618   2.754  20.931  0.00  0.00    +0.013 A 
ATOM     28  C   UNL     1      22.966   2.319  23.609  0.00  0.00    +0.124 A 
ATOM     29  C   UNL     1      24.101   1.624  21.593  0.00  0.00    +0.004 A 
ATOM     30  C   UNL     1      23.775   1.407  22.931  0.00  0.00    +0.038 A 
ENDBRANCH  20  22
ENDBRANCH  14   4
ENDBRANCH   8  14
BRANCH  10  15
ATOM     15  C   UNL     1      16.466   9.183  19.955  0.00  0.00    +0.103 C 
BRANCH  15  19
ATOM      2  O   UNL     1      14.751  10.860  20.267  0.00  0.00    -0.276 OA
ATOM      5  N   UNL     1      14.199   8.827  19.286  0.00  0.00    -0.311 N 
ATOM     19  C   UNL     1      15.064   9.742  19.868  0.00  0.00    +0.214 C 
ATOM     34  H   UNL     1      14.551   7.920  18.994  0.00  0.00    +0.149 HD
BRANCH   5  21
ATOM     21  C   UNL     1      12.794   9.092  19.078  0.00  0.00    +0.141 C 
BRANCH  21  23
ATOM      6  N   UNL     1      10.565   9.230  22.129  0.00  0.00    -0.263 NA
ATOM     23  C   UNL     1      11.959   8.645  20.242  0.00  0.00    -0.012 A 
ATOM     26  C   UNL     1      11.795   7.295  20.531  0.00  0.00    +0.008 A 
ATOM     27  C   UNL     1      11.328   9.564  21.065  0.00  0.00    +0.115 A 
ATOM     31  C   UNL     1      11.017   6.911  21.617  0.00  0.00    +0.020 A 
ATOM     32  C   UNL     1      10.429   7.908  22.378  0.00  0.00    +0.111 A 
ENDBRANCH  21  23
ENDBRANCH   5  21
ENDBRANCH  15  19
ENDBRANCH  10  15
TORSDOF 8
ENDMDL
MODEL 10
REMARK VINA RESULT:      -6.2     22.071     25.435
REMARK  Name = 38028541
REMARK  11 active torsions:
REMARK  status: ('A' for Active; 'I' for Inactive)
REMARK    1  A    between atoms: N_4  and  C_14
REMARK    2  A    between atoms: N_5  and  C_21
REMARK    3  A    between atoms: C_7  and  C_11
REMARK    4  A    between atoms: C_8  and  C_14
REMARK    5  A    between atoms: C_10  and  C_15
REMARK    6  A    between atoms: C_11  and  C_16
REMARK    7  A    between atoms: C_11  and  C_17
REMARK    8  A    between atoms: C_12  and  C_18
REMARK    9  A    between atoms: C_15  and  C_19
REMARK   10  A    between atoms: C_20  and  C_22
REMARK   11  A    between atoms: C_21  and  C_23
REMARK                            x       y       z     vdW  Elec       q    Type
REMARK                         _______ _______ _______ _____ _____    ______ ____
ROOT
ATOM      7  C   UNL     1      -8.554 -10.921  37.931  0.00  0.00    +0.000 C 
ATOM      8  C   UNL     1      -9.301  -9.572  38.080  0.00  0.00    +0.032 C 
ATOM      9  C   UNL     1      -8.888 -11.572  36.580  0.00  0.00    +0.012 C 
ATOM     10  C   UNL     1     -10.397 -11.829  36.415  0.00  0.00    +0.023 C 
ATOM     12  C   UNL     1     -11.221 -10.617  36.803  0.00  0.00    -0.073 C 
ATOM     13  C   UNL     1     -10.711  -9.614  37.538  0.00  0.00    -0.022 C 
ATOM     18  C   UNL     1     -12.634 -10.567  36.292  0.00  0.00    +0.039 C 
ENDROOT
BRANCH   7  11
ATOM     11  C   UNL     1      -7.038 -10.749  38.064  0.00  0.00    -0.013 C 
ATOM     16  C   UNL     1      -6.331 -11.285  36.823  0.00  0.00    +0.007 C 
ATOM     17  C   UNL     1      -6.531 -11.450  39.321  0.00  0.00    +0.007 C 
ENDBRANCH   7  11
BRANCH   8  14
ATOM     14  C   UNL     1      -9.331  -9.116  39.544  0.00  0.00    +0.112 C 
BRANCH  14   4
ATOM      3  O   UNL     1      -7.648  -6.795  39.408  0.00  0.00    -0.270 OA
ATOM      4  N   UNL     1      -9.748  -7.753  39.643  0.00  0.00    -0.311 N 
ATOM     20  C   UNL     1      -8.861  -6.680  39.565  0.00  0.00    +0.244 C 
ATOM     33  H   UNL     1     -10.748  -7.576  39.680  0.00  0.00    +0.149 HD
BRANCH  20  22
ATOM      1  F   UNL     1      -8.387  -1.845  39.776  0.00  0.00    -0.205 F 
ATOM     22  C   UNL     1      -9.449  -5.324  39.712  0.00  0.00    +0.039 A 
ATOM     24  C   UNL     1      -8.626  -4.199  39.674  0.00  0.00    +0.051 A 
ATOM     25  C   UNL     1     -10.825  -5.175  39.886  0.00  0.00    +0.013 A 
ATOM     28  C   UNL     1      -9.178  -2.925  39.812  0.00  0.00    +0.124 A 
ATOM     29  C   UNL     1     -11.377  -3.902  40.024  0.00  0.00    +0.004 A 
ATOM     30  C   UNL     1     -10.554  -2.777  39.987  0.00  0.00    +0.038 A 
ENDBRANCH  20  22
ENDBRANCH  14   4
ENDBRANCH   8  14
BRANCH  10  15
ATOM     15  C   UNL     1     -10.837 -13.067  37.202  0.00  0.00    +0.103 C 
BRANCH  15  19
ATOM      2  O   UNL     1     -11.953 -15.161  36.729  0.00  0.00    -0.276 OA
ATOM      5  N   UNL     1     -11.416 -13.730  34.979  0.00  0.00    -0.311 N 
ATOM     19  C   UNL     1     -11.467 -14.114  36.311  0.00  0.00    +0.214 C 
ATOM     34  H   UNL     1     -10.985 -12.844  34.730  0.00  0.00    +0.149 HD
BRANCH   5  21
ATOM     21  C   UNL     1     -11.943 -14.539  33.904  0.00  0.00    +0.141 C 
BRANCH  21  23
ATOM      6  N   UNL     1     -14.326 -13.620  31.117  0.00  0.00    -0.263 NA
ATOM     23  C   UNL     1     -13.022 -13.827  33.142  0.00  0.00    -0.012 A 
ATOM     26  C   UNL     1     -13.707 -12.755  33.702  0.00  0.00    +0.008 A 
ATOM     27  C   UNL     1     -13.367 -14.217  31.858  0.00  0.00    +0.115 A 
ATOM     31  C   UNL     1     -14.702 -12.115  32.971  0.00  0.00    +0.020 A 
ATOM     32  C   UNL     1     -14.970 -12.581  31.695  0.00  0.00    +0.111 A 
ENDBRANCH  21  23
ENDBRANCH   5  21
ENDBRANCH  15  19
ENDBRANCH  10  15
TORSDOF 8
ENDMDL
