REMARK  Name = 38030222
REMARK  11 active torsions:
REMARK  status: ('A' for Active; 'I' for Inactive)
REMARK    1  A    between atoms: O_1  and  C_13
REMARK    2  A    between atoms: N_3  and  C_18
REMARK    3  A    between atoms: N_3  and  C_19
REMARK    4  A    between atoms: C_5  and  C_9
REMARK    5  A    between atoms: C_7  and  C_13
REMARK    6  A    between atoms: C_8  and  C_12
REMARK    7  A    between atoms: C_9  and  C_14
REMARK    8  A    between atoms: C_9  and  C_15
REMARK    9  A    between atoms: C_10  and  C_16
REMARK   10  A    between atoms: C_12  and  C_17
REMARK   11  A    between atoms: C_18  and  C_20
REMARK                            x       y       z     vdW  Elec       q    Type
REMARK                         _______ _______ _______ _____ _____    ______ ____
ROOT
ATOM      5  C   UNL     1       2.364  -1.075   0.054  0.00  0.00    +0.001 C 
ATOM      6  C   UNL     1       1.724  -0.312  -1.115  0.00  0.00    +0.012 C 
ATOM      7  C   UNL     1       3.805  -0.566   0.308  0.00  0.00    +0.040 C 
ATOM      8  C   UNL     1       1.668   1.206  -0.860  0.00  0.00    +0.023 C 
ATOM     10  C   UNL     1       2.990   1.740  -0.346  0.00  0.00    -0.073 C 
ATOM     11  C   UNL     1       3.938   0.931   0.160  0.00  0.00    -0.022 C 
ATOM     16  C   UNL     1       3.215   3.221  -0.469  0.00  0.00    +0.039 C 
ENDROOT
BRANCH   5   9
ATOM      9  C   UNL     1       2.334  -2.580  -0.230  0.00  0.00    -0.013 C 
ATOM     14  C   UNL     1       0.965  -3.159   0.114  0.00  0.00    +0.007 C 
ATOM     15  C   UNL     1       2.686  -2.853  -1.689  0.00  0.00    +0.007 C 
ENDBRANCH   5   9
BRANCH   8  12
ATOM     12  C   UNL     1       0.523   1.563   0.096  0.00  0.00    +0.103 C 
BRANCH  12  17
ATOM      2  O   UNL     1      -0.934   1.147  -1.761  0.00  0.00    -0.276 OA
ATOM      3  N   UNL     1      -1.933   1.788   0.232  0.00  0.00    -0.300 N 
ATOM     17  C   UNL     1      -0.835   1.476  -0.576  0.00  0.00    +0.216 C 
ATOM     19  C   UNL     1      -1.790   2.175   1.630  0.00  0.00    +0.132 C 
BRANCH   3  18
ATOM     18  C   UNL     1      -3.307   1.752  -0.266  0.00  0.00    +0.144 C 
BRANCH  18  20
ATOM      4  N   UNL     1      -5.506  -0.934   1.234  0.00  0.00    -0.263 NA
ATOM     20  C   UNL     1      -3.953   0.416  -0.034  0.00  0.00    -0.012 A 
ATOM     21  C   UNL     1      -3.628  -0.683  -0.821  0.00  0.00    +0.008 A 
ATOM     22  C   UNL     1      -4.889   0.240   0.972  0.00  0.00    +0.115 A 
ATOM     23  C   UNL     1      -4.242  -1.908  -0.582  0.00  0.00    +0.020 A 
ATOM     24  C   UNL     1      -5.165  -1.980   0.449  0.00  0.00    +0.111 A 
ENDBRANCH  18  20
ENDBRANCH   3  18
ENDBRANCH  12  17
ENDBRANCH   8  12
BRANCH   7  13
ATOM     13  C   UNL     1       4.305  -0.989   1.694  0.00  0.00    +0.163 C 
BRANCH  13   1
ATOM      1  O   UNL     1       5.665  -0.618   1.807  0.00  0.00    -0.394 OA
ATOM     25  H   UNL     1       5.963  -0.884   2.693  0.00  0.00    +0.209 HD
ENDBRANCH  13   1
ENDBRANCH   7  13
TORSDOF 7
