MODEL 1
REMARK VINA RESULT:      -8.3      0.000      0.000
REMARK  Name = 40777985
REMARK  10 active torsions:
REMARK  status: ('A' for Active; 'I' for Inactive)
REMARK    1  A    between atoms: O_2  and  C_11
REMARK    2  A    between atoms: O_3  and  C_12
REMARK    3  A    between atoms: N_7  and  C_21
REMARK    4  A    between atoms: N_8  and  C_15
REMARK    5  A    between atoms: N_9  and  C_25
REMARK    6  A    between atoms: C_10  and  C_14
REMARK    7  A    between atoms: C_13  and  C_15
REMARK    8  A    between atoms: C_14  and  C_16
REMARK    9  A    between atoms: C_25  and  C_29
REMARK   10  A    between atoms: C_25  and  C_30
REMARK                            x       y       z     vdW  Elec       q    Type
REMARK                         _______ _______ _______ _____ _____    ______ ____
ROOT
ATOM      1  O   UNL     1      11.121   8.995  20.191  0.00  0.00    -0.366 OA
ATOM     10  C   UNL     1      11.678   7.687  19.973  0.00  0.00    +0.159 C 
ATOM     11  C   UNL     1      12.064   7.169  21.348  0.00  0.00    +0.175 C 
ATOM     12  C   UNL     1      10.960   7.746  22.210  0.00  0.00    +0.176 C 
ATOM     13  C   UNL     1      10.755   9.122  21.585  0.00  0.00    +0.167 C 
ENDROOT
BRANCH  11   2
ATOM      2  O   UNL     1      12.125   5.759  21.385  0.00  0.00    -0.387 OA
ATOM     31  H   UNL     1      12.611   5.469  20.595  0.00  0.00    +0.210 HD
ENDBRANCH  11   2
BRANCH  12   3
ATOM      3  O   UNL     1       9.757   6.998  22.039  0.00  0.00    -0.387 OA
ATOM     32  H   UNL     1       9.056   7.627  21.796  0.00  0.00    +0.210 HD
ENDBRANCH  12   3
BRANCH  10  14
ATOM     14  C   UNL     1      12.853   7.785  19.015  0.00  0.00    +0.130 C 
BRANCH  14  16
ATOM      4  O   UNL     1      13.670   9.857  19.839  0.00  0.00    -0.276 OA
ATOM      6  N   UNL     1      15.160   8.073  19.840  0.00  0.00    -0.298 N 
ATOM      7  N   UNL     1      17.695   6.882  20.571  0.00  0.00    -0.327 N 
ATOM     16  C   UNL     1      13.923   8.673  19.603  0.00  0.00    +0.218 C 
ATOM     17  C   UNL     1      16.249   8.867  20.402  0.00  0.00    +0.126 C 
ATOM     18  C   UNL     1      15.455   6.664  19.568  0.00  0.00    +0.126 C 
ATOM     19  C   UNL     1      17.158   8.033  21.302  0.00  0.00    +0.124 C 
ATOM     20  C   UNL     1      16.951   6.392  19.408  0.00  0.00    +0.124 C 
BRANCH   7  21
ATOM     21  C   UNL     1      18.898   6.295  20.954  0.00  0.00    +0.030 A 
ATOM     23  C   UNL     1      19.516   6.682  22.142  0.00  0.00    +0.023 A 
ATOM     24  C   UNL     1      19.485   5.318  20.148  0.00  0.00    +0.023 A 
ATOM     26  C   UNL     1      20.722   6.093  22.525  0.00  0.00    +0.002 A 
ATOM     27  C   UNL     1      20.690   4.730  20.532  0.00  0.00    +0.002 A 
ATOM     28  C   UNL     1      21.308   5.117  21.720  0.00  0.00    +0.000 A 
ENDBRANCH   7  21
ENDBRANCH  14  16
ENDBRANCH  10  14
BRANCH  13  15
ATOM     15  C   UNL     1      11.641  10.194  22.202  0.00  0.00    +0.140 C 
BRANCH  15   8
ATOM      5  O   UNL     1      11.400  12.934  21.328  0.00  0.00    -0.253 OA
ATOM      8  N   UNL     1      10.856  11.228  22.809  0.00  0.00    -0.297 N 
ATOM      9  N   UNL     1       9.957  13.336  23.100  0.00  0.00    -0.297 N 
ATOM     22  C   UNL     1      10.793  12.538  22.322  0.00  0.00    +0.300 C 
ATOM     33  H   UNL     1      10.310  10.995  23.632  0.00  0.00    +0.150 HD
ATOM     34  H   UNL     1       9.440  12.898  23.857  0.00  0.00    +0.150 HD
BRANCH   9  25
ATOM     25  C   UNL     1       9.717  14.731  22.813  0.00  0.00    +0.068 C 
ATOM     29  C   UNL     1       9.941  15.575  24.062  0.00  0.00    +0.027 C 
ATOM     30  C   UNL     1       8.312  14.929  22.258  0.00  0.00    +0.027 C 
ENDBRANCH   9  25
ENDBRANCH  15   8
ENDBRANCH  13  15
TORSDOF 8
ENDMDL
MODEL 2
REMARK VINA RESULT:      -7.4      3.762      7.550
REMARK  Name = 40777985
REMARK  10 active torsions:
REMARK  status: ('A' for Active; 'I' for Inactive)
REMARK    1  A    between atoms: O_2  and  C_11
REMARK    2  A    between atoms: O_3  and  C_12
REMARK    3  A    between atoms: N_7  and  C_21
REMARK    4  A    between atoms: N_8  and  C_15
REMARK    5  A    between atoms: N_9  and  C_25
REMARK    6  A    between atoms: C_10  and  C_14
REMARK    7  A    between atoms: C_13  and  C_15
REMARK    8  A    between atoms: C_14  and  C_16
REMARK    9  A    between atoms: C_25  and  C_29
REMARK   10  A    between atoms: C_25  and  C_30
REMARK                            x       y       z     vdW  Elec       q    Type
REMARK                         _______ _______ _______ _____ _____    ______ ____
ROOT
ATOM      1  O   UNL     1      13.938   8.295  17.927  0.00  0.00    -0.366 OA
ATOM     10  C   UNL     1      12.743   7.504  17.797  0.00  0.00    +0.159 C 
ATOM     11  C   UNL     1      11.658   8.468  17.348  0.00  0.00    +0.175 C 
ATOM     12  C   UNL     1      12.438   9.407  16.452  0.00  0.00    +0.176 C 
ATOM     13  C   UNL     1      13.762   9.532  17.198  0.00  0.00    +0.167 C 
ENDROOT
BRANCH  11   2
ATOM      2  O   UNL     1      10.604   7.806  16.683  0.00  0.00    -0.387 OA
ATOM     31  H   UNL     1      10.479   6.947  17.120  0.00  0.00    +0.210 HD
ENDBRANCH  11   2
BRANCH  12   3
ATOM      3  O   UNL     1      12.697   8.788  15.192  0.00  0.00    -0.387 OA
ATOM     32  H   UNL     1      12.746   7.828  15.344  0.00  0.00    +0.210 HD
ENDBRANCH  12   3
BRANCH  10  14
ATOM     14  C   UNL     1      12.435   6.824  19.119  0.00  0.00    +0.130 C 
BRANCH  14  16
ATOM      4  O   UNL     1      14.472   6.959  20.332  0.00  0.00    -0.276 OA
ATOM      6  N   UNL     1      12.756   8.368  21.016  0.00  0.00    -0.298 N 
ATOM      7  N   UNL     1      11.758  10.565  22.616  0.00  0.00    -0.327 N 
ATOM     16  C   UNL     1      13.321   7.384  20.205  0.00  0.00    +0.218 C 
ATOM     17  C   UNL     1      13.547   8.956  22.093  0.00  0.00    +0.126 C 
ATOM     18  C   UNL     1      11.391   8.878  20.857  0.00  0.00    +0.126 C 
ATOM     19  C   UNL     1      13.189  10.422  22.331  0.00  0.00    +0.124 C 
ATOM     20  C   UNL     1      10.848   9.523  22.133  0.00  0.00    +0.124 C 
BRANCH   7  21
ATOM     21  C   UNL     1      11.286  11.645  23.358  0.00  0.00    +0.030 A 
ATOM     23  C   UNL     1      10.834  12.792  22.707  0.00  0.00    +0.023 A 
ATOM     24  C   UNL     1      11.265  11.578  24.751  0.00  0.00    +0.023 A 
ATOM     26  C   UNL     1      10.360  13.874  23.451  0.00  0.00    +0.002 A 
ATOM     27  C   UNL     1      10.791  12.660  25.494  0.00  0.00    +0.002 A 
ATOM     28  C   UNL     1      10.339  13.808  24.844  0.00  0.00    +0.000 A 
ENDBRANCH   7  21
ENDBRANCH  14  16
ENDBRANCH  10  14
BRANCH  13  15
ATOM     15  C   UNL     1      13.772  10.672  18.207  0.00  0.00    +0.140 C 
BRANCH  15   8
ATOM      5  O   UNL     1      15.611  12.705  19.109  0.00  0.00    -0.253 OA
ATOM      8  N   UNL     1      14.835  10.515  19.155  0.00  0.00    -0.297 N 
ATOM      9  N   UNL     1      16.628  11.129  20.474  0.00  0.00    -0.297 N 
ATOM     22  C   UNL     1      15.686  11.555  19.541  0.00  0.00    +0.300 C 
ATOM     33  H   UNL     1      14.971   9.602  19.576  0.00  0.00    +0.150 HD
ATOM     34  H   UNL     1      16.562  10.179  20.826  0.00  0.00    +0.150 HD
BRANCH   9  25
ATOM     25  C   UNL     1      17.627  12.009  21.036  0.00  0.00    +0.068 C 
ATOM     29  C   UNL     1      18.987  11.736  20.406  0.00  0.00    +0.027 C 
ATOM     30  C   UNL     1      17.680  11.858  22.551  0.00  0.00    +0.027 C 
ENDBRANCH   9  25
ENDBRANCH  15   8
ENDBRANCH  13  15
TORSDOF 8
ENDMDL
MODEL 3
REMARK VINA RESULT:      -7.3     28.358     31.548
REMARK  Name = 40777985
REMARK  10 active torsions:
REMARK  status: ('A' for Active; 'I' for Inactive)
REMARK    1  A    between atoms: O_2  and  C_11
REMARK    2  A    between atoms: O_3  and  C_12
REMARK    3  A    between atoms: N_7  and  C_21
REMARK    4  A    between atoms: N_8  and  C_15
REMARK    5  A    between atoms: N_9  and  C_25
REMARK    6  A    between atoms: C_10  and  C_14
REMARK    7  A    between atoms: C_13  and  C_15
REMARK    8  A    between atoms: C_14  and  C_16
REMARK    9  A    between atoms: C_25  and  C_29
REMARK   10  A    between atoms: C_25  and  C_30
REMARK                            x       y       z     vdW  Elec       q    Type
REMARK                         _______ _______ _______ _____ _____    ______ ____
ROOT
ATOM      1  O   UNL     1     -16.088   1.886  26.659  0.00  0.00    -0.366 OA
ATOM     10  C   UNL     1     -16.871   0.870  27.310  0.00  0.00    +0.159 C 
ATOM     11  C   UNL     1     -18.156   0.763  26.506  0.00  0.00    +0.175 C 
ATOM     12  C   UNL     1     -17.654   1.008  25.098  0.00  0.00    +0.176 C 
ATOM     13  C   UNL     1     -16.598   2.085  25.320  0.00  0.00    +0.167 C 
ENDROOT
BRANCH  11   2
ATOM      2  O   UNL     1     -18.779  -0.494  26.668  0.00  0.00    -0.387 OA
ATOM     31  H   UNL     1     -19.441  -0.582  25.962  0.00  0.00    +0.210 HD
ENDBRANCH  11   2
BRANCH  12   3
ATOM      3  O   UNL     1     -17.000  -0.157  24.596  0.00  0.00    -0.387 OA
ATOM     32  H   UNL     1     -17.389  -0.357  23.727  0.00  0.00    +0.210 HD
ENDBRANCH  12   3
BRANCH  10  14
ATOM     14  C   UNL     1     -17.099   1.252  28.762  0.00  0.00    +0.130 C 
BRANCH  14  16
ATOM      4  O   UNL     1     -15.154   0.021  29.347  0.00  0.00    -0.276 OA
ATOM      6  N   UNL     1     -15.522   2.002  30.504  0.00  0.00    -0.298 N 
ATOM      7  N   UNL     1     -14.663   4.067  32.344  0.00  0.00    -0.327 N 
ATOM     16  C   UNL     1     -15.835   1.028  29.557  0.00  0.00    +0.218 C 
ATOM     17  C   UNL     1     -14.318   1.855  31.318  0.00  0.00    +0.126 C 
ATOM     18  C   UNL     1     -16.328   3.202  30.745  0.00  0.00    +0.126 C 
ATOM     19  C   UNL     1     -13.693   3.205  31.662  0.00  0.00    +0.124 C 
ATOM     20  C   UNL     1     -16.090   3.808  32.128  0.00  0.00    +0.124 C 
BRANCH   7  21
ATOM     21  C   UNL     1     -14.237   5.079  33.199  0.00  0.00    +0.030 A 
ATOM     23  C   UNL     1     -14.199   4.859  34.576  0.00  0.00    +0.023 A 
ATOM     24  C   UNL     1     -13.849   6.314  32.678  0.00  0.00    +0.023 A 
ATOM     26  C   UNL     1     -13.772   5.874  35.432  0.00  0.00    +0.002 A 
ATOM     27  C   UNL     1     -13.422   7.329  33.536  0.00  0.00    +0.002 A 
ATOM     28  C   UNL     1     -13.383   7.109  34.912  0.00  0.00    +0.000 A 
ENDBRANCH   7  21
ENDBRANCH  14  16
ENDBRANCH  10  14
BRANCH  13  15
ATOM     15  C   UNL     1     -17.161   3.497  25.242  0.00  0.00    +0.140 C 
BRANCH  15   8
ATOM      5  O   UNL     1     -16.276   4.075  22.557  0.00  0.00    -0.253 OA
ATOM      8  N   UNL     1     -16.152   4.436  24.850  0.00  0.00    -0.297 N 
ATOM      9  N   UNL     1     -14.778   5.622  23.422  0.00  0.00    -0.297 N 
ATOM     22  C   UNL     1     -15.779   4.659  23.520  0.00  0.00    +0.300 C 
ATOM     33  H   UNL     1     -15.690   4.974  25.575  0.00  0.00    +0.150 HD
ATOM     34  H   UNL     1     -14.486   6.102  24.268  0.00  0.00    +0.150 HD
BRANCH   9  25
ATOM     25  C   UNL     1     -14.213   6.039  22.159  0.00  0.00    +0.068 C 
ATOM     29  C   UNL     1     -12.805   5.480  21.999  0.00  0.00    +0.027 C 
ATOM     30  C   UNL     1     -14.221   7.558  22.045  0.00  0.00    +0.027 C 
ENDBRANCH   9  25
ENDBRANCH  15   8
ENDBRANCH  13  15
TORSDOF 8
ENDMDL
MODEL 4
REMARK VINA RESULT:      -7.2     26.092     29.935
REMARK  Name = 40777985
REMARK  10 active torsions:
REMARK  status: ('A' for Active; 'I' for Inactive)
REMARK    1  A    between atoms: O_2  and  C_11
REMARK    2  A    between atoms: O_3  and  C_12
REMARK    3  A    between atoms: N_7  and  C_21
REMARK    4  A    between atoms: N_8  and  C_15
REMARK    5  A    between atoms: N_9  and  C_25
REMARK    6  A    between atoms: C_10  and  C_14
REMARK    7  A    between atoms: C_13  and  C_15
REMARK    8  A    between atoms: C_14  and  C_16
REMARK    9  A    between atoms: C_25  and  C_29
REMARK   10  A    between atoms: C_25  and  C_30
REMARK                            x       y       z     vdW  Elec       q    Type
REMARK                         _______ _______ _______ _____ _____    ______ ____
ROOT
ATOM      1  O   UNL     1     -17.864   4.470  25.093  0.00  0.00    -0.366 OA
ATOM     10  C   UNL     1     -17.066   4.607  23.904  0.00  0.00    +0.159 C 
ATOM     11  C   UNL     1     -15.689   4.078  24.270  0.00  0.00    +0.175 C 
ATOM     12  C   UNL     1     -16.040   2.948  25.215  0.00  0.00    +0.176 C 
ATOM     13  C   UNL     1     -17.220   3.531  25.985  0.00  0.00    +0.167 C 
ENDROOT
BRANCH  11   2
ATOM      2  O   UNL     1     -14.966   3.655  23.134  0.00  0.00    -0.387 OA
ATOM     31  H   UNL     1     -14.122   3.287  23.448  0.00  0.00    +0.210 HD
ENDBRANCH  11   2
BRANCH  12   3
ATOM      3  O   UNL     1     -16.507   1.816  24.481  0.00  0.00    -0.387 OA
ATOM     32  H   UNL     1     -17.457   1.721  24.666  0.00  0.00    +0.210 HD
ENDBRANCH  12   3
BRANCH  10  14
ATOM     14  C   UNL     1     -17.054   6.059  23.461  0.00  0.00    +0.130 C 
BRANCH  14  16
ATOM      4  O   UNL     1     -18.035   5.835  21.310  0.00  0.00    -0.276 OA
ATOM      6  N   UNL     1     -15.826   6.553  21.379  0.00  0.00    -0.298 N 
ATOM      7  N   UNL     1     -13.456   7.609  20.093  0.00  0.00    -0.327 N 
ATOM     16  C   UNL     1     -17.027   6.137  21.954  0.00  0.00    +0.218 C 
ATOM     17  C   UNL     1     -15.717   6.649  19.926  0.00  0.00    +0.126 C 
ATOM     18  C   UNL     1     -14.633   6.920  22.146  0.00  0.00    +0.126 C 
ATOM     19  C   UNL     1     -14.784   7.779  19.496  0.00  0.00    +0.124 C 
ATOM     20  C   UNL     1     -13.347   6.823  21.325  0.00  0.00    +0.124 C 
BRANCH   7  21
ATOM     21  C   UNL     1     -12.328   8.151  19.483  0.00  0.00    +0.030 A 
ATOM     23  C   UNL     1     -11.591   9.140  20.135  0.00  0.00    +0.023 A 
ATOM     24  C   UNL     1     -11.936   7.705  18.221  0.00  0.00    +0.023 A 
ATOM     26  C   UNL     1     -10.460   9.683  19.524  0.00  0.00    +0.002 A 
ATOM     27  C   UNL     1     -10.805   8.249  17.611  0.00  0.00    +0.002 A 
ATOM     28  C   UNL     1     -10.067   9.237  18.262  0.00  0.00    +0.000 A 
ENDBRANCH   7  21
ENDBRANCH  14  16
ENDBRANCH  10  14
BRANCH  13  15
ATOM     15  C   UNL     1     -16.798   4.291  27.234  0.00  0.00    +0.140 C 
BRANCH  15   8
ATOM      5  O   UNL     1     -16.832   2.595  29.569  0.00  0.00    -0.253 OA
ATOM      8  N   UNL     1     -15.672   3.668  27.865  0.00  0.00    -0.297 N 
ATOM      9  N   UNL     1     -14.528   2.381  29.403  0.00  0.00    -0.297 N 
ATOM     22  C   UNL     1     -15.773   2.856  28.999  0.00  0.00    +0.300 C 
ATOM     33  H   UNL     1     -14.754   3.816  27.461  0.00  0.00    +0.150 HD
ATOM     34  H   UNL     1     -13.721   2.590  28.824  0.00  0.00    +0.150 HD
BRANCH   9  25
ATOM     25  C   UNL     1     -14.353   1.520  30.550  0.00  0.00    +0.068 C 
ATOM     29  C   UNL     1     -13.555   2.235  31.633  0.00  0.00    +0.027 C 
ATOM     30  C   UNL     1     -13.682   0.214  30.141  0.00  0.00    +0.027 C 
ENDBRANCH   9  25
ENDBRANCH  15   8
ENDBRANCH  13  15
TORSDOF 8
ENDMDL
MODEL 5
REMARK VINA RESULT:      -7.1     26.237     29.587
REMARK  Name = 40777985
REMARK  10 active torsions:
REMARK  status: ('A' for Active; 'I' for Inactive)
REMARK    1  A    between atoms: O_2  and  C_11
REMARK    2  A    between atoms: O_3  and  C_12
REMARK    3  A    between atoms: N_7  and  C_21
REMARK    4  A    between atoms: N_8  and  C_15
REMARK    5  A    between atoms: N_9  and  C_25
REMARK    6  A    between atoms: C_10  and  C_14
REMARK    7  A    between atoms: C_13  and  C_15
REMARK    8  A    between atoms: C_14  and  C_16
REMARK    9  A    between atoms: C_25  and  C_29
REMARK   10  A    between atoms: C_25  and  C_30
REMARK                            x       y       z     vdW  Elec       q    Type
REMARK                         _______ _______ _______ _____ _____    ______ ____
ROOT
ATOM      1  O   UNL     1      -3.639 -10.363  13.775  0.00  0.00    -0.366 OA
ATOM     10  C   UNL     1      -3.686 -10.758  15.157  0.00  0.00    +0.159 C 
ATOM     11  C   UNL     1      -2.319 -11.344  15.464  0.00  0.00    +0.175 C 
ATOM     12  C   UNL     1      -1.417 -10.470  14.618  0.00  0.00    +0.176 C 
ATOM     13  C   UNL     1      -2.256 -10.271  13.360  0.00  0.00    +0.167 C 
ENDROOT
BRANCH  11   2
ATOM      2  O   UNL     1      -2.017 -11.291  16.842  0.00  0.00    -0.387 OA
ATOM     31  H   UNL     1      -2.759 -10.845  17.285  0.00  0.00    +0.210 HD
ENDBRANCH  11   2
BRANCH  12   3
ATOM      3  O   UNL     1      -1.239  -9.196  15.237  0.00  0.00    -0.387 OA
ATOM     32  H   UNL     1      -0.649  -8.675  14.666  0.00  0.00    +0.210 HD
ENDBRANCH  12   3
BRANCH  10  14
ATOM     14  C   UNL     1      -4.824 -11.741  15.369  0.00  0.00    +0.130 C 
BRANCH  14  16
ATOM      4  O   UNL     1      -5.119 -11.742  17.725  0.00  0.00    -0.276 OA
ATOM      6  N   UNL     1      -6.767 -10.691  16.469  0.00  0.00    -0.298 N 
ATOM      7  N   UNL     1      -9.142  -9.047  16.261  0.00  0.00    -0.327 N 
ATOM     16  C   UNL     1      -5.574 -11.395  16.633  0.00  0.00    +0.218 C 
ATOM     17  C   UNL     1      -7.554 -10.325  17.643  0.00  0.00    +0.126 C 
ATOM     18  C   UNL     1      -7.301 -10.272  15.171  0.00  0.00    +0.126 C 
ATOM     19  C   UNL     1      -8.285  -8.998  17.449  0.00  0.00    +0.124 C 
ATOM     20  C   UNL     1      -8.807 -10.009  15.207  0.00  0.00    +0.124 C 
BRANCH   7  21
ATOM     21  C   UNL     1     -10.261  -8.227  16.156  0.00  0.00    +0.030 A 
ATOM     23  C   UNL     1     -10.114  -6.890  15.786  0.00  0.00    +0.023 A 
ATOM     24  C   UNL     1     -11.530  -8.742  16.422  0.00  0.00    +0.023 A 
ATOM     26  C   UNL     1     -11.237  -6.068  15.682  0.00  0.00    +0.002 A 
ATOM     27  C   UNL     1     -12.652  -7.919  16.317  0.00  0.00    +0.002 A 
ATOM     28  C   UNL     1     -12.505  -6.583  15.947  0.00  0.00    +0.000 A 
ENDBRANCH   7  21
ENDBRANCH  14  16
ENDBRANCH  10  14
BRANCH  13  15
ATOM     15  C   UNL     1      -2.015 -11.342  12.307  0.00  0.00    +0.140 C 
BRANCH  15   8
ATOM      5  O   UNL     1      -2.590  -9.284  10.367  0.00  0.00    -0.253 OA
ATOM      8  N   UNL     1      -3.059 -11.348  11.326  0.00  0.00    -0.297 N 
ATOM      9  N   UNL     1      -4.352 -10.571   9.577  0.00  0.00    -0.297 N 
ATOM     22  C   UNL     1      -3.273 -10.307  10.417  0.00  0.00    +0.300 C 
ATOM     33  H   UNL     1      -3.671 -12.156  11.282  0.00  0.00    +0.150 HD
ATOM     34  H   UNL     1      -4.806 -11.477   9.646  0.00  0.00    +0.150 HD
BRANCH   9  25
ATOM     25  C   UNL     1      -4.784  -9.656   8.547  0.00  0.00    +0.068 C 
ATOM     29  C   UNL     1      -5.912  -8.770   9.064  0.00  0.00    +0.027 C 
ATOM     30  C   UNL     1      -5.210 -10.418   7.298  0.00  0.00    +0.027 C 
ENDBRANCH   9  25
ENDBRANCH  15   8
ENDBRANCH  13  15
TORSDOF 8
ENDMDL
MODEL 6
REMARK VINA RESULT:      -7.1     27.691     30.459
REMARK  Name = 40777985
REMARK  10 active torsions:
REMARK  status: ('A' for Active; 'I' for Inactive)
REMARK    1  A    between atoms: O_2  and  C_11
REMARK    2  A    between atoms: O_3  and  C_12
REMARK    3  A    between atoms: N_7  and  C_21
REMARK    4  A    between atoms: N_8  and  C_15
REMARK    5  A    between atoms: N_9  and  C_25
REMARK    6  A    between atoms: C_10  and  C_14
REMARK    7  A    between atoms: C_13  and  C_15
REMARK    8  A    between atoms: C_14  and  C_16
REMARK    9  A    between atoms: C_25  and  C_29
REMARK   10  A    between atoms: C_25  and  C_30
REMARK                            x       y       z     vdW  Elec       q    Type
REMARK                         _______ _______ _______ _____ _____    ______ ____
ROOT
ATOM      1  O   UNL     1      -4.977  -9.834  16.657  0.00  0.00    -0.366 OA
ATOM     10  C   UNL     1      -4.018 -10.874  16.917  0.00  0.00    +0.159 C 
ATOM     11  C   UNL     1      -4.189 -11.881  15.793  0.00  0.00    +0.175 C 
ATOM     12  C   UNL     1      -4.515 -10.977  14.623  0.00  0.00    +0.176 C 
ATOM     13  C   UNL     1      -5.397  -9.917  15.276  0.00  0.00    +0.167 C 
ENDROOT
BRANCH  11   2
ATOM      2  O   UNL     1      -3.026 -12.656  15.594  0.00  0.00    -0.387 OA
ATOM     31  H   UNL     1      -2.269 -12.124  15.892  0.00  0.00    +0.210 HD
ENDBRANCH  11   2
BRANCH  12   3
ATOM      3  O   UNL     1      -3.332 -10.336  14.147  0.00  0.00    -0.387 OA
ATOM     32  H   UNL     1      -3.001 -10.856  13.395  0.00  0.00    +0.210 HD
ENDBRANCH  12   3
BRANCH  10  14
ATOM     14  C   UNL     1      -4.264 -11.463  18.295  0.00  0.00    +0.130 C 
BRANCH  14  16
ATOM      4  O   UNL     1      -4.940 -13.689  17.819  0.00  0.00    -0.276 OA
ATOM      6  N   UNL     1      -6.589 -12.239  18.577  0.00  0.00    -0.298 N 
ATOM      7  N   UNL     1      -9.275 -11.719  19.525  0.00  0.00    -0.327 N 
ATOM     16  C   UNL     1      -5.286 -12.571  18.207  0.00  0.00    +0.218 C 
ATOM     17  C   UNL     1      -7.637 -13.254  18.514  0.00  0.00    +0.126 C 
ATOM     18  C   UNL     1      -6.996 -10.912  19.047  0.00  0.00    +0.126 C 
ATOM     19  C   UNL     1      -8.687 -13.059  19.606  0.00  0.00    +0.124 C 
ATOM     20  C   UNL     1      -8.495 -10.659  18.882  0.00  0.00    +0.124 C 
BRANCH   7  21
ATOM     21  C   UNL     1     -10.554 -11.473  20.017  0.00  0.00    +0.030 A 
ATOM     23  C   UNL     1     -11.329 -12.526  20.502  0.00  0.00    +0.023 A 
ATOM     24  C   UNL     1     -11.060 -10.173  20.024  0.00  0.00    +0.023 A 
ATOM     26  C   UNL     1     -12.611 -12.279  20.994  0.00  0.00    +0.002 A 
ATOM     27  C   UNL     1     -12.342  -9.926  20.517  0.00  0.00    +0.002 A 
ATOM     28  C   UNL     1     -13.117 -10.979  21.001  0.00  0.00    +0.000 A 
ENDBRANCH   7  21
ENDBRANCH  14  16
ENDBRANCH  10  14
BRANCH  13  15
ATOM     15  C   UNL     1      -6.875 -10.280  15.260  0.00  0.00    +0.140 C 
BRANCH  15   8
ATOM      5  O   UNL     1      -9.678  -9.849  14.726  0.00  0.00    -0.253 OA
ATOM      8  N   UNL     1      -7.681  -9.185  15.713  0.00  0.00    -0.297 N 
ATOM      9  N   UNL     1      -9.579  -7.896  15.975  0.00  0.00    -0.297 N 
ATOM     22  C   UNL     1      -9.040  -9.048  15.409  0.00  0.00    +0.300 C 
ATOM     33  H   UNL     1      -7.245  -8.476  16.292  0.00  0.00    +0.150 HD
ATOM     34  H   UNL     1      -8.990  -7.337  16.585  0.00  0.00    +0.150 HD
BRANCH   9  25
ATOM     25  C   UNL     1     -10.964  -7.519  15.814  0.00  0.00    +0.068 C 
ATOM     29  C   UNL     1     -11.112  -6.004  15.879  0.00  0.00    +0.027 C 
ATOM     30  C   UNL     1     -11.831  -8.203  16.864  0.00  0.00    +0.027 C 
ENDBRANCH   9  25
ENDBRANCH  15   8
ENDBRANCH  13  15
TORSDOF 8
ENDMDL
MODEL 7
REMARK VINA RESULT:      -7.0     16.959     19.100
REMARK  Name = 40777985
REMARK  10 active torsions:
REMARK  status: ('A' for Active; 'I' for Inactive)
REMARK    1  A    between atoms: O_2  and  C_11
REMARK    2  A    between atoms: O_3  and  C_12
REMARK    3  A    between atoms: N_7  and  C_21
REMARK    4  A    between atoms: N_8  and  C_15
REMARK    5  A    between atoms: N_9  and  C_25
REMARK    6  A    between atoms: C_10  and  C_14
REMARK    7  A    between atoms: C_13  and  C_15
REMARK    8  A    between atoms: C_14  and  C_16
REMARK    9  A    between atoms: C_25  and  C_29
REMARK   10  A    between atoms: C_25  and  C_30
REMARK                            x       y       z     vdW  Elec       q    Type
REMARK                         _______ _______ _______ _____ _____    ______ ____
ROOT
ATOM      1  O   UNL     1       9.769   6.214   5.832  0.00  0.00    -0.366 OA
ATOM     10  C   UNL     1      11.201   6.284   5.706  0.00  0.00    +0.159 C 
ATOM     11  C   UNL     1      11.717   6.659   7.085  0.00  0.00    +0.175 C 
ATOM     12  C   UNL     1      10.743   5.926   7.983  0.00  0.00    +0.176 C 
ATOM     13  C   UNL     1       9.427   6.097   7.233  0.00  0.00    +0.167 C 
ENDROOT
BRANCH  11   2
ATOM      2  O   UNL     1      13.059   6.264   7.273  0.00  0.00    -0.387 OA
ATOM     31  H   UNL     1      13.408   6.774   8.024  0.00  0.00    +0.210 HD
ENDBRANCH  11   2
BRANCH  12   3
ATOM      3  O   UNL     1      11.054   4.534   8.020  0.00  0.00    -0.387 OA
ATOM     32  H   UNL     1      10.308   4.058   7.616  0.00  0.00    +0.210 HD
ENDBRANCH  12   3
BRANCH  10  14
ATOM     14  C   UNL     1      11.571   7.289   4.630  0.00  0.00    +0.130 C 
BRANCH  14  16
ATOM      4  O   UNL     1      13.880   6.883   4.255  0.00  0.00    -0.276 OA
ATOM      6  N   UNL     1      12.415   6.185   2.592  0.00  0.00    -0.298 N 
ATOM      7  N   UNL     1      11.855   4.761   0.134  0.00  0.00    -0.327 N 
ATOM     16  C   UNL     1      12.732   6.770   3.818  0.00  0.00    +0.218 C 
ATOM     17  C   UNL     1      13.484   5.663   1.745  0.00  0.00    +0.126 C 
ATOM     18  C   UNL     1      11.050   6.042   2.079  0.00  0.00    +0.126 C 
ATOM     19  C   UNL     1      13.034   4.442   0.944  0.00  0.00    +0.124 C 
ATOM     20  C   UNL     1      11.002   5.874   0.560  0.00  0.00    +0.124 C 
BRANCH   7  21
ATOM     21  C   UNL     1      11.577   4.046  -1.028  0.00  0.00    +0.030 A 
ATOM     23  C   UNL     1      10.539   4.453  -1.865  0.00  0.00    +0.023 A 
ATOM     24  C   UNL     1      12.337   2.922  -1.354  0.00  0.00    +0.023 A 
ATOM     26  C   UNL     1      10.260   3.736  -3.030  0.00  0.00    +0.002 A 
ATOM     27  C   UNL     1      12.058   2.206  -2.519  0.00  0.00    +0.002 A 
ATOM     28  C   UNL     1      11.020   2.613  -3.356  0.00  0.00    +0.000 A 
ENDBRANCH   7  21
ENDBRANCH  14  16
ENDBRANCH  10  14
BRANCH  13  15
ATOM     15  C   UNL     1       8.671   7.356   7.633  0.00  0.00    +0.140 C 
BRANCH  15   8
ATOM      5  O   UNL     1       9.128   9.630   5.916  0.00  0.00    -0.253 OA
ATOM      8  N   UNL     1       7.830   7.817   6.568  0.00  0.00    -0.297 N 
ATOM      9  N   UNL     1       7.140   9.157   4.819  0.00  0.00    -0.297 N 
ATOM     22  C   UNL     1       8.124   8.933   5.779  0.00  0.00    +0.300 C 
ATOM     33  H   UNL     1       6.980   7.299   6.371  0.00  0.00    +0.150 HD
ATOM     34  H   UNL     1       6.385   8.482   4.735  0.00  0.00    +0.150 HD
BRANCH   9  25
ATOM     25  C   UNL     1       7.201  10.247   3.874  0.00  0.00    +0.068 C 
ATOM     29  C   UNL     1       6.402  11.439   4.388  0.00  0.00    +0.027 C 
ATOM     30  C   UNL     1       6.704   9.798   2.506  0.00  0.00    +0.027 C 
ENDBRANCH   9  25
ENDBRANCH  15   8
ENDBRANCH  13  15
TORSDOF 8
ENDMDL
MODEL 8
REMARK VINA RESULT:      -7.0     27.417     28.830
REMARK  Name = 40777985
REMARK  10 active torsions:
REMARK  status: ('A' for Active; 'I' for Inactive)
REMARK    1  A    between atoms: O_2  and  C_11
REMARK    2  A    between atoms: O_3  and  C_12
REMARK    3  A    between atoms: N_7  and  C_21
REMARK    4  A    between atoms: N_8  and  C_15
REMARK    5  A    between atoms: N_9  and  C_25
REMARK    6  A    between atoms: C_10  and  C_14
REMARK    7  A    between atoms: C_13  and  C_15
REMARK    8  A    between atoms: C_14  and  C_16
REMARK    9  A    between atoms: C_25  and  C_29
REMARK   10  A    between atoms: C_25  and  C_30
REMARK                            x       y       z     vdW  Elec       q    Type
REMARK                         _______ _______ _______ _____ _____    ______ ____
ROOT
ATOM      1  O   UNL     1      -7.787 -11.708  17.392  0.00  0.00    -0.366 OA
ATOM     10  C   UNL     1      -6.949 -12.243  18.432  0.00  0.00    +0.159 C 
ATOM     11  C   UNL     1      -6.521 -11.050  19.270  0.00  0.00    +0.175 C 
ATOM     12  C   UNL     1      -7.762 -10.182  19.217  0.00  0.00    +0.176 C 
ATOM     13  C   UNL     1      -8.233 -10.388  17.782  0.00  0.00    +0.167 C 
ENDROOT
BRANCH  11   2
ATOM      2  O   UNL     1      -6.157 -11.427  20.580  0.00  0.00    -0.387 OA
ATOM     31  H   UNL     1      -6.739 -12.160  20.844  0.00  0.00    +0.210 HD
ENDBRANCH  11   2
BRANCH  12   3
ATOM      3  O   UNL     1      -8.765 -10.699  20.091  0.00  0.00    -0.387 OA
ATOM     32  H   UNL     1      -9.019 -11.576  19.756  0.00  0.00    +0.210 HD
ENDBRANCH  12   3
BRANCH  10  14
ATOM     14  C   UNL     1      -5.783 -12.993  17.813  0.00  0.00    +0.130 C 
BRANCH  14  16
ATOM      4  O   UNL     1      -3.841 -11.771  18.426  0.00  0.00    -0.276 OA
ATOM      6  N   UNL     1      -4.593 -11.507  16.243  0.00  0.00    -0.298 N 
ATOM      7  N   UNL     1      -4.258 -10.515  13.544  0.00  0.00    -0.327 N 
ATOM     16  C   UNL     1      -4.648 -12.038  17.532  0.00  0.00    +0.218 C 
ATOM     17  C   UNL     1      -3.527 -10.572  15.894  0.00  0.00    +0.126 C 
ATOM     18  C   UNL     1      -5.546 -11.834  15.180  0.00  0.00    +0.126 C 
ATOM     19  C   UNL     1      -3.107 -10.704  14.432  0.00  0.00    +0.124 C 
ATOM     20  C   UNL     1      -5.597 -10.770  14.083  0.00  0.00    +0.124 C 
BRANCH   7  21
ATOM     21  C   UNL     1      -4.082 -10.070  12.237  0.00  0.00    +0.030 A 
ATOM     23  C   UNL     1      -5.188  -9.705  11.469  0.00  0.00    +0.023 A 
ATOM     24  C   UNL     1      -2.799  -9.990  11.695  0.00  0.00    +0.023 A 
ATOM     26  C   UNL     1      -5.011  -9.259  10.159  0.00  0.00    +0.002 A 
ATOM     27  C   UNL     1      -2.622  -9.544  10.384  0.00  0.00    +0.002 A 
ATOM     28  C   UNL     1      -3.728  -9.179   9.617  0.00  0.00    +0.000 A 
ENDBRANCH   7  21
ENDBRANCH  14  16
ENDBRANCH  10  14
BRANCH  13  15
ATOM     15  C   UNL     1      -7.631  -9.387  16.807  0.00  0.00    +0.140 C 
BRANCH  15   8
ATOM      5  O   UNL     1      -9.776  -7.658  17.665  0.00  0.00    -0.253 OA
ATOM      8  N   UNL     1      -8.642  -8.793  15.984  0.00  0.00    -0.297 N 
ATOM      9  N   UNL     1     -10.500  -7.522  15.465  0.00  0.00    -0.297 N 
ATOM     22  C   UNL     1      -9.652  -7.962  16.479  0.00  0.00    +0.300 C 
ATOM     33  H   UNL     1      -8.619  -8.978  14.986  0.00  0.00    +0.150 HD
ATOM     34  H   UNL     1     -10.271  -7.767  14.506  0.00  0.00    +0.150 HD
BRANCH   9  25
ATOM     25  C   UNL     1     -11.626  -6.651  15.708  0.00  0.00    +0.068 C 
ATOM     29  C   UNL     1     -12.880  -7.471  15.985  0.00  0.00    +0.027 C 
ATOM     30  C   UNL     1     -11.834  -5.705  14.532  0.00  0.00    +0.027 C 
ENDBRANCH   9  25
ENDBRANCH  15   8
ENDBRANCH  13  15
TORSDOF 8
ENDMDL
MODEL 9
REMARK VINA RESULT:      -6.9     27.520     29.130
REMARK  Name = 40777985
REMARK  10 active torsions:
REMARK  status: ('A' for Active; 'I' for Inactive)
REMARK    1  A    between atoms: O_2  and  C_11
REMARK    2  A    between atoms: O_3  and  C_12
REMARK    3  A    between atoms: N_7  and  C_21
REMARK    4  A    between atoms: N_8  and  C_15
REMARK    5  A    between atoms: N_9  and  C_25
REMARK    6  A    between atoms: C_10  and  C_14
REMARK    7  A    between atoms: C_13  and  C_15
REMARK    8  A    between atoms: C_14  and  C_16
REMARK    9  A    between atoms: C_25  and  C_29
REMARK   10  A    between atoms: C_25  and  C_30
REMARK                            x       y       z     vdW  Elec       q    Type
REMARK                         _______ _______ _______ _____ _____    ______ ____
ROOT
ATOM      1  O   UNL     1      -6.110 -11.464  16.651  0.00  0.00    -0.366 OA
ATOM     10  C   UNL     1      -4.711 -11.389  16.322  0.00  0.00    +0.159 C 
ATOM     11  C   UNL     1      -3.998 -11.083  17.627  0.00  0.00    +0.175 C 
ATOM     12  C   UNL     1      -4.837 -11.859  18.621  0.00  0.00    +0.176 C 
ATOM     13  C   UNL     1      -6.247 -11.650  18.079  0.00  0.00    +0.167 C 
ENDROOT
BRANCH  11   2
ATOM      2  O   UNL     1      -2.646 -11.488  17.600  0.00  0.00    -0.387 OA
ATOM     31  H   UNL     1      -2.286 -11.236  16.733  0.00  0.00    +0.210 HD
ENDBRANCH  11   2
BRANCH  12   3
ATOM      3  O   UNL     1      -4.535 -13.252  18.544  0.00  0.00    -0.387 OA
ATOM     32  H   UNL     1      -3.673 -13.338  18.101  0.00  0.00    +0.210 HD
ENDBRANCH  12   3
BRANCH  10  14
ATOM     14  C   UNL     1      -4.494 -10.332  15.254  0.00  0.00    +0.130 C 
BRANCH  14  16
ATOM      4  O   UNL     1      -2.338 -11.183  14.734  0.00  0.00    -0.276 OA
ATOM      6  N   UNL     1      -3.735 -10.712  12.937  0.00  0.00    -0.298 N 
ATOM      7  N   UNL     1      -4.358 -10.807  10.111  0.00  0.00    -0.327 N 
ATOM     16  C   UNL     1      -3.420 -10.784  14.294  0.00  0.00    +0.218 C 
ATOM     17  C   UNL     1      -2.746 -11.126  11.945  0.00  0.00    +0.126 C 
ATOM     18  C   UNL     1      -5.023 -10.247  12.418  0.00  0.00    +0.126 C 
ATOM     19  C   UNL     1      -3.400 -11.741  10.710  0.00  0.00    +0.124 C 
ATOM     20  C   UNL     1      -4.940  -9.769  10.968  0.00  0.00    +0.124 C 
BRANCH   7  21
ATOM     21  C   UNL     1      -4.677 -10.885   8.758  0.00  0.00    +0.030 A 
ATOM     23  C   UNL     1      -5.340  -9.827   8.136  0.00  0.00    +0.023 A 
ATOM     24  C   UNL     1      -4.332 -12.021   8.025  0.00  0.00    +0.023 A 
ATOM     26  C   UNL     1      -5.658  -9.906   6.780  0.00  0.00    +0.002 A 
ATOM     27  C   UNL     1      -4.651 -12.098   6.669  0.00  0.00    +0.002 A 
ATOM     28  C   UNL     1      -5.314 -11.041   6.047  0.00  0.00    +0.000 A 
ENDBRANCH   7  21
ENDBRANCH  14  16
ENDBRANCH  10  14
BRANCH  13  15
ATOM     15  C   UNL     1      -6.926 -10.412  18.646  0.00  0.00    +0.140 C 
BRANCH  15   8
ATOM      5  O   UNL     1      -9.679  -9.843  17.990  0.00  0.00    -0.253 OA
ATOM      8  N   UNL     1      -7.405  -9.559  17.599  0.00  0.00    -0.297 N 
ATOM      9  N   UNL     1      -8.947  -8.464  16.273  0.00  0.00    -0.297 N 
ATOM     22  C   UNL     1      -8.762  -9.334  17.345  0.00  0.00    +0.300 C 
ATOM     33  H   UNL     1      -6.723  -9.085  17.017  0.00  0.00    +0.150 HD
ATOM     34  H   UNL     1      -8.128  -8.037  15.852  0.00  0.00    +0.150 HD
BRANCH   9  25
ATOM     25  C   UNL     1     -10.254  -8.066  15.804  0.00  0.00    +0.068 C 
ATOM     29  C   UNL     1     -10.587  -8.776  14.497  0.00  0.00    +0.027 C 
ATOM     30  C   UNL     1     -10.327  -6.553  15.644  0.00  0.00    +0.027 C 
ENDBRANCH   9  25
ENDBRANCH  15   8
ENDBRANCH  13  15
TORSDOF 8
ENDMDL
MODEL 10
REMARK VINA RESULT:      -6.8      2.629      5.701
REMARK  Name = 40777985
REMARK  10 active torsions:
REMARK  status: ('A' for Active; 'I' for Inactive)
REMARK    1  A    between atoms: O_2  and  C_11
REMARK    2  A    between atoms: O_3  and  C_12
REMARK    3  A    between atoms: N_7  and  C_21
REMARK    4  A    between atoms: N_8  and  C_15
REMARK    5  A    between atoms: N_9  and  C_25
REMARK    6  A    between atoms: C_10  and  C_14
REMARK    7  A    between atoms: C_13  and  C_15
REMARK    8  A    between atoms: C_14  and  C_16
REMARK    9  A    between atoms: C_25  and  C_29
REMARK   10  A    between atoms: C_25  and  C_30
REMARK                            x       y       z     vdW  Elec       q    Type
REMARK                         _______ _______ _______ _____ _____    ______ ____
ROOT
ATOM      1  O   UNL     1      12.801  12.121  24.243  0.00  0.00    -0.366 OA
ATOM     10  C   UNL     1      12.748  13.500  23.835  0.00  0.00    +0.159 C 
ATOM     11  C   UNL     1      11.277  13.880  23.862  0.00  0.00    +0.175 C 
ATOM     12  C   UNL     1      10.779  13.081  25.049  0.00  0.00    +0.176 C 
ATOM     13  C   UNL     1      11.563  11.780  24.908  0.00  0.00    +0.167 C 
ENDROOT
BRANCH  11   2
ATOM      2  O   UNL     1      11.092  15.272  24.007  0.00  0.00    -0.387 OA
ATOM     31  H   UNL     1      11.229  15.487  24.945  0.00  0.00    +0.210 HD
ENDBRANCH  11   2
BRANCH  12   3
ATOM      3  O   UNL     1      11.176  13.707  26.269  0.00  0.00    -0.387 OA
ATOM     32  H   UNL     1      10.367  14.008  26.718  0.00  0.00    +0.210 HD
ENDBRANCH  12   3
BRANCH  10  14
ATOM     14  C   UNL     1      13.384  13.653  22.465  0.00  0.00    +0.130 C 
BRANCH  14  16
ATOM      4  O   UNL     1      15.624  14.103  23.113  0.00  0.00    -0.276 OA
ATOM      6  N   UNL     1      15.254  12.131  21.940  0.00  0.00    -0.298 N 
ATOM      7  N   UNL     1      16.156   9.579  20.912  0.00  0.00    -0.327 N 
ATOM     16  C   UNL     1      14.856  13.325  22.542  0.00  0.00    +0.218 C 
ATOM     17  C   UNL     1      16.662  11.746  21.966  0.00  0.00    +0.126 C 
ATOM     18  C   UNL     1      14.338  11.204  21.270  0.00  0.00    +0.126 C 
ATOM     19  C   UNL     1      16.839  10.230  22.034  0.00  0.00    +0.124 C 
ATOM     20  C   UNL     1      15.046  10.290  20.271  0.00  0.00    +0.124 C 
BRANCH   7  21
ATOM     21  C   UNL     1      16.577   8.335  20.449  0.00  0.00    +0.030 A 
ATOM     23  C   UNL     1      15.784   7.620  19.553  0.00  0.00    +0.023 A 
ATOM     24  C   UNL     1      17.793   7.805  20.883  0.00  0.00    +0.023 A 
ATOM     26  C   UNL     1      16.207   6.374  19.089  0.00  0.00    +0.002 A 
ATOM     27  C   UNL     1      18.215   6.559  20.418  0.00  0.00    +0.002 A 
ATOM     28  C   UNL     1      17.422   5.844  19.522  0.00  0.00    +0.000 A 
ENDBRANCH   7  21
ENDBRANCH  14  16
ENDBRANCH  10  14
BRANCH  13  15
ATOM     15  C   UNL     1      10.848  10.743  24.055  0.00  0.00    +0.140 C 
BRANCH  15   8
ATOM      5  O   UNL     1      10.252   8.644  22.167  0.00  0.00    -0.253 OA
ATOM      8  N   UNL     1      11.781   9.850  23.434  0.00  0.00    -0.297 N 
ATOM      9  N   UNL     1      12.513   8.132  22.076  0.00  0.00    -0.297 N 
ATOM     22  C   UNL     1      11.410   8.854  22.525  0.00  0.00    +0.300 C 
ATOM     33  H   UNL     1      12.765   9.952  23.660  0.00  0.00    +0.150 HD
ATOM     34  H   UNL     1      13.438   8.430  22.372  0.00  0.00    +0.150 HD
BRANCH   9  25
ATOM     25  C   UNL     1      12.405   7.046  21.129  0.00  0.00    +0.068 C 
ATOM     29  C   UNL     1      12.184   7.590  19.723  0.00  0.00    +0.027 C 
ATOM     30  C   UNL     1      11.288   6.093  21.534  0.00  0.00    +0.027 C 
ENDBRANCH   9  25
ENDBRANCH  15   8
ENDBRANCH  13  15
TORSDOF 8
ENDMDL
