MODEL 1
REMARK VINA RESULT:      -6.7      0.000      0.000
REMARK  Name = 45783634
REMARK  8 active torsions:
REMARK  status: ('A' for Active; 'I' for Inactive)
REMARK    1  A    between atoms: O_3  and  C_28
REMARK    2  A    between atoms: O_3  and  C_29
REMARK    3  A    between atoms: N_4  and  C_10
REMARK    4  A    between atoms: N_5  and  C_20
REMARK    5  A    between atoms: N_9  and  C_26
REMARK    6  A    between atoms: C_11  and  C_19
REMARK    7  A    between atoms: C_21  and  C_22
REMARK    8  A    between atoms: C_27  and  C_28
REMARK                            x       y       z     vdW  Elec       q    Type
REMARK                         _______ _______ _______ _____ _____    ______ ____
ROOT
ATOM      1  O   UNL     1      11.862   7.436  18.634  0.00  0.00    -0.336 OA
ATOM      6  N   UNL     1      13.445   8.986  18.963  0.00  0.00    -0.190 NA
ATOM      7  N   UNL     1      12.319   7.802  17.361  0.00  0.00    -0.056 NA
ATOM     19  C   UNL     1      12.577   8.180  19.519  0.00  0.00    +0.245 A 
ATOM     21  C   UNL     1      13.250   8.719  17.639  0.00  0.00    +0.204 A 
ENDROOT
BRANCH  21  22
ATOM      8  N   UNL     1      15.104   9.294  14.466  0.00  0.00    -0.239 NA
ATOM     22  C   UNL     1      14.003   9.388  16.617  0.00  0.00    +0.041 A 
ATOM     23  C   UNL     1      14.365  10.723  16.751  0.00  0.00    +0.016 A 
ATOM     24  C   UNL     1      14.394   8.723  15.466  0.00  0.00    +0.124 A 
ATOM     25  C   UNL     1      15.095  11.345  15.745  0.00  0.00    +0.044 A 
ATOM     26  C   UNL     1      15.436  10.593  14.633  0.00  0.00    +0.125 A 
BRANCH  26   9
ATOM      2  O   UNL     1      14.523  11.935  12.098  0.00  0.00    -0.273 OA
ATOM      9  N   UNL     1      16.172  11.229  13.625  0.00  0.00    -0.268 N 
ATOM     27  C   UNL     1      15.691  11.838  12.462  0.00  0.00    +0.244 C 
ATOM     30  H   UNL     1      17.178  11.235  13.779  0.00  0.00    +0.156 HD
BRANCH  27  28
ATOM     28  C   UNL     1      16.808  12.408  11.616  0.00  0.00    +0.255 C 
BRANCH  28   3
ATOM      3  O   UNL     1      16.290  12.745  10.344  0.00  0.00    -0.374 OA
ATOM     29  C   UNL     1      17.267  12.599   9.318  0.00  0.00    +0.194 C 
ENDBRANCH  28   3
ENDBRANCH  27  28
ENDBRANCH  26   9
ENDBRANCH  21  22
BRANCH  19  11
ATOM      4  N   UNL     1      11.243   8.901  21.491  0.00  0.00    -0.288 NA
ATOM     11  C   UNL     1      12.266   7.966  20.985  0.00  0.00    +0.146 C 
ATOM     12  C   UNL     1      10.547   8.206  22.574  0.00  0.00    +0.085 C 
ATOM     15  C   UNL     1      11.694   6.566  21.273  0.00  0.00    +0.030 C 
ATOM     16  C   UNL     1      10.378   6.816  21.996  0.00  0.00    +0.017 C 
BRANCH   4  10
ATOM      5  N   UNL     1      12.941  11.841  24.048  0.00  0.00    -0.305 NA
ATOM     10  C   UNL     1      11.797  10.181  21.927  0.00  0.00    +0.060 C 
ATOM     13  C   UNL     1      13.233   9.995  22.425  0.00  0.00    +0.034 C 
ATOM     14  C   UNL     1      10.938  10.803  23.032  0.00  0.00    +0.034 C 
ATOM     17  C   UNL     1      13.796  11.307  22.978  0.00  0.00    +0.085 C 
ATOM     18  C   UNL     1      11.576  12.088  23.566  0.00  0.00    +0.085 C 
ATOM     20  C   UNL     1      13.519  13.066  24.601  0.00  0.00    +0.104 C 
ENDBRANCH   4  10
ENDBRANCH  19  11
TORSDOF 6
ENDMDL
MODEL 2
REMARK VINA RESULT:      -6.7      6.283      8.509
REMARK  Name = 45783634
REMARK  8 active torsions:
REMARK  status: ('A' for Active; 'I' for Inactive)
REMARK    1  A    between atoms: O_3  and  C_28
REMARK    2  A    between atoms: O_3  and  C_29
REMARK    3  A    between atoms: N_4  and  C_10
REMARK    4  A    between atoms: N_5  and  C_20
REMARK    5  A    between atoms: N_9  and  C_26
REMARK    6  A    between atoms: C_11  and  C_19
REMARK    7  A    between atoms: C_21  and  C_22
REMARK    8  A    between atoms: C_27  and  C_28
REMARK                            x       y       z     vdW  Elec       q    Type
REMARK                         _______ _______ _______ _____ _____    ______ ____
ROOT
ATOM      1  O   UNL     1      14.470   6.724  19.520  0.00  0.00    -0.336 OA
ATOM      6  N   UNL     1      15.665   7.962  20.953  0.00  0.00    -0.190 NA
ATOM      7  N   UNL     1      15.763   6.183  19.518  0.00  0.00    -0.056 NA
ATOM     19  C   UNL     1      14.500   7.767  20.391  0.00  0.00    +0.245 A 
ATOM     21  C   UNL     1      16.407   6.966  20.388  0.00  0.00    +0.204 A 
ENDROOT
BRANCH  21  22
ATOM      8  N   UNL     1      19.728   7.488  21.978  0.00  0.00    -0.239 NA
ATOM     22  C   UNL     1      17.793   6.783  20.711  0.00  0.00    +0.041 A 
ATOM     23  C   UNL     1      18.542   5.776  20.115  0.00  0.00    +0.016 A 
ATOM     24  C   UNL     1      18.427   7.606  21.629  0.00  0.00    +0.124 A 
ATOM     25  C   UNL     1      19.883   5.623  20.448  0.00  0.00    +0.044 A 
ATOM     26  C   UNL     1      20.423   6.497  21.377  0.00  0.00    +0.125 A 
BRANCH  26   9
ATOM      2  O   UNL     1      21.755   4.578  23.274  0.00  0.00    -0.273 OA
ATOM      9  N   UNL     1      21.775   6.336  21.706  0.00  0.00    -0.268 N 
ATOM     27  C   UNL     1      22.340   5.421  22.601  0.00  0.00    +0.244 C 
ATOM     30  H   UNL     1      22.404   6.972  21.223  0.00  0.00    +0.156 HD
BRANCH  27  28
ATOM     28  C   UNL     1      23.843   5.566  22.687  0.00  0.00    +0.255 C 
BRANCH  28   3
ATOM      3  O   UNL     1      24.437   4.305  22.454  0.00  0.00    -0.374 OA
ATOM     29  C   UNL     1      24.549   4.020  21.063  0.00  0.00    +0.194 C 
ENDBRANCH  28   3
ENDBRANCH  27  28
ENDBRANCH  26   9
ENDBRANCH  21  22
BRANCH  19  11
ATOM      4  N   UNL     1      12.280   8.360  19.437  0.00  0.00    -0.288 NA
ATOM     11  C   UNL     1      13.205   8.529  20.575  0.00  0.00    +0.146 C 
ATOM     12  C   UNL     1      10.928   8.493  19.980  0.00  0.00    +0.085 C 
ATOM     15  C   UNL     1      12.406   8.054  21.803  0.00  0.00    +0.030 C 
ATOM     16  C   UNL     1      11.027   7.697  21.266  0.00  0.00    +0.017 C 
BRANCH   4  10
ATOM      5  N   UNL     1      14.375  10.477  16.405  0.00  0.00    -0.305 NA
ATOM     10  C   UNL     1      12.529   9.301  18.348  0.00  0.00    +0.060 C 
ATOM     13  C   UNL     1      12.980   8.551  17.092  0.00  0.00    +0.034 C 
ATOM     14  C   UNL     1      13.587  10.335  18.747  0.00  0.00    +0.034 C 
ATOM     17  C   UNL     1      13.342   9.527  15.969  0.00  0.00    +0.085 C 
ATOM     18  C   UNL     1      13.928  11.252  17.570  0.00  0.00    +0.085 C 
ATOM     20  C   UNL     1      14.746  11.369  15.307  0.00  0.00    +0.104 C 
ENDBRANCH   4  10
ENDBRANCH  19  11
TORSDOF 6
ENDMDL
MODEL 3
REMARK VINA RESULT:      -6.6     29.161     31.681
REMARK  Name = 45783634
REMARK  8 active torsions:
REMARK  status: ('A' for Active; 'I' for Inactive)
REMARK    1  A    between atoms: O_3  and  C_28
REMARK    2  A    between atoms: O_3  and  C_29
REMARK    3  A    between atoms: N_4  and  C_10
REMARK    4  A    between atoms: N_5  and  C_20
REMARK    5  A    between atoms: N_9  and  C_26
REMARK    6  A    between atoms: C_11  and  C_19
REMARK    7  A    between atoms: C_21  and  C_22
REMARK    8  A    between atoms: C_27  and  C_28
REMARK                            x       y       z     vdW  Elec       q    Type
REMARK                         _______ _______ _______ _____ _____    ______ ____
ROOT
ATOM      1  O   UNL     1     -14.331  -5.643  14.179  0.00  0.00    -0.336 OA
ATOM      6  N   UNL     1     -12.100  -5.676  14.376  0.00  0.00    -0.190 NA
ATOM      7  N   UNL     1     -14.040  -6.596  15.164  0.00  0.00    -0.056 NA
ATOM     19  C   UNL     1     -13.133  -5.150  13.768  0.00  0.00    +0.245 A 
ATOM     21  C   UNL     1     -12.706  -6.557  15.223  0.00  0.00    +0.204 A 
ENDROOT
BRANCH  21  22
ATOM      8  N   UNL     1      -9.849  -7.847  17.225  0.00  0.00    -0.239 NA
ATOM     22  C   UNL     1     -11.948  -7.386  16.115  0.00  0.00    +0.041 A 
ATOM     23  C   UNL     1     -12.522  -8.495  16.725  0.00  0.00    +0.016 A 
ATOM     24  C   UNL     1     -10.620  -7.107  16.395  0.00  0.00    +0.124 A 
ATOM     25  C   UNL     1     -11.762  -9.281  17.584  0.00  0.00    +0.044 A 
ATOM     26  C   UNL     1     -10.443  -8.917  17.799  0.00  0.00    +0.125 A 
BRANCH  26   9
ATOM      2  O   UNL     1      -8.573 -11.202  17.216  0.00  0.00    -0.273 OA
ATOM      9  N   UNL     1      -9.685  -9.714  18.666  0.00  0.00    -0.268 N 
ATOM     27  C   UNL     1      -8.829 -10.770  18.337  0.00  0.00    +0.244 C 
ATOM     30  H   UNL     1      -9.787  -9.480  19.650  0.00  0.00    +0.156 HD
BRANCH  27  28
ATOM     28  C   UNL     1      -8.196 -11.391  19.562  0.00  0.00    +0.255 C 
BRANCH  28   3
ATOM      3  O   UNL     1      -7.122 -10.575  19.984  0.00  0.00    -0.374 OA
ATOM     29  C   UNL     1      -5.863 -11.101  19.578  0.00  0.00    +0.194 C 
ENDBRANCH  28   3
ENDBRANCH  27  28
ENDBRANCH  26   9
ENDBRANCH  21  22
BRANCH  19  11
ATOM      4  N   UNL     1     -13.288  -4.657  11.335  0.00  0.00    -0.288 NA
ATOM     11  C   UNL     1     -13.175  -4.086  12.691  0.00  0.00    +0.146 C 
ATOM     12  C   UNL     1     -14.001  -3.666  10.528  0.00  0.00    +0.085 C 
ATOM     15  C   UNL     1     -14.391  -3.152  12.826  0.00  0.00    +0.030 C 
ATOM     16  C   UNL     1     -15.093  -3.216  11.477  0.00  0.00    +0.017 C 
BRANCH   4  10
ATOM      5  N   UNL     1     -10.408  -5.740   8.403  0.00  0.00    -0.305 NA
ATOM     10  C   UNL     1     -11.998  -5.016  10.750  0.00  0.00    +0.060 C 
ATOM     13  C   UNL     1     -11.592  -3.989   9.691  0.00  0.00    +0.034 C 
ATOM     14  C   UNL     1     -12.047  -6.415  10.129  0.00  0.00    +0.034 C 
ATOM     17  C   UNL     1     -10.290  -4.401   8.997  0.00  0.00    +0.085 C 
ATOM     18  C   UNL     1     -10.731  -6.748   9.421  0.00  0.00    +0.085 C 
ATOM     20  C   UNL     1      -9.175  -6.098   7.702  0.00  0.00    +0.104 C 
ENDBRANCH   4  10
ENDBRANCH  19  11
TORSDOF 6
ENDMDL
MODEL 4
REMARK VINA RESULT:      -6.4     25.109     29.198
REMARK  Name = 45783634
REMARK  8 active torsions:
REMARK  status: ('A' for Active; 'I' for Inactive)
REMARK    1  A    between atoms: O_3  and  C_28
REMARK    2  A    between atoms: O_3  and  C_29
REMARK    3  A    between atoms: N_4  and  C_10
REMARK    4  A    between atoms: N_5  and  C_20
REMARK    5  A    between atoms: N_9  and  C_26
REMARK    6  A    between atoms: C_11  and  C_19
REMARK    7  A    between atoms: C_21  and  C_22
REMARK    8  A    between atoms: C_27  and  C_28
REMARK                            x       y       z     vdW  Elec       q    Type
REMARK                         _______ _______ _______ _____ _____    ______ ____
ROOT
ATOM      1  O   UNL     1     -12.727   9.591  19.008  0.00  0.00    -0.336 OA
ATOM      6  N   UNL     1     -12.288   7.405  19.225  0.00  0.00    -0.190 NA
ATOM      7  N   UNL     1     -13.400   9.171  20.163  0.00  0.00    -0.056 NA
ATOM     19  C   UNL     1     -12.098   8.490  18.518  0.00  0.00    +0.245 A 
ATOM     21  C   UNL     1     -13.092   7.872  20.224  0.00  0.00    +0.204 A 
ENDROOT
BRANCH  21  22
ATOM      8  N   UNL     1     -15.239   6.550  22.958  0.00  0.00    -0.239 NA
ATOM     22  C   UNL     1     -13.574   7.012  21.267  0.00  0.00    +0.041 A 
ATOM     23  C   UNL     1     -12.894   5.850  21.609  0.00  0.00    +0.016 A 
ATOM     24  C   UNL     1     -14.731   7.316  21.965  0.00  0.00    +0.124 A 
ATOM     25  C   UNL     1     -13.384   5.037  22.624  0.00  0.00    +0.044 A 
ATOM     26  C   UNL     1     -14.550   5.428  23.262  0.00  0.00    +0.125 A 
BRANCH  26   9
ATOM      2  O   UNL     1     -16.136   2.874  23.121  0.00  0.00    -0.273 OA
ATOM      9  N   UNL     1     -15.036   4.603  24.283  0.00  0.00    -0.268 N 
ATOM     27  C   UNL     1     -15.772   3.420  24.158  0.00  0.00    +0.244 C 
ATOM     30  H   UNL     1     -14.814   4.922  25.223  0.00  0.00    +0.156 HD
BRANCH  27  28
ATOM     28  C   UNL     1     -16.118   2.822  25.504  0.00  0.00    +0.255 C 
BRANCH  28   3
ATOM      3  O   UNL     1     -16.275   1.425  25.354  0.00  0.00    -0.374 OA
ATOM     29  C   UNL     1     -17.469   0.956  25.972  0.00  0.00    +0.194 C 
ENDBRANCH  28   3
ENDBRANCH  27  28
ENDBRANCH  26   9
ENDBRANCH  21  22
BRANCH  19  11
ATOM      4  N   UNL     1     -12.045   9.379  16.195  0.00  0.00    -0.288 NA
ATOM     11  C   UNL     1     -11.288   8.683  17.254  0.00  0.00    +0.146 C 
ATOM     12  C   UNL     1     -11.061  10.105  15.393  0.00  0.00    +0.085 C 
ATOM     15  C   UNL     1     -10.037   9.552  17.477  0.00  0.00    +0.030 C 
ATOM     16  C   UNL     1     -10.149  10.678  16.458  0.00  0.00    +0.017 C 
BRANCH   4  10
ATOM      5  N   UNL     1     -14.230   7.904  12.861  0.00  0.00    -0.305 NA
ATOM     10  C   UNL     1     -12.861   8.479  15.383  0.00  0.00    +0.060 C 
ATOM     13  C   UNL     1     -12.103   8.076  14.116  0.00  0.00    +0.034 C 
ATOM     14  C   UNL     1     -14.193   9.135  15.008  0.00  0.00    +0.034 C 
ATOM     17  C   UNL     1     -12.979   7.212  13.203  0.00  0.00    +0.085 C 
ATOM     18  C   UNL     1     -15.001   8.237  14.066  0.00  0.00    +0.085 C 
ATOM     20  C   UNL     1     -15.032   7.088  11.950  0.00  0.00    +0.104 C 
ENDBRANCH   4  10
ENDBRANCH  19  11
TORSDOF 6
ENDMDL
MODEL 5
REMARK VINA RESULT:      -6.4      6.200      7.873
REMARK  Name = 45783634
REMARK  8 active torsions:
REMARK  status: ('A' for Active; 'I' for Inactive)
REMARK    1  A    between atoms: O_3  and  C_28
REMARK    2  A    between atoms: O_3  and  C_29
REMARK    3  A    between atoms: N_4  and  C_10
REMARK    4  A    between atoms: N_5  and  C_20
REMARK    5  A    between atoms: N_9  and  C_26
REMARK    6  A    between atoms: C_11  and  C_19
REMARK    7  A    between atoms: C_21  and  C_22
REMARK    8  A    between atoms: C_27  and  C_28
REMARK                            x       y       z     vdW  Elec       q    Type
REMARK                         _______ _______ _______ _____ _____    ______ ____
ROOT
ATOM      1  O   UNL     1      13.986   6.986  20.182  0.00  0.00    -0.336 OA
ATOM      6  N   UNL     1      15.771   8.311  19.910  0.00  0.00    -0.190 NA
ATOM      7  N   UNL     1      15.109   6.174  20.386  0.00  0.00    -0.056 NA
ATOM     19  C   UNL     1      14.465   8.228  19.907  0.00  0.00    +0.245 A 
ATOM     21  C   UNL     1      16.122   7.027  20.209  0.00  0.00    +0.204 A 
ENDROOT
BRANCH  21  22
ATOM      8  N   UNL     1      19.255   5.084  19.713  0.00  0.00    -0.239 NA
ATOM     22  C   UNL     1      17.496   6.629  20.322  0.00  0.00    +0.041 A 
ATOM     23  C   UNL     1      18.389   7.348  21.106  0.00  0.00    +0.016 A 
ATOM     24  C   UNL     1      17.973   5.514  19.651  0.00  0.00    +0.124 A 
ATOM     25  C   UNL     1      19.714   6.938  21.196  0.00  0.00    +0.044 A 
ATOM     26  C   UNL     1      20.093   5.810  20.486  0.00  0.00    +0.125 A 
BRANCH  26   9
ATOM      2  O   UNL     1      21.527   4.323  22.675  0.00  0.00    -0.273 OA
ATOM      9  N   UNL     1      21.430   5.404  20.584  0.00  0.00    -0.268 N 
ATOM     27  C   UNL     1      22.045   4.712  21.632  0.00  0.00    +0.244 C 
ATOM     30  H   UNL     1      22.005   5.654  19.783  0.00  0.00    +0.156 HD
BRANCH  27  28
ATOM     28  C   UNL     1      23.513   4.464  21.364  0.00  0.00    +0.255 C 
BRANCH  28   3
ATOM      3  O   UNL     1      23.815   3.122  21.687  0.00  0.00    -0.374 OA
ATOM     29  C   UNL     1      24.383   2.425  20.582  0.00  0.00    +0.194 C 
ENDBRANCH  28   3
ENDBRANCH  27  28
ENDBRANCH  26   9
ENDBRANCH  21  22
BRANCH  19  11
ATOM      4  N   UNL     1      13.717  10.552  20.383  0.00  0.00    -0.288 NA
ATOM     11  C   UNL     1      13.434   9.306  19.646  0.00  0.00    +0.146 C 
ATOM     12  C   UNL     1      13.168  11.643  19.577  0.00  0.00    +0.085 C 
ATOM     15  C   UNL     1      13.380   9.729  18.166  0.00  0.00    +0.030 C 
ATOM     16  C   UNL     1      13.582  11.238  18.178  0.00  0.00    +0.017 C 
BRANCH   4  10
ATOM      5  N   UNL     1      11.531  11.812  23.804  0.00  0.00    -0.305 NA
ATOM     10  C   UNL     1      13.183  10.551  21.743  0.00  0.00    +0.060 C 
ATOM     13  C   UNL     1      11.654  10.493  21.713  0.00  0.00    +0.034 C 
ATOM     14  C   UNL     1      13.643  11.793  22.514  0.00  0.00    +0.034 C 
ATOM     17  C   UNL     1      11.072  10.592  23.126  0.00  0.00    +0.085 C 
ATOM     18  C   UNL     1      12.997  11.849  23.900  0.00  0.00    +0.085 C 
ATOM     20  C   UNL     1      10.927  11.917  25.132  0.00  0.00    +0.104 C 
ENDBRANCH   4  10
ENDBRANCH  19  11
TORSDOF 6
ENDMDL
MODEL 6
REMARK VINA RESULT:      -6.3      8.623     10.490
REMARK  Name = 45783634
REMARK  8 active torsions:
REMARK  status: ('A' for Active; 'I' for Inactive)
REMARK    1  A    between atoms: O_3  and  C_28
REMARK    2  A    between atoms: O_3  and  C_29
REMARK    3  A    between atoms: N_4  and  C_10
REMARK    4  A    between atoms: N_5  and  C_20
REMARK    5  A    between atoms: N_9  and  C_26
REMARK    6  A    between atoms: C_11  and  C_19
REMARK    7  A    between atoms: C_21  and  C_22
REMARK    8  A    between atoms: C_27  and  C_28
REMARK                            x       y       z     vdW  Elec       q    Type
REMARK                         _______ _______ _______ _____ _____    ______ ____
ROOT
ATOM      1  O   UNL     1      20.786   5.777  22.495  0.00  0.00    -0.336 OA
ATOM      6  N   UNL     1      20.149   5.153  20.440  0.00  0.00    -0.190 NA
ATOM      7  N   UNL     1      19.547   6.391  22.268  0.00  0.00    -0.056 NA
ATOM     19  C   UNL     1      21.066   5.067  21.370  0.00  0.00    +0.245 A 
ATOM     21  C   UNL     1      19.237   5.975  21.037  0.00  0.00    +0.204 A 
ENDROOT
BRANCH  21  22
ATOM      8  N   UNL     1      16.409   5.956  18.621  0.00  0.00    -0.239 NA
ATOM     22  C   UNL     1      18.026   6.363  20.373  0.00  0.00    +0.041 A 
ATOM     23  C   UNL     1      17.301   7.472  20.793  0.00  0.00    +0.016 A 
ATOM     24  C   UNL     1      17.542   5.644  19.291  0.00  0.00    +0.124 A 
ATOM     25  C   UNL     1      16.132   7.824  20.130  0.00  0.00    +0.044 A 
ATOM     26  C   UNL     1      15.732   7.040  19.060  0.00  0.00    +0.125 A 
BRANCH  26   9
ATOM      2  O   UNL     1      12.857   6.776  19.908  0.00  0.00    -0.273 OA
ATOM      9  N   UNL     1      14.553   7.403  18.398  0.00  0.00    -0.268 N 
ATOM     27  C   UNL     1      13.236   7.255  18.843  0.00  0.00    +0.244 C 
ATOM     30  H   UNL     1      14.697   7.823  17.483  0.00  0.00    +0.156 HD
BRANCH  27  28
ATOM     28  C   UNL     1      12.233   7.765  17.830  0.00  0.00    +0.255 C 
BRANCH  28   3
ATOM      3  O   UNL     1      12.925   8.149  16.659  0.00  0.00    -0.374 OA
ATOM     29  C   UNL     1      12.450   9.389  16.145  0.00  0.00    +0.194 C 
ENDBRANCH  28   3
ENDBRANCH  27  28
ENDBRANCH  26   9
ENDBRANCH  21  22
BRANCH  19  11
ATOM      4  N   UNL     1      23.524   5.138  21.748  0.00  0.00    -0.288 NA
ATOM     11  C   UNL     1      22.371   4.300  21.364  0.00  0.00    +0.146 C 
ATOM     12  C   UNL     1      24.495   4.241  22.375  0.00  0.00    +0.085 C 
ATOM     15  C   UNL     1      22.380   3.135  22.371  0.00  0.00    +0.030 C 
ATOM     16  C   UNL     1      23.607   3.371  23.241  0.00  0.00    +0.017 C 
BRANCH   4  10
ATOM      5  N   UNL     1      26.093   7.759  19.606  0.00  0.00    -0.305 NA
ATOM     10  C   UNL     1      24.100   5.875  20.626  0.00  0.00    +0.060 C 
ATOM     13  C   UNL     1      25.569   5.487  20.435  0.00  0.00    +0.034 C 
ATOM     14  C   UNL     1      23.984   7.387  20.846  0.00  0.00    +0.034 C 
ATOM     17  C   UNL     1      26.217   6.321  19.327  0.00  0.00    +0.085 C 
ATOM     18  C   UNL     1      24.685   8.159  19.725  0.00  0.00    +0.085 C 
ATOM     20  C   UNL     1      26.761   8.541  18.566  0.00  0.00    +0.104 C 
ENDBRANCH   4  10
ENDBRANCH  19  11
TORSDOF 6
ENDMDL
MODEL 7
REMARK VINA RESULT:      -6.2     26.275     29.854
REMARK  Name = 45783634
REMARK  8 active torsions:
REMARK  status: ('A' for Active; 'I' for Inactive)
REMARK    1  A    between atoms: O_3  and  C_28
REMARK    2  A    between atoms: O_3  and  C_29
REMARK    3  A    between atoms: N_4  and  C_10
REMARK    4  A    between atoms: N_5  and  C_20
REMARK    5  A    between atoms: N_9  and  C_26
REMARK    6  A    between atoms: C_11  and  C_19
REMARK    7  A    between atoms: C_21  and  C_22
REMARK    8  A    between atoms: C_27  and  C_28
REMARK                            x       y       z     vdW  Elec       q    Type
REMARK                         _______ _______ _______ _____ _____    ______ ____
ROOT
ATOM      1  O   UNL     1      -4.787 -10.711  17.363  0.00  0.00    -0.336 OA
ATOM      6  N   UNL     1      -5.828 -10.195  15.448  0.00  0.00    -0.190 NA
ATOM      7  N   UNL     1      -6.060 -10.247  17.723  0.00  0.00    -0.056 NA
ATOM     19  C   UNL     1      -4.735 -10.647  16.006  0.00  0.00    +0.245 A 
ATOM     21  C   UNL     1      -6.612  -9.964  16.540  0.00  0.00    +0.204 A 
ENDROOT
BRANCH  21  22
ATOM      8  N   UNL     1      -9.909  -9.109  15.046  0.00  0.00    -0.239 NA
ATOM     22  C   UNL     1      -7.944  -9.445  16.415  0.00  0.00    +0.041 A 
ATOM     23  C   UNL     1      -8.565  -8.798  17.477  0.00  0.00    +0.016 A 
ATOM     24  C   UNL     1      -8.652  -9.574  15.231  0.00  0.00    +0.124 A 
ATOM     25  C   UNL     1      -9.856  -8.305  17.326  0.00  0.00    +0.044 A 
ATOM     26  C   UNL     1     -10.479  -8.485  16.101  0.00  0.00    +0.125 A 
BRANCH  26   9
ATOM      2  O   UNL     1     -11.443  -5.702  15.484  0.00  0.00    -0.273 OA
ATOM      9  N   UNL     1     -11.779  -7.985  15.958  0.00  0.00    -0.268 N 
ATOM     27  C   UNL     1     -12.169  -6.674  15.670  0.00  0.00    +0.244 C 
ATOM     30  H   UNL     1     -12.512  -8.678  16.084  0.00  0.00    +0.156 HD
BRANCH  27  28
ATOM     28  C   UNL     1     -13.674  -6.531  15.606  0.00  0.00    +0.255 C 
BRANCH  28   3
ATOM      3  O   UNL     1     -14.019  -5.882  14.398  0.00  0.00    -0.374 OA
ATOM     29  C   UNL     1     -15.394  -6.061  14.073  0.00  0.00    +0.194 C 
ENDBRANCH  28   3
ENDBRANCH  27  28
ENDBRANCH  26   9
ENDBRANCH  21  22
BRANCH  19  11
ATOM      4  N   UNL     1      -3.102 -10.315  14.158  0.00  0.00    -0.288 NA
ATOM     11  C   UNL     1      -3.443 -11.102  15.359  0.00  0.00    +0.146 C 
ATOM     12  C   UNL     1      -1.643 -10.323  14.059  0.00  0.00    +0.085 C 
ATOM     15  C   UNL     1      -2.226 -10.944  16.289  0.00  0.00    +0.030 C 
ATOM     16  C   UNL     1      -1.229 -10.105  15.500  0.00  0.00    +0.017 C 
BRANCH   4  10
ATOM      5  N   UNL     1      -3.593 -12.421  10.499  0.00  0.00    -0.305 NA
ATOM     10  C   UNL     1      -3.738 -10.816  12.942  0.00  0.00    +0.060 C 
ATOM     13  C   UNL     1      -3.796 -12.345  12.965  0.00  0.00    +0.034 C 
ATOM     14  C   UNL     1      -2.986 -10.341  11.694  0.00  0.00    +0.034 C 
ATOM     17  C   UNL     1      -4.369 -12.893  11.654  0.00  0.00    +0.085 C 
ATOM     18  C   UNL     1      -3.585 -10.954  10.426  0.00  0.00    +0.085 C 
ATOM     20  C   UNL     1      -4.120 -12.993   9.260  0.00  0.00    +0.104 C 
ENDBRANCH   4  10
ENDBRANCH  19  11
TORSDOF 6
ENDMDL
MODEL 8
REMARK VINA RESULT:      -6.2      6.163      8.386
REMARK  Name = 45783634
REMARK  8 active torsions:
REMARK  status: ('A' for Active; 'I' for Inactive)
REMARK    1  A    between atoms: O_3  and  C_28
REMARK    2  A    between atoms: O_3  and  C_29
REMARK    3  A    between atoms: N_4  and  C_10
REMARK    4  A    between atoms: N_5  and  C_20
REMARK    5  A    between atoms: N_9  and  C_26
REMARK    6  A    between atoms: C_11  and  C_19
REMARK    7  A    between atoms: C_21  and  C_22
REMARK    8  A    between atoms: C_27  and  C_28
REMARK                            x       y       z     vdW  Elec       q    Type
REMARK                         _______ _______ _______ _____ _____    ______ ____
ROOT
ATOM      1  O   UNL     1      14.630   8.818  21.131  0.00  0.00    -0.336 OA
ATOM      6  N   UNL     1      15.575   7.873  19.333  0.00  0.00    -0.190 NA
ATOM      7  N   UNL     1      15.774   8.155  21.595  0.00  0.00    -0.056 NA
ATOM     19  C   UNL     1      14.587   8.600  19.790  0.00  0.00    +0.245 A 
ATOM     21  C   UNL     1      16.277   7.624  20.477  0.00  0.00    +0.204 A 
ENDROOT
BRANCH  21  22
ATOM      8  N   UNL     1      19.626   6.338  21.455  0.00  0.00    -0.239 NA
ATOM     22  C   UNL     1      17.476   6.837  20.468  0.00  0.00    +0.041 A 
ATOM     23  C   UNL     1      17.676   5.845  19.515  0.00  0.00    +0.016 A 
ATOM     24  C   UNL     1      18.473   7.043  21.408  0.00  0.00    +0.124 A 
ATOM     25  C   UNL     1      18.849   5.100  19.530  0.00  0.00    +0.044 A 
ATOM     26  C   UNL     1      19.784   5.383  20.513  0.00  0.00    +0.125 A 
BRANCH  26   9
ATOM      2  O   UNL     1      22.663   6.254  20.417  0.00  0.00    -0.273 OA
ATOM      9  N   UNL     1      20.963   4.626  20.520  0.00  0.00    -0.268 N 
ATOM     27  C   UNL     1      22.282   5.088  20.473  0.00  0.00    +0.244 C 
ATOM     30  H   UNL     1      20.817   3.621  20.564  0.00  0.00    +0.156 HD
BRANCH  27  28
ATOM     28  C   UNL     1      23.282   3.953  20.491  0.00  0.00    +0.255 C 
BRANCH  28   3
ATOM      3  O   UNL     1      24.410   4.328  19.726  0.00  0.00    -0.374 OA
ATOM     29  C   UNL     1      25.187   3.199  19.338  0.00  0.00    +0.194 C 
ENDBRANCH  28   3
ENDBRANCH  27  28
ENDBRANCH  26   9
ENDBRANCH  21  22
BRANCH  19  11
ATOM      4  N   UNL     1      13.606   9.178  17.578  0.00  0.00    -0.288 NA
ATOM     11  C   UNL     1      13.427   9.223  19.042  0.00  0.00    +0.146 C 
ATOM     12  C   UNL     1      12.264   9.117  17.000  0.00  0.00    +0.085 C 
ATOM     15  C   UNL     1      12.096   8.492  19.297  0.00  0.00    +0.030 C 
ATOM     16  C   UNL     1      11.572   8.128  17.915  0.00  0.00    +0.017 C 
BRANCH   4  10
ATOM      5  N   UNL     1      14.464  12.856  15.629  0.00  0.00    -0.305 NA
ATOM     10  C   UNL     1      14.379  10.303  17.057  0.00  0.00    +0.060 C 
ATOM     13  C   UNL     1      13.906  11.612  17.695  0.00  0.00    +0.034 C 
ATOM     14  C   UNL     1      14.257  10.392  15.532  0.00  0.00    +0.034 C 
ATOM     17  C   UNL     1      14.636  12.813  17.088  0.00  0.00    +0.085 C 
ATOM     18  C   UNL     1      14.975  11.633  14.996  0.00  0.00    +0.085 C 
ATOM     20  C   UNL     1      15.124  14.036  15.071  0.00  0.00    +0.104 C 
ENDBRANCH   4  10
ENDBRANCH  19  11
TORSDOF 6
ENDMDL
MODEL 9
REMARK VINA RESULT:      -6.1      7.681      9.707
REMARK  Name = 45783634
REMARK  8 active torsions:
REMARK  status: ('A' for Active; 'I' for Inactive)
REMARK    1  A    between atoms: O_3  and  C_28
REMARK    2  A    between atoms: O_3  and  C_29
REMARK    3  A    between atoms: N_4  and  C_10
REMARK    4  A    between atoms: N_5  and  C_20
REMARK    5  A    between atoms: N_9  and  C_26
REMARK    6  A    between atoms: C_11  and  C_19
REMARK    7  A    between atoms: C_21  and  C_22
REMARK    8  A    between atoms: C_27  and  C_28
REMARK                            x       y       z     vdW  Elec       q    Type
REMARK                         _______ _______ _______ _____ _____    ______ ____
ROOT
ATOM      1  O   UNL     1      16.657   6.998  19.397  0.00  0.00    -0.336 OA
ATOM      6  N   UNL     1      17.887   7.629  21.159  0.00  0.00    -0.190 NA
ATOM      7  N   UNL     1      17.696   6.065  19.501  0.00  0.00    -0.056 NA
ATOM     19  C   UNL     1      16.844   7.884  20.411  0.00  0.00    +0.245 A 
ATOM     21  C   UNL     1      18.377   6.504  20.563  0.00  0.00    +0.204 A 
ENDROOT
BRANCH  21  22
ATOM      8  N   UNL     1      21.238   5.635  22.775  0.00  0.00    -0.239 NA
ATOM     22  C   UNL     1      19.553   5.844  21.053  0.00  0.00    +0.041 A 
ATOM     23  C   UNL     1      20.150   4.814  20.335  0.00  0.00    +0.016 A 
ATOM     24  C   UNL     1      20.131   6.214  22.257  0.00  0.00    +0.124 A 
ATOM     25  C   UNL     1      21.289   4.194  20.835  0.00  0.00    +0.044 A 
ATOM     26  C   UNL     1      21.789   4.637  22.048  0.00  0.00    +0.125 A 
BRANCH  26   9
ATOM      2  O   UNL     1      24.700   5.245  21.591  0.00  0.00    -0.273 OA
ATOM      9  N   UNL     1      22.937   4.007  22.543  0.00  0.00    -0.268 N 
ATOM     27  C   UNL     1      24.273   4.335  22.294  0.00  0.00    +0.244 C 
ATOM     30  H   UNL     1      22.752   3.216  23.155  0.00  0.00    +0.156 HD
BRANCH  27  28
ATOM     28  C   UNL     1      25.229   3.405  23.010  0.00  0.00    +0.255 C 
BRANCH  28   3
ATOM      3  O   UNL     1      24.916   2.072  22.659  0.00  0.00    -0.374 OA
ATOM     29  C   UNL     1      25.325   1.762  21.330  0.00  0.00    +0.194 C 
ENDBRANCH  28   3
ENDBRANCH  27  28
ENDBRANCH  26   9
ENDBRANCH  21  22
BRANCH  19  11
ATOM      4  N   UNL     1      14.442   8.529  20.448  0.00  0.00    -0.288 NA
ATOM     11  C   UNL     1      15.836   9.009  20.518  0.00  0.00    +0.146 C 
ATOM     12  C   UNL     1      13.641   9.473  21.228  0.00  0.00    +0.085 C 
ATOM     15  C   UNL     1      15.925   9.759  21.860  0.00  0.00    +0.030 C 
ATOM     16  C   UNL     1      14.519   9.702  22.441  0.00  0.00    +0.017 C 
BRANCH   4  10
ATOM      5  N   UNL     1      12.340   9.421  16.863  0.00  0.00    -0.305 NA
ATOM     10  C   UNL     1      13.948   8.391  19.080  0.00  0.00    +0.060 C 
ATOM     13  C   UNL     1      14.396   9.583  18.231  0.00  0.00    +0.034 C 
ATOM     14  C   UNL     1      12.421   8.277  19.056  0.00  0.00    +0.034 C 
ATOM     17  C   UNL     1      13.806   9.505  16.820  0.00  0.00    +0.085 C 
ATOM     18  C   UNL     1      11.895   8.242  17.619  0.00  0.00    +0.085 C 
ATOM     20  C   UNL     1      11.789   9.399  15.508  0.00  0.00    +0.104 C 
ENDBRANCH   4  10
ENDBRANCH  19  11
TORSDOF 6
ENDMDL
MODEL 10
REMARK VINA RESULT:      -6.1     26.563     31.229
REMARK  Name = 45783634
REMARK  8 active torsions:
REMARK  status: ('A' for Active; 'I' for Inactive)
REMARK    1  A    between atoms: O_3  and  C_28
REMARK    2  A    between atoms: O_3  and  C_29
REMARK    3  A    between atoms: N_4  and  C_10
REMARK    4  A    between atoms: N_5  and  C_20
REMARK    5  A    between atoms: N_9  and  C_26
REMARK    6  A    between atoms: C_11  and  C_19
REMARK    7  A    between atoms: C_21  and  C_22
REMARK    8  A    between atoms: C_27  and  C_28
REMARK                            x       y       z     vdW  Elec       q    Type
REMARK                         _______ _______ _______ _____ _____    ______ ____
ROOT
ATOM      1  O   UNL     1      -5.278  -9.573  15.898  0.00  0.00    -0.336 OA
ATOM      6  N   UNL     1      -5.577 -11.450  17.082  0.00  0.00    -0.190 NA
ATOM      7  N   UNL     1      -6.485  -9.409  16.590  0.00  0.00    -0.056 NA
ATOM     19  C   UNL     1      -4.810 -10.801  16.245  0.00  0.00    +0.245 A 
ATOM     21  C   UNL     1      -6.592 -10.557  17.265  0.00  0.00    +0.204 A 
ENDROOT
BRANCH  21  22
ATOM      8  N   UNL     1      -8.585 -12.069  20.018  0.00  0.00    -0.239 NA
ATOM     22  C   UNL     1      -7.701 -10.844  18.130  0.00  0.00    +0.041 A 
ATOM     23  C   UNL     1      -8.930 -10.219  17.951  0.00  0.00    +0.016 A 
ATOM     24  C   UNL     1      -7.581 -11.753  19.168  0.00  0.00    +0.124 A 
ATOM     25  C   UNL     1      -9.986 -10.518  18.804  0.00  0.00    +0.044 A 
ATOM     26  C   UNL     1      -9.764 -11.441  19.812  0.00  0.00    +0.125 A 
BRANCH  26   9
ATOM      2  O   UNL     1     -11.853 -13.601  19.649  0.00  0.00    -0.273 OA
ATOM      9  N   UNL     1     -10.834 -11.736  20.666  0.00  0.00    -0.268 N 
ATOM     27  C   UNL     1     -11.780 -12.758  20.539  0.00  0.00    +0.244 C 
ATOM     30  H   UNL     1     -10.914 -11.117  21.469  0.00  0.00    +0.156 HD
BRANCH  27  28
ATOM     28  C   UNL     1     -12.789 -12.742  21.666  0.00  0.00    +0.255 C 
BRANCH  28   3
ATOM      3  O   UNL     1     -12.904 -14.049  22.193  0.00  0.00    -0.374 OA
ATOM     29  C   UNL     1     -12.038 -14.251  23.305  0.00  0.00    +0.194 C 
ENDBRANCH  28   3
ENDBRANCH  27  28
ENDBRANCH  26   9
ENDBRANCH  21  22
BRANCH  19  11
ATOM      4  N   UNL     1      -3.245 -10.562  14.325  0.00  0.00    -0.288 NA
ATOM     11  C   UNL     1      -3.496 -11.222  15.622  0.00  0.00    +0.146 C 
ATOM     12  C   UNL     1      -1.792 -10.461  14.188  0.00  0.00    +0.085 C 
ATOM     15  C   UNL     1      -2.280 -10.852  16.491  0.00  0.00    +0.030 C 
ATOM     16  C   UNL     1      -1.374 -10.036  15.580  0.00  0.00    +0.017 C 
BRANCH   4  10
ATOM      5  N   UNL     1      -3.966 -11.787  10.320  0.00  0.00    -0.305 NA
ATOM     10  C   UNL     1      -3.857 -11.258  13.196  0.00  0.00    +0.060 C 
ATOM     13  C   UNL     1      -2.819 -12.132  12.486  0.00  0.00    +0.034 C 
ATOM     14  C   UNL     1      -4.468 -10.263  12.204  0.00  0.00    +0.034 C 
ATOM     17  C   UNL     1      -3.417 -12.792  11.241  0.00  0.00    +0.085 C 
ATOM     18  C   UNL     1      -5.011 -10.985  10.968  0.00  0.00    +0.085 C 
ATOM     20  C   UNL     1      -4.486 -12.429   9.113  0.00  0.00    +0.104 C 
ENDBRANCH   4  10
ENDBRANCH  19  11
TORSDOF 6
ENDMDL
