MODEL 1
REMARK VINA RESULT:      -7.6      0.000      0.000
REMARK  Name = 11884453
REMARK  7 active torsions:
REMARK  status: ('A' for Active; 'I' for Inactive)
REMARK    1  A    between atoms: S_1  and  N_10
REMARK    2  A    between atoms: S_1  and  C_24
REMARK    3  A    between atoms: O_9  and  C_37
REMARK    4  A    between atoms: O_9  and  C_38
REMARK    5  A    between atoms: N_12  and  C_22
REMARK    6  A    between atoms: C_27  and  C_31
REMARK    7  A    between atoms: C_30  and  C_32
REMARK                            x       y       z     vdW  Elec       q    Type
REMARK                         _______ _______ _______ _____ _____    ______ ____
ROOT
ATOM      7  O   UNL     1      -7.639  -8.792  17.094  0.00  0.00    -0.266 OA
ATOM     10  N   UNL     1      -3.858 -11.831  15.951  0.00  0.00    -0.176 NA
ATOM     11  N   UNL     1      -6.674 -10.921  17.064  0.00  0.00    -0.310 N 
ATOM     13  C   UNL     1      -4.524 -11.488  18.333  0.00  0.00    +0.025 C 
ATOM     14  C   UNL     1      -5.641 -13.217  16.993  0.00  0.00    +0.052 C 
ATOM     15  C   UNL     1      -5.093 -12.899  18.382  0.00  0.00    +0.017 C 
ATOM     16  C   UNL     1      -3.390 -11.398  17.299  0.00  0.00    +0.114 C 
ATOM     17  C   UNL     1      -4.493 -13.182  15.967  0.00  0.00    +0.119 C 
ATOM     18  C   UNL     1      -5.661 -10.501  18.041  0.00  0.00    +0.130 C 
ATOM     19  C   UNL     1      -6.732 -12.238  16.600  0.00  0.00    +0.026 A 
ATOM     20  C   UNL     1      -7.734 -12.629  15.795  0.00  0.00    +0.024 A 
ATOM     21  C   UNL     1      -7.639  -9.959  16.698  0.00  0.00    +0.273 A 
ATOM     22  C   UNL     1      -8.725 -10.427  15.781  0.00  0.00    +0.099 A 
ATOM     23  C   UNL     1      -8.749 -11.702  15.377  0.00  0.00    +0.030 A 
ENDROOT
BRANCH  22  12
ATOM      8  O   UNL     1     -11.151  -9.834  17.163  0.00  0.00    -0.270 OA
ATOM     12  N   UNL     1      -9.670  -9.524  15.395  0.00  0.00    -0.277 N 
ATOM     30  C   UNL     1     -10.834  -9.280  16.113  0.00  0.00    +0.248 C 
ATOM     39  H   UNL     1      -9.546  -9.140  14.464  0.00  0.00    +0.155 HD
BRANCH  30  32
ATOM     32  C   UNL     1     -11.734  -8.241  15.547  0.00  0.00    +0.037 A 
ATOM     33  C   UNL     1     -11.420  -6.912  15.740  0.00  0.00    +0.016 A 
ATOM     34  C   UNL     1     -12.855  -8.640  14.849  0.00  0.00    +0.016 A 
ATOM     35  C   UNL     1     -12.265  -5.938  15.211  0.00  0.00    +0.046 A 
ATOM     36  C   UNL     1     -13.700  -7.665  14.319  0.00  0.00    +0.046 A 
ATOM     37  C   UNL     1     -13.406  -6.314  14.500  0.00  0.00    +0.120 A 
BRANCH  37   9
ATOM      9  O   UNL     1     -14.230  -5.363  13.982  0.00  0.00    -0.495 OA
ATOM     38  C   UNL     1     -13.621  -4.317  13.226  0.00  0.00    +0.277 C 
ENDBRANCH  37   9
ENDBRANCH  30  32
ENDBRANCH  22  12
BRANCH  10   1
ATOM      1  S   UNL     1      -2.773 -11.538  14.661  0.00  0.00    +0.061 S 
ATOM      5  O   UNL     1      -2.400 -12.801  14.060  0.00  0.00    -0.153 OA
ATOM      6  O   UNL     1      -1.765 -10.595  15.099  0.00  0.00    -0.153 OA
BRANCH   1  24
ATOM     24  C   UNL     1      -3.846 -10.702  13.536  0.00  0.00    +0.106 A 
ATOM     25  C   UNL     1      -3.384 -10.378  12.271  0.00  0.00    +0.041 A 
ATOM     26  C   UNL     1      -5.133 -10.383  13.938  0.00  0.00    +0.028 A 
ATOM     27  C   UNL     1      -4.232  -9.717  11.383  0.00  0.00    +0.057 A 
ATOM     28  C   UNL     1      -5.980  -9.721  13.050  0.00  0.00    +0.002 A 
ATOM     29  C   UNL     1      -5.531  -9.388  11.773  0.00  0.00    +0.012 A 
BRANCH  27  31
ATOM      2  F   UNL     1      -2.439  -8.984   9.981  0.00  0.00    -0.166 F 
ATOM      3  F   UNL     1      -3.853 -10.383   9.117  0.00  0.00    -0.166 F 
ATOM      4  F   UNL     1      -4.446  -8.322   9.470  0.00  0.00    -0.166 F 
ATOM     31  C   UNL     1      -3.751  -9.360  10.017  0.00  0.00    +0.417 C 
ENDBRANCH  27  31
ENDBRANCH   1  24
ENDBRANCH  10   1
TORSDOF 6
ENDMDL
MODEL 2
REMARK VINA RESULT:      -7.1     18.777     20.828
REMARK  Name = 11884453
REMARK  7 active torsions:
REMARK  status: ('A' for Active; 'I' for Inactive)
REMARK    1  A    between atoms: S_1  and  N_10
REMARK    2  A    between atoms: S_1  and  C_24
REMARK    3  A    between atoms: O_9  and  C_37
REMARK    4  A    between atoms: O_9  and  C_38
REMARK    5  A    between atoms: N_12  and  C_22
REMARK    6  A    between atoms: C_27  and  C_31
REMARK    7  A    between atoms: C_30  and  C_32
REMARK                            x       y       z     vdW  Elec       q    Type
REMARK                         _______ _______ _______ _____ _____    ______ ____
ROOT
ATOM      7  O   UNL     1     -15.379   3.658  24.095  0.00  0.00    -0.266 OA
ATOM     10  N   UNL     1     -16.177   7.709  21.305  0.00  0.00    -0.176 NA
ATOM     11  N   UNL     1     -16.836   5.134  23.018  0.00  0.00    -0.310 N 
ATOM     13  C   UNL     1     -16.861   5.453  20.478  0.00  0.00    +0.025 C 
ATOM     14  C   UNL     1     -18.399   6.753  21.885  0.00  0.00    +0.052 C 
ATOM     15  C   UNL     1     -18.325   5.819  20.680  0.00  0.00    +0.017 C 
ATOM     16  C   UNL     1     -16.023   6.713  20.205  0.00  0.00    +0.114 C 
ATOM     17  C   UNL     1     -17.605   8.039  21.588  0.00  0.00    +0.119 C 
ATOM     18  C   UNL     1     -16.367   4.677  21.704  0.00  0.00    +0.130 C 
ATOM     19  C   UNL     1     -17.862   6.077  23.133  0.00  0.00    +0.026 A 
ATOM     20  C   UNL     1     -18.354   6.397  24.342  0.00  0.00    +0.024 A 
ATOM     21  C   UNL     1     -16.273   4.505  24.147  0.00  0.00    +0.273 A 
ATOM     22  C   UNL     1     -16.832   4.906  25.477  0.00  0.00    +0.099 A 
ATOM     23  C   UNL     1     -17.825   5.800  25.536  0.00  0.00    +0.030 A 
ENDROOT
BRANCH  22  12
ATOM      8  O   UNL     1     -17.672   2.447  26.656  0.00  0.00    -0.270 OA
ATOM     12  N   UNL     1     -16.305   4.328  26.594  0.00  0.00    -0.277 N 
ATOM     30  C   UNL     1     -16.760   3.126  27.120  0.00  0.00    +0.248 C 
ATOM     39  H   UNL     1     -15.652   4.906  27.111  0.00  0.00    +0.155 HD
BRANCH  30  32
ATOM     32  C   UNL     1     -16.045   2.642  28.330  0.00  0.00    +0.037 A 
ATOM     33  C   UNL     1     -15.332   3.546  29.088  0.00  0.00    +0.016 A 
ATOM     34  C   UNL     1     -16.118   1.303  28.654  0.00  0.00    +0.016 A 
ATOM     35  C   UNL     1     -14.661   3.092  30.222  0.00  0.00    +0.046 A 
ATOM     36  C   UNL     1     -15.446   0.848  29.789  0.00  0.00    +0.046 A 
ATOM     37  C   UNL     1     -14.717   1.742  30.573  0.00  0.00    +0.120 A 
BRANCH  37   9
ATOM      9  O   UNL     1     -14.064   1.299  31.681  0.00  0.00    -0.495 OA
ATOM     38  C   UNL     1     -14.582   1.703  32.947  0.00  0.00    +0.277 C 
ENDBRANCH  37   9
ENDBRANCH  30  32
ENDBRANCH  22  12
BRANCH  10   1
ATOM      1  S   UNL     1     -15.105   9.041  21.252  0.00  0.00    +0.061 S 
ATOM      5  O   UNL     1     -14.802   9.459  22.604  0.00  0.00    -0.153 OA
ATOM      6  O   UNL     1     -15.582   9.990  20.268  0.00  0.00    -0.153 OA
BRANCH   1  24
ATOM     24  C   UNL     1     -13.667   8.255  20.596  0.00  0.00    +0.106 A 
ATOM     25  C   UNL     1     -13.222   8.602  19.331  0.00  0.00    +0.041 A 
ATOM     26  C   UNL     1     -13.007   7.304  21.358  0.00  0.00    +0.028 A 
ATOM     27  C   UNL     1     -12.085   7.981  18.812  0.00  0.00    +0.057 A 
ATOM     28  C   UNL     1     -11.872   6.683  20.839  0.00  0.00    +0.002 A 
ATOM     29  C   UNL     1     -11.411   7.021  19.567  0.00  0.00    +0.012 A 
BRANCH  27  31
ATOM      2  F   UNL     1     -12.491   8.080  16.458  0.00  0.00    -0.166 F 
ATOM      3  F   UNL     1     -11.286   9.666  17.315  0.00  0.00    -0.166 F 
ATOM      4  F   UNL     1     -10.457   7.667  17.109  0.00  0.00    -0.166 F 
ATOM     31  C   UNL     1     -11.592   8.342  17.452  0.00  0.00    +0.417 C 
ENDBRANCH  27  31
ENDBRANCH   1  24
ENDBRANCH  10   1
TORSDOF 6
ENDMDL
MODEL 3
REMARK VINA RESULT:      -7.1      3.770      8.777
REMARK  Name = 11884453
REMARK  7 active torsions:
REMARK  status: ('A' for Active; 'I' for Inactive)
REMARK    1  A    between atoms: S_1  and  N_10
REMARK    2  A    between atoms: S_1  and  C_24
REMARK    3  A    between atoms: O_9  and  C_37
REMARK    4  A    between atoms: O_9  and  C_38
REMARK    5  A    between atoms: N_12  and  C_22
REMARK    6  A    between atoms: C_27  and  C_31
REMARK    7  A    between atoms: C_30  and  C_32
REMARK                            x       y       z     vdW  Elec       q    Type
REMARK                         _______ _______ _______ _____ _____    ______ ____
ROOT
ATOM      7  O   UNL     1     -10.982  -9.634  14.305  0.00  0.00    -0.266 OA
ATOM     10  N   UNL     1     -13.278  -6.110  11.631  0.00  0.00    -0.176 NA
ATOM     11  N   UNL     1     -12.396  -7.777  14.169  0.00  0.00    -0.310 N 
ATOM     13  C   UNL     1     -14.610  -7.810  12.885  0.00  0.00    +0.025 C 
ATOM     14  C   UNL     1     -13.888  -5.753  14.016  0.00  0.00    +0.052 C 
ATOM     15  C   UNL     1     -15.042  -6.743  13.882  0.00  0.00    +0.017 C 
ATOM     16  C   UNL     1     -14.310  -7.180  11.515  0.00  0.00    +0.114 C 
ATOM     17  C   UNL     1     -13.626  -5.081  12.656  0.00  0.00    +0.119 C 
ATOM     18  C   UNL     1     -13.406  -8.569  13.455  0.00  0.00    +0.130 C 
ATOM     19  C   UNL     1     -12.632  -6.443  14.515  0.00  0.00    +0.026 A 
ATOM     20  C   UNL     1     -11.743  -5.772  15.267  0.00  0.00    +0.024 A 
ATOM     21  C   UNL     1     -11.227  -8.456  14.572  0.00  0.00    +0.273 A 
ATOM     22  C   UNL     1     -10.250  -7.666  15.387  0.00  0.00    +0.099 A 
ATOM     23  C   UNL     1     -10.528  -6.398  15.708  0.00  0.00    +0.030 A 
ENDROOT
BRANCH  22  12
ATOM      8  O   UNL     1      -9.831  -8.994  17.878  0.00  0.00    -0.270 OA
ATOM     12  N   UNL     1      -9.102  -8.283  15.785  0.00  0.00    -0.277 N 
ATOM     30  C   UNL     1      -8.960  -8.914  17.015  0.00  0.00    +0.248 C 
ATOM     39  H   UNL     1      -8.299  -8.127  15.187  0.00  0.00    +0.155 HD
BRANCH  30  32
ATOM     32  C   UNL     1      -7.641  -9.552  17.262  0.00  0.00    +0.037 A 
ATOM     33  C   UNL     1      -6.659  -9.447  16.298  0.00  0.00    +0.016 A 
ATOM     34  C   UNL     1      -7.441 -10.231  18.446  0.00  0.00    +0.016 A 
ATOM     35  C   UNL     1      -5.423 -10.048  16.529  0.00  0.00    +0.046 A 
ATOM     36  C   UNL     1      -6.203 -10.831  18.677  0.00  0.00    +0.046 A 
ATOM     37  C   UNL     1      -5.194 -10.740  17.719  0.00  0.00    +0.120 A 
BRANCH  37   9
ATOM      9  O   UNL     1      -3.986 -11.324  17.945  0.00  0.00    -0.495 OA
ATOM     38  C   UNL     1      -3.837 -12.059  19.159  0.00  0.00    +0.277 C 
ENDBRANCH  37   9
ENDBRANCH  30  32
ENDBRANCH  22  12
BRANCH  10   1
ATOM      1  S   UNL     1     -12.669  -5.506  10.152  0.00  0.00    +0.061 S 
ATOM      5  O   UNL     1     -12.076  -4.205  10.378  0.00  0.00    -0.153 OA
ATOM      6  O   UNL     1     -13.664  -5.701   9.118  0.00  0.00    -0.153 OA
BRANCH   1  24
ATOM     24  C   UNL     1     -11.357  -6.652   9.865  0.00  0.00    +0.106 A 
ATOM     25  C   UNL     1     -10.274  -6.265   9.092  0.00  0.00    +0.041 A 
ATOM     26  C   UNL     1     -11.432  -7.920  10.418  0.00  0.00    +0.028 A 
ATOM     27  C   UNL     1      -9.238  -7.171   8.865  0.00  0.00    +0.057 A 
ATOM     28  C   UNL     1     -10.396  -8.826  10.191  0.00  0.00    +0.002 A 
ATOM     29  C   UNL     1      -9.300  -8.452   9.415  0.00  0.00    +0.012 A 
BRANCH  27  31
ATOM      2  F   UNL     1      -8.303  -6.825   6.691  0.00  0.00    -0.166 F 
ATOM      3  F   UNL     1      -7.639  -5.495   8.270  0.00  0.00    -0.166 F 
ATOM      4  F   UNL     1      -6.977  -7.566   8.248  0.00  0.00    -0.166 F 
ATOM     31  C   UNL     1      -8.065  -6.771   8.035  0.00  0.00    +0.417 C 
ENDBRANCH  27  31
ENDBRANCH   1  24
ENDBRANCH  10   1
TORSDOF 6
ENDMDL
MODEL 4
REMARK VINA RESULT:      -7.0     18.356     21.186
REMARK  Name = 11884453
REMARK  7 active torsions:
REMARK  status: ('A' for Active; 'I' for Inactive)
REMARK    1  A    between atoms: S_1  and  N_10
REMARK    2  A    between atoms: S_1  and  C_24
REMARK    3  A    between atoms: O_9  and  C_37
REMARK    4  A    between atoms: O_9  and  C_38
REMARK    5  A    between atoms: N_12  and  C_22
REMARK    6  A    between atoms: C_27  and  C_31
REMARK    7  A    between atoms: C_30  and  C_32
REMARK                            x       y       z     vdW  Elec       q    Type
REMARK                         _______ _______ _______ _____ _____    ______ ____
ROOT
ATOM      7  O   UNL     1     -12.811  11.147  20.268  0.00  0.00    -0.266 OA
ATOM     10  N   UNL     1     -11.583  12.746  15.711  0.00  0.00    -0.176 NA
ATOM     11  N   UNL     1     -11.198  11.729  18.679  0.00  0.00    -0.310 N 
ATOM     13  C   UNL     1     -10.981  14.095  17.725  0.00  0.00    +0.025 C 
ATOM     14  C   UNL     1      -9.467  12.324  16.948  0.00  0.00    +0.052 C 
ATOM     15  C   UNL     1      -9.515  13.732  17.535  0.00  0.00    +0.017 C 
ATOM     16  C   UNL     1     -11.722  14.073  16.378  0.00  0.00    +0.114 C 
ATOM     17  C   UNL     1     -10.160  12.316  15.573  0.00  0.00    +0.119 C 
ATOM     18  C   UNL     1     -11.604  13.139  18.749  0.00  0.00    +0.130 C 
ATOM     19  C   UNL     1     -10.127  11.322  17.878  0.00  0.00    +0.026 A 
ATOM     20  C   UNL     1      -9.700  10.049  17.915  0.00  0.00    +0.024 A 
ATOM     21  C   UNL     1     -11.874  10.832  19.532  0.00  0.00    +0.273 A 
ATOM     22  C   UNL     1     -11.383   9.417  19.527  0.00  0.00    +0.099 A 
ATOM     23  C   UNL     1     -10.344   9.079  18.756  0.00  0.00    +0.030 A 
ENDROOT
BRANCH  22  12
ATOM      8  O   UNL     1     -13.580   7.754  18.782  0.00  0.00    -0.270 OA
ATOM     12  N   UNL     1     -12.018   8.517  20.329  0.00  0.00    -0.277 N 
ATOM     30  C   UNL     1     -13.086   7.735  19.907  0.00  0.00    +0.248 C 
ATOM     39  H   UNL     1     -11.761   8.556  21.309  0.00  0.00    +0.155 HD
BRANCH  30  32
ATOM     32  C   UNL     1     -13.634   6.793  20.918  0.00  0.00    +0.037 A 
ATOM     33  C   UNL     1     -12.761   5.979  21.611  0.00  0.00    +0.016 A 
ATOM     34  C   UNL     1     -14.996   6.762  21.129  0.00  0.00    +0.016 A 
ATOM     35  C   UNL     1     -13.275   5.094  22.558  0.00  0.00    +0.046 A 
ATOM     36  C   UNL     1     -15.510   5.877  22.077  0.00  0.00    +0.046 A 
ATOM     37  C   UNL     1     -14.650   5.043  22.792  0.00  0.00    +0.120 A 
BRANCH  37   9
ATOM      9  O   UNL     1     -15.152   4.181  23.717  0.00  0.00    -0.495 OA
ATOM     38  C   UNL     1     -16.330   3.459  23.362  0.00  0.00    +0.277 C 
ENDBRANCH  37   9
ENDBRANCH  30  32
ENDBRANCH  22  12
BRANCH  10   1
ATOM      1  S   UNL     1     -12.566  12.505  14.332  0.00  0.00    +0.061 S 
ATOM      5  O   UNL     1     -11.783  12.756  13.141  0.00  0.00    -0.153 OA
ATOM      6  O   UNL     1     -13.839  13.164  14.540  0.00  0.00    -0.153 OA
BRANCH   1  24
ATOM     24  C   UNL     1     -12.833  10.763  14.443  0.00  0.00    +0.106 A 
ATOM     25  C   UNL     1     -11.843   9.896  14.010  0.00  0.00    +0.041 A 
ATOM     26  C   UNL     1     -14.029  10.292  14.960  0.00  0.00    +0.028 A 
ATOM     27  C   UNL     1     -12.054   8.520  14.098  0.00  0.00    +0.057 A 
ATOM     28  C   UNL     1     -14.240   8.917  15.047  0.00  0.00    +0.002 A 
ATOM     29  C   UNL     1     -13.253   8.031  14.616  0.00  0.00    +0.012 A 
BRANCH  27  31
ATOM      2  F   UNL     1     -10.095   7.247  14.607  0.00  0.00    -0.166 F 
ATOM      3  F   UNL     1     -11.492   6.377  13.196  0.00  0.00    -0.166 F 
ATOM      4  F   UNL     1     -10.263   8.070  12.601  0.00  0.00    -0.166 F 
ATOM     31  C   UNL     1     -10.999   7.572  13.637  0.00  0.00    +0.417 C 
ENDBRANCH  27  31
ENDBRANCH   1  24
ENDBRANCH  10   1
TORSDOF 6
ENDMDL
MODEL 5
REMARK VINA RESULT:      -7.0      4.587      7.062
REMARK  Name = 11884453
REMARK  7 active torsions:
REMARK  status: ('A' for Active; 'I' for Inactive)
REMARK    1  A    between atoms: S_1  and  N_10
REMARK    2  A    between atoms: S_1  and  C_24
REMARK    3  A    between atoms: O_9  and  C_37
REMARK    4  A    between atoms: O_9  and  C_38
REMARK    5  A    between atoms: N_12  and  C_22
REMARK    6  A    between atoms: C_27  and  C_31
REMARK    7  A    between atoms: C_30  and  C_32
REMARK                            x       y       z     vdW  Elec       q    Type
REMARK                         _______ _______ _______ _____ _____    ______ ____
ROOT
ATOM      7  O   UNL     1      -5.387 -12.366  10.371  0.00  0.00    -0.266 OA
ATOM     10  N   UNL     1      -3.493 -12.113  14.973  0.00  0.00    -0.176 NA
ATOM     11  N   UNL     1      -3.554 -12.229  11.814  0.00  0.00    -0.310 N 
ATOM     13  C   UNL     1      -2.977 -14.065  13.502  0.00  0.00    +0.025 C 
ATOM     14  C   UNL     1      -1.586 -12.044  13.377  0.00  0.00    +0.052 C 
ATOM     15  C   UNL     1      -1.546 -13.570  13.339  0.00  0.00    +0.017 C 
ATOM     16  C   UNL     1      -3.560 -13.598  14.846  0.00  0.00    +0.114 C 
ATOM     17  C   UNL     1      -2.118 -11.577  14.744  0.00  0.00    +0.119 C 
ATOM     18  C   UNL     1      -3.810 -13.589  12.306  0.00  0.00    +0.130 C 
ATOM     19  C   UNL     1      -2.450 -11.494  12.257  0.00  0.00    +0.026 A 
ATOM     20  C   UNL     1      -2.170 -10.298  11.710  0.00  0.00    +0.024 A 
ATOM     21  C   UNL     1      -4.413 -11.748  10.805  0.00  0.00    +0.273 A 
ATOM     22  C   UNL     1      -4.082 -10.402  10.238  0.00  0.00    +0.099 A 
ATOM     23  C   UNL     1      -3.005  -9.744  10.682  0.00  0.00    +0.030 A 
ENDROOT
BRANCH  22  12
ATOM      8  O   UNL     1      -6.333  -8.698  10.650  0.00  0.00    -0.270 OA
ATOM     12  N   UNL     1      -4.896  -9.898   9.269  0.00  0.00    -0.277 N 
ATOM     30  C   UNL     1      -5.980  -9.071   9.534  0.00  0.00    +0.248 C 
ATOM     39  H   UNL     1      -4.753 -10.283   8.342  0.00  0.00    +0.155 HD
BRANCH  30  32
ATOM     32  C   UNL     1      -6.737  -8.600   8.345  0.00  0.00    +0.037 A 
ATOM     33  C   UNL     1      -7.537  -7.483   8.465  0.00  0.00    +0.016 A 
ATOM     34  C   UNL     1      -6.617  -9.297   7.161  0.00  0.00    +0.016 A 
ATOM     35  C   UNL     1      -8.249  -7.042   7.350  0.00  0.00    +0.046 A 
ATOM     36  C   UNL     1      -7.329  -8.856   6.045  0.00  0.00    +0.046 A 
ATOM     37  C   UNL     1      -8.145  -7.728   6.139  0.00  0.00    +0.120 A 
BRANCH  37   9
ATOM      9  O   UNL     1      -8.838  -7.297   5.051  0.00  0.00    -0.495 OA
ATOM     38  C   UNL     1     -10.248  -7.136   5.200  0.00  0.00    +0.277 C 
ENDBRANCH  37   9
ENDBRANCH  30  32
ENDBRANCH  22  12
BRANCH  10   1
ATOM      1  S   UNL     1      -4.336 -11.445  16.302  0.00  0.00    +0.061 S 
ATOM      5  O   UNL     1      -3.607 -10.297  16.798  0.00  0.00    -0.153 OA
ATOM      6  O   UNL     1      -4.736 -12.515  17.192  0.00  0.00    -0.153 OA
BRANCH   1  24
ATOM     24  C   UNL     1      -5.783 -10.851  15.484  0.00  0.00    +0.106 A 
ATOM     25  C   UNL     1      -6.781 -10.241  16.227  0.00  0.00    +0.041 A 
ATOM     26  C   UNL     1      -5.898 -11.007  14.112  0.00  0.00    +0.028 A 
ATOM     27  C   UNL     1      -7.925  -9.772  15.580  0.00  0.00    +0.057 A 
ATOM     28  C   UNL     1      -7.042 -10.539  13.466  0.00  0.00    +0.002 A 
ATOM     29  C   UNL     1      -8.054  -9.922  14.199  0.00  0.00    +0.012 A 
BRANCH  27  31
ATOM      2  F   UNL     1      -9.733  -8.208  15.641  0.00  0.00    -0.166 F 
ATOM      3  F   UNL     1      -9.930  -9.987  16.866  0.00  0.00    -0.166 F 
ATOM      4  F   UNL     1      -8.531  -8.424  17.441  0.00  0.00    -0.166 F 
ATOM     31  C   UNL     1      -9.008  -9.112  16.364  0.00  0.00    +0.417 C 
ENDBRANCH  27  31
ENDBRANCH   1  24
ENDBRANCH  10   1
TORSDOF 6
ENDMDL
MODEL 6
REMARK VINA RESULT:      -6.9     21.780     24.827
REMARK  Name = 11884453
REMARK  7 active torsions:
REMARK  status: ('A' for Active; 'I' for Inactive)
REMARK    1  A    between atoms: S_1  and  N_10
REMARK    2  A    between atoms: S_1  and  C_24
REMARK    3  A    between atoms: O_9  and  C_37
REMARK    4  A    between atoms: O_9  and  C_38
REMARK    5  A    between atoms: N_12  and  C_22
REMARK    6  A    between atoms: C_27  and  C_31
REMARK    7  A    between atoms: C_30  and  C_32
REMARK                            x       y       z     vdW  Elec       q    Type
REMARK                         _______ _______ _______ _____ _____    ______ ____
ROOT
ATOM      7  O   UNL     1       8.971  -8.000  35.635  0.00  0.00    -0.266 OA
ATOM     10  N   UNL     1       5.593 -11.647  35.293  0.00  0.00    -0.176 NA
ATOM     11  N   UNL     1       6.769  -8.712  35.305  0.00  0.00    -0.310 N 
ATOM     13  C   UNL     1       5.423  -9.937  37.105  0.00  0.00    +0.025 C 
ATOM     14  C   UNL     1       4.406  -9.493  34.914  0.00  0.00    +0.052 C 
ATOM     15  C   UNL     1       4.212  -9.322  36.418  0.00  0.00    +0.017 C 
ATOM     16  C   UNL     1       5.534 -11.433  36.767  0.00  0.00    +0.114 C 
ATOM     17  C   UNL     1       4.461 -10.993  34.570  0.00  0.00    +0.119 C 
ATOM     18  C   UNL     1       6.677  -9.152  36.703  0.00  0.00    +0.130 C 
ATOM     19  C   UNL     1       5.671  -8.797  34.445  0.00  0.00    +0.026 A 
ATOM     20  C   UNL     1       5.742  -8.285  33.204  0.00  0.00    +0.024 A 
ATOM     21  C   UNL     1       7.982  -8.112  34.908  0.00  0.00    +0.273 A 
ATOM     22  C   UNL     1       8.029  -7.575  33.511  0.00  0.00    +0.099 A 
ATOM     23  C   UNL     1       6.946  -7.664  32.731  0.00  0.00    +0.030 A 
ENDROOT
BRANCH  22  12
ATOM      8  O   UNL     1      10.272  -8.933  32.384  0.00  0.00    -0.270 OA
ATOM     12  N   UNL     1       9.188  -6.998  33.086  0.00  0.00    -0.277 N 
ATOM     30  C   UNL     1      10.247  -7.715  32.545  0.00  0.00    +0.248 C 
ATOM     39  H   UNL     1       9.295  -6.018  33.325  0.00  0.00    +0.155 HD
BRANCH  30  32
ATOM     32  C   UNL     1      11.419  -6.908  32.116  0.00  0.00    +0.037 A 
ATOM     33  C   UNL     1      11.788  -5.816  32.873  0.00  0.00    +0.016 A 
ATOM     34  C   UNL     1      12.100  -7.278  30.975  0.00  0.00    +0.016 A 
ATOM     35  C   UNL     1      12.886  -5.058  32.470  0.00  0.00    +0.046 A 
ATOM     36  C   UNL     1      13.199  -6.519  30.571  0.00  0.00    +0.046 A 
ATOM     37  C   UNL     1      13.593  -5.409  31.319  0.00  0.00    +0.120 A 
BRANCH  37   9
ATOM      9  O   UNL     1      14.666  -4.671  30.926  0.00  0.00    -0.495 OA
ATOM     38  C   UNL     1      15.068  -3.603  31.783  0.00  0.00    +0.277 C 
ENDBRANCH  37   9
ENDBRANCH  30  32
ENDBRANCH  22  12
BRANCH  10   1
ATOM      1  S   UNL     1       5.972 -13.237  34.790  0.00  0.00    +0.061 S 
ATOM      5  O   UNL     1       4.920 -14.134  35.217  0.00  0.00    -0.153 OA
ATOM      6  O   UNL     1       7.359 -13.512  35.104  0.00  0.00    -0.153 OA
BRANCH   1  24
ATOM     24  C   UNL     1       5.840 -13.048  33.039  0.00  0.00    +0.106 A 
ATOM     25  C   UNL     1       6.525 -12.018  32.415  0.00  0.00    +0.041 A 
ATOM     26  C   UNL     1       5.053 -13.932  32.320  0.00  0.00    +0.028 A 
ATOM     27  C   UNL     1       6.420 -11.869  31.031  0.00  0.00    +0.057 A 
ATOM     28  C   UNL     1       4.948 -13.782  30.937  0.00  0.00    +0.002 A 
ATOM     29  C   UNL     1       5.631 -12.751  30.293  0.00  0.00    +0.012 A 
BRANCH  27  31
ATOM      2  F   UNL     1       6.410  -9.627  30.197  0.00  0.00    -0.166 F 
ATOM      3  F   UNL     1       8.285 -10.371  30.994  0.00  0.00    -0.166 F 
ATOM      4  F   UNL     1       7.551 -11.107  29.084  0.00  0.00    -0.166 F 
ATOM     31  C   UNL     1       7.150 -10.766  30.343  0.00  0.00    +0.417 C 
ENDBRANCH  27  31
ENDBRANCH   1  24
ENDBRANCH  10   1
TORSDOF 6
ENDMDL
MODEL 7
REMARK VINA RESULT:      -6.9     20.277     22.954
REMARK  Name = 11884453
REMARK  7 active torsions:
REMARK  status: ('A' for Active; 'I' for Inactive)
REMARK    1  A    between atoms: S_1  and  N_10
REMARK    2  A    between atoms: S_1  and  C_24
REMARK    3  A    between atoms: O_9  and  C_37
REMARK    4  A    between atoms: O_9  and  C_38
REMARK    5  A    between atoms: N_12  and  C_22
REMARK    6  A    between atoms: C_27  and  C_31
REMARK    7  A    between atoms: C_30  and  C_32
REMARK                            x       y       z     vdW  Elec       q    Type
REMARK                         _______ _______ _______ _____ _____    ______ ____
ROOT
ATOM      7  O   UNL     1     -14.074   9.499  17.759  0.00  0.00    -0.266 OA
ATOM     10  N   UNL     1     -15.455   8.349  22.407  0.00  0.00    -0.176 NA
ATOM     11  N   UNL     1     -14.087   8.027  19.574  0.00  0.00    -0.310 N 
ATOM     13  C   UNL     1     -16.231   6.962  20.481  0.00  0.00    +0.025 C 
ATOM     14  C   UNL     1     -14.077   6.463  21.550  0.00  0.00    +0.052 C 
ATOM     15  C   UNL     1     -15.315   5.829  20.921  0.00  0.00    +0.017 C 
ATOM     16  C   UNL     1     -16.648   7.819  21.687  0.00  0.00    +0.114 C 
ATOM     17  C   UNL     1     -14.489   7.276  22.791  0.00  0.00    +0.119 C 
ATOM     18  C   UNL     1     -15.525   7.783  19.396  0.00  0.00    +0.130 C 
ATOM     19  C   UNL     1     -13.353   7.351  20.553  0.00  0.00    +0.026 A 
ATOM     20  C   UNL     1     -12.020   7.503  20.625  0.00  0.00    +0.024 A 
ATOM     21  C   UNL     1     -13.472   8.895  18.648  0.00  0.00    +0.273 A 
ATOM     22  C   UNL     1     -11.989   9.056  18.777  0.00  0.00    +0.099 A 
ATOM     23  C   UNL     1     -11.327   8.375  19.718  0.00  0.00    +0.030 A 
ENDROOT
BRANCH  22  12
ATOM      8  O   UNL     1     -11.547  11.850  19.156  0.00  0.00    -0.270 OA
ATOM     12  N   UNL     1     -11.359   9.896  17.907  0.00  0.00    -0.277 N 
ATOM     30  C   UNL     1     -11.175  11.251  18.150  0.00  0.00    +0.248 C 
ATOM     39  H   UNL     1     -11.159   9.501  16.995  0.00  0.00    +0.155 HD
BRANCH  30  32
ATOM     32  C   UNL     1     -10.444  12.001  17.095  0.00  0.00    +0.037 A 
ATOM     33  C   UNL     1      -9.247  12.606  17.417  0.00  0.00    +0.016 A 
ATOM     34  C   UNL     1     -10.987  12.068  15.829  0.00  0.00    +0.016 A 
ATOM     35  C   UNL     1      -8.562  13.310  16.428  0.00  0.00    +0.046 A 
ATOM     36  C   UNL     1     -10.302  12.773  14.839  0.00  0.00    +0.046 A 
ATOM     37  C   UNL     1      -9.089  13.394  15.138  0.00  0.00    +0.120 A 
BRANCH  37   9
ATOM      9  O   UNL     1      -8.420  14.080  14.172  0.00  0.00    -0.495 OA
ATOM     38  C   UNL     1      -6.995  14.079  14.243  0.00  0.00    +0.277 C 
ENDBRANCH  37   9
ENDBRANCH  30  32
ENDBRANCH  22  12
BRANCH  10   1
ATOM      1  S   UNL     1     -15.776   9.521  23.610  0.00  0.00    +0.061 S 
ATOM      5  O   UNL     1     -16.096   8.850  24.852  0.00  0.00    -0.153 OA
ATOM      6  O   UNL     1     -16.656  10.531  23.061  0.00  0.00    -0.153 OA
BRANCH   1  24
ATOM     24  C   UNL     1     -14.171  10.236  23.783  0.00  0.00    +0.106 A 
ATOM     25  C   UNL     1     -13.511  10.137  24.997  0.00  0.00    +0.041 A 
ATOM     26  C   UNL     1     -13.599  10.885  22.701  0.00  0.00    +0.028 A 
ATOM     27  C   UNL     1     -12.242  10.702  25.133  0.00  0.00    +0.057 A 
ATOM     28  C   UNL     1     -12.331  11.451  22.837  0.00  0.00    +0.002 A 
ATOM     29  C   UNL     1     -11.653  11.360  24.052  0.00  0.00    +0.012 A 
BRANCH  27  31
ATOM      2  F   UNL     1     -10.176  10.391  26.295  0.00  0.00    -0.166 F 
ATOM      3  F   UNL     1     -11.621  11.729  27.201  0.00  0.00    -0.166 F 
ATOM      4  F   UNL     1     -11.975   9.584  27.213  0.00  0.00    -0.166 F 
ATOM     31  C   UNL     1     -11.518  10.605  26.432  0.00  0.00    +0.417 C 
ENDBRANCH  27  31
ENDBRANCH   1  24
ENDBRANCH  10   1
TORSDOF 6
ENDMDL
MODEL 8
REMARK VINA RESULT:      -6.7     23.381     26.501
REMARK  Name = 11884453
REMARK  7 active torsions:
REMARK  status: ('A' for Active; 'I' for Inactive)
REMARK    1  A    between atoms: S_1  and  N_10
REMARK    2  A    between atoms: S_1  and  C_24
REMARK    3  A    between atoms: O_9  and  C_37
REMARK    4  A    between atoms: O_9  and  C_38
REMARK    5  A    between atoms: N_12  and  C_22
REMARK    6  A    between atoms: C_27  and  C_31
REMARK    7  A    between atoms: C_30  and  C_32
REMARK                            x       y       z     vdW  Elec       q    Type
REMARK                         _______ _______ _______ _____ _____    ______ ____
ROOT
ATOM      7  O   UNL     1     -14.807   8.043  31.301  0.00  0.00    -0.266 OA
ATOM     10  N   UNL     1     -12.165  12.094  32.502  0.00  0.00    -0.176 NA
ATOM     11  N   UNL     1     -14.190   9.690  32.841  0.00  0.00    -0.310 N 
ATOM     13  C   UNL     1     -14.661  12.179  32.473  0.00  0.00    +0.025 C 
ATOM     14  C   UNL     1     -13.491  11.447  34.505  0.00  0.00    +0.052 C 
ATOM     15  C   UNL     1     -14.681  12.255  33.994  0.00  0.00    +0.017 C 
ATOM     16  C   UNL     1     -13.357  12.776  31.919  0.00  0.00    +0.114 C 
ATOM     17  C   UNL     1     -12.183  12.079  33.995  0.00  0.00    +0.119 C 
ATOM     18  C   UNL     1     -14.866  10.722  32.044  0.00  0.00    +0.130 C 
ATOM     19  C   UNL     1     -13.586   9.998  34.063  0.00  0.00    +0.026 A 
ATOM     20  C   UNL     1     -13.073   9.021  34.830  0.00  0.00    +0.024 A 
ATOM     21  C   UNL     1     -14.271   8.365  32.362  0.00  0.00    +0.273 A 
ATOM     22  C   UNL     1     -13.666   7.309  33.234  0.00  0.00    +0.099 A 
ATOM     23  C   UNL     1     -13.114   7.650  34.403  0.00  0.00    +0.030 A 
ENDROOT
BRANCH  22  12
ATOM      8  O   UNL     1     -15.139   5.181  34.438  0.00  0.00    -0.270 OA
ATOM     12  N   UNL     1     -13.714   6.017  32.801  0.00  0.00    -0.277 N 
ATOM     30  C   UNL     1     -14.451   5.025  33.433  0.00  0.00    +0.248 C 
ATOM     39  H   UNL     1     -13.054   5.785  32.067  0.00  0.00    +0.155 HD
BRANCH  30  32
ATOM     32  C   UNL     1     -14.398   3.681  32.799  0.00  0.00    +0.037 A 
ATOM     33  C   UNL     1     -14.885   2.596  33.498  0.00  0.00    +0.016 A 
ATOM     34  C   UNL     1     -13.862   3.562  31.534  0.00  0.00    +0.016 A 
ATOM     35  C   UNL     1     -14.834   1.336  32.905  0.00  0.00    +0.046 A 
ATOM     36  C   UNL     1     -13.811   2.301  30.940  0.00  0.00    +0.046 A 
ATOM     37  C   UNL     1     -14.297   1.187  31.626  0.00  0.00    +0.120 A 
BRANCH  37   9
ATOM      9  O   UNL     1     -14.249  -0.043  31.045  0.00  0.00    -0.495 OA
ATOM     38  C   UNL     1     -13.792  -0.107  29.695  0.00  0.00    +0.277 C 
ENDBRANCH  37   9
ENDBRANCH  30  32
ENDBRANCH  22  12
BRANCH  10   1
ATOM      1  S   UNL     1     -10.663  12.485  31.783  0.00  0.00    +0.061 S 
ATOM      5  O   UNL     1      -9.760  11.364  31.930  0.00  0.00    -0.153 OA
ATOM      6  O   UNL     1     -10.273  13.815  32.202  0.00  0.00    -0.153 OA
BRANCH   1  24
ATOM     24  C   UNL     1     -11.145  12.570  30.087  0.00  0.00    +0.106 A 
ATOM     25  C   UNL     1     -11.074  11.430  29.303  0.00  0.00    +0.041 A 
ATOM     26  C   UNL     1     -11.585  13.777  29.567  0.00  0.00    +0.028 A 
ATOM     27  C   UNL     1     -11.455  11.498  27.962  0.00  0.00    +0.057 A 
ATOM     28  C   UNL     1     -11.965  13.844  28.227  0.00  0.00    +0.002 A 
ATOM     29  C   UNL     1     -11.900  12.706  27.425  0.00  0.00    +0.012 A 
BRANCH  27  31
ATOM      2  F   UNL     1     -10.985  10.535  25.824  0.00  0.00    -0.166 F 
ATOM      3  F   UNL     1     -10.514   9.335  27.567  0.00  0.00    -0.166 F 
ATOM      4  F   UNL     1     -12.588   9.646  26.994  0.00  0.00    -0.166 F 
ATOM     31  C   UNL     1     -11.385  10.280  27.105  0.00  0.00    +0.417 C 
ENDBRANCH  27  31
ENDBRANCH   1  24
ENDBRANCH  10   1
TORSDOF 6
ENDMDL
MODEL 9
REMARK VINA RESULT:      -6.7     18.145     19.801
REMARK  Name = 11884453
REMARK  7 active torsions:
REMARK  status: ('A' for Active; 'I' for Inactive)
REMARK    1  A    between atoms: S_1  and  N_10
REMARK    2  A    between atoms: S_1  and  C_24
REMARK    3  A    between atoms: O_9  and  C_37
REMARK    4  A    between atoms: O_9  and  C_38
REMARK    5  A    between atoms: N_12  and  C_22
REMARK    6  A    between atoms: C_27  and  C_31
REMARK    7  A    between atoms: C_30  and  C_32
REMARK                            x       y       z     vdW  Elec       q    Type
REMARK                         _______ _______ _______ _____ _____    ______ ____
ROOT
ATOM      7  O   UNL     1     -15.078   8.454  19.915  0.00  0.00    -0.266 OA
ATOM     10  N   UNL     1     -11.586   9.757  16.608  0.00  0.00    -0.176 NA
ATOM     11  N   UNL     1     -12.936   9.248  19.421  0.00  0.00    -0.310 N 
ATOM     13  C   UNL     1     -12.524  11.452  18.185  0.00  0.00    +0.025 C 
ATOM     14  C   UNL     1     -10.616  10.068  18.878  0.00  0.00    +0.052 C 
ATOM     15  C   UNL     1     -11.209  11.473  18.952  0.00  0.00    +0.017 C 
ATOM     16  C   UNL     1     -12.286  11.070  16.715  0.00  0.00    +0.114 C 
ATOM     17  C   UNL     1     -10.326   9.709  17.409  0.00  0.00    +0.119 C 
ATOM     18  C   UNL     1     -13.496  10.496  18.887  0.00  0.00    +0.130 C 
ATOM     19  C   UNL     1     -11.554   9.047  19.496  0.00  0.00    +0.026 A 
ATOM     20  C   UNL     1     -11.062   7.948  20.092  0.00  0.00    +0.024 A 
ATOM     21  C   UNL     1     -13.854   8.313  19.943  0.00  0.00    +0.273 A 
ATOM     22  C   UNL     1     -13.266   7.091  20.577  0.00  0.00    +0.099 A 
ATOM     23  C   UNL     1     -11.938   6.951  20.641  0.00  0.00    +0.030 A 
ENDROOT
BRANCH  22  12
ATOM      8  O   UNL     1     -14.467   7.136  23.166  0.00  0.00    -0.270 OA
ATOM     12  N   UNL     1     -14.122   6.158  21.083  0.00  0.00    -0.277 N 
ATOM     30  C   UNL     1     -14.674   6.237  22.355  0.00  0.00    +0.248 C 
ATOM     39  H   UNL     1     -14.219   5.316  20.527  0.00  0.00    +0.155 HD
BRANCH  30  32
ATOM     32  C   UNL     1     -15.604   5.137  22.722  0.00  0.00    +0.037 A 
ATOM     33  C   UNL     1     -16.750   4.957  21.975  0.00  0.00    +0.016 A 
ATOM     34  C   UNL     1     -15.293   4.332  23.798  0.00  0.00    +0.016 A 
ATOM     35  C   UNL     1     -17.624   3.927  22.320  0.00  0.00    +0.046 A 
ATOM     36  C   UNL     1     -16.167   3.301  24.143  0.00  0.00    +0.046 A 
ATOM     37  C   UNL     1     -17.333   3.098  23.404  0.00  0.00    +0.120 A 
BRANCH  37   9
ATOM      9  O   UNL     1     -18.184   2.092  23.740  0.00  0.00    -0.495 OA
ATOM     38  C   UNL     1     -17.905   1.379  24.944  0.00  0.00    +0.277 C 
ENDBRANCH  37   9
ENDBRANCH  30  32
ENDBRANCH  22  12
BRANCH  10   1
ATOM      1  S   UNL     1     -11.487   9.097  15.033  0.00  0.00    +0.061 S 
ATOM      5  O   UNL     1     -10.457   8.080  15.008  0.00  0.00    -0.153 OA
ATOM      6  O   UNL     1     -11.492  10.177  14.069  0.00  0.00    -0.153 OA
BRANCH   1  24
ATOM     24  C   UNL     1     -13.051   8.282  14.942  0.00  0.00    +0.106 A 
ATOM     25  C   UNL     1     -13.391   7.595  13.788  0.00  0.00    +0.041 A 
ATOM     26  C   UNL     1     -13.912   8.344  16.025  0.00  0.00    +0.028 A 
ATOM     27  C   UNL     1     -14.627   6.951  13.715  0.00  0.00    +0.057 A 
ATOM     28  C   UNL     1     -15.147   7.701  15.952  0.00  0.00    +0.002 A 
ATOM     29  C   UNL     1     -15.505   7.005  14.798  0.00  0.00    +0.012 A 
BRANCH  27  31
ATOM      2  F   UNL     1     -14.202   5.138  12.215  0.00  0.00    -0.166 F 
ATOM      3  F   UNL     1     -16.275   5.694  12.522  0.00  0.00    -0.166 F 
ATOM      4  F   UNL     1     -14.966   6.987  11.363  0.00  0.00    -0.166 F 
ATOM     31  C   UNL     1     -15.009   6.206  12.481  0.00  0.00    +0.417 C 
ENDBRANCH  27  31
ENDBRANCH   1  24
ENDBRANCH  10   1
TORSDOF 6
ENDMDL
MODEL 10
REMARK VINA RESULT:      -6.7     27.160     29.292
REMARK  Name = 11884453
REMARK  7 active torsions:
REMARK  status: ('A' for Active; 'I' for Inactive)
REMARK    1  A    between atoms: S_1  and  N_10
REMARK    2  A    between atoms: S_1  and  C_24
REMARK    3  A    between atoms: O_9  and  C_37
REMARK    4  A    between atoms: O_9  and  C_38
REMARK    5  A    between atoms: N_12  and  C_22
REMARK    6  A    between atoms: C_27  and  C_31
REMARK    7  A    between atoms: C_30  and  C_32
REMARK                            x       y       z     vdW  Elec       q    Type
REMARK                         _______ _______ _______ _____ _____    ______ ____
ROOT
ATOM      7  O   UNL     1      20.280  -5.271  28.779  0.00  0.00    -0.266 OA
ATOM     10  N   UNL     1      19.198  -7.166  24.299  0.00  0.00    -0.176 NA
ATOM     11  N   UNL     1      19.155  -6.823  27.442  0.00  0.00    -0.310 N 
ATOM     13  C   UNL     1      20.373  -8.559  26.007  0.00  0.00    +0.025 C 
ATOM     14  C   UNL     1      17.918  -8.469  25.988  0.00  0.00    +0.052 C 
ATOM     15  C   UNL     1      19.114  -9.394  26.199  0.00  0.00    +0.017 C 
ATOM     16  C   UNL     1      20.420  -7.971  24.587  0.00  0.00    +0.114 C 
ATOM     17  C   UNL     1      17.936  -7.925  24.548  0.00  0.00    +0.119 C 
ATOM     18  C   UNL     1      20.423  -7.475  27.091  0.00  0.00    +0.130 C 
ATOM     19  C   UNL     1      17.932  -7.324  26.986  0.00  0.00    +0.026 A 
ATOM     20  C   UNL     1      16.778  -6.782  27.411  0.00  0.00    +0.024 A 
ATOM     21  C   UNL     1      19.227  -5.736  28.338  0.00  0.00    +0.273 A 
ATOM     22  C   UNL     1      17.921  -5.145  28.768  0.00  0.00    +0.099 A 
ATOM     23  C   UNL     1      16.776  -5.670  28.318  0.00  0.00    +0.030 A 
ENDROOT
BRANCH  22  12
ATOM      8  O   UNL     1      17.904  -2.387  28.035  0.00  0.00    -0.270 OA
ATOM     12  N   UNL     1      17.950  -4.085  29.624  0.00  0.00    -0.277 N 
ATOM     30  C   UNL     1      17.940  -2.761  29.204  0.00  0.00    +0.248 C 
ATOM     39  H   UNL     1      18.130  -4.319  30.594  0.00  0.00    +0.155 HD
BRANCH  30  32
ATOM     32  C   UNL     1      17.951  -1.742  30.286  0.00  0.00    +0.037 A 
ATOM     33  C   UNL     1      19.095  -0.997  30.486  0.00  0.00    +0.016 A 
ATOM     34  C   UNL     1      16.819  -1.575  31.056  0.00  0.00    +0.016 A 
ATOM     35  C   UNL     1      19.107  -0.042  31.502  0.00  0.00    +0.046 A 
ATOM     36  C   UNL     1      16.831  -0.620  32.072  0.00  0.00    +0.046 A 
ATOM     37  C   UNL     1      17.975   0.147  32.295  0.00  0.00    +0.120 A 
BRANCH  37   9
ATOM      9  O   UNL     1      17.985   1.081  33.285  0.00  0.00    -0.495 OA
ATOM     38  C   UNL     1      16.723   1.590  33.712  0.00  0.00    +0.277 C 
ENDBRANCH  37   9
ENDBRANCH  30  32
ENDBRANCH  22  12
BRANCH  10   1
ATOM      1  S   UNL     1      19.239  -6.250  22.855  0.00  0.00    +0.061 S 
ATOM      5  O   UNL     1      18.016  -6.477  22.115  0.00  0.00    -0.153 OA
ATOM      6  O   UNL     1      20.533  -6.420  22.227  0.00  0.00    -0.153 OA
BRANCH   1  24
ATOM     24  C   UNL     1      19.170  -4.617  23.522  0.00  0.00    +0.106 A 
ATOM     25  C   UNL     1      18.150  -3.766  23.129  0.00  0.00    +0.041 A 
ATOM     26  C   UNL     1      20.138  -4.213  24.427  0.00  0.00    +0.028 A 
ATOM     27  C   UNL     1      18.095  -2.476  23.657  0.00  0.00    +0.057 A 
ATOM     28  C   UNL     1      20.084  -2.923  24.953  0.00  0.00    +0.002 A 
ATOM     29  C   UNL     1      19.064  -2.054  24.568  0.00  0.00    +0.012 A 
BRANCH  27  31
ATOM      2  F   UNL     1      17.191  -0.998  22.008  0.00  0.00    -0.166 F 
ATOM      3  F   UNL     1      15.774  -2.139  23.189  0.00  0.00    -0.166 F 
ATOM      4  F   UNL     1      16.864  -0.491  24.097  0.00  0.00    -0.166 F 
ATOM     31  C   UNL     1      17.004  -1.547  23.245  0.00  0.00    +0.417 C 
ENDBRANCH  27  31
ENDBRANCH   1  24
ENDBRANCH  10   1
TORSDOF 6
ENDMDL
