MODEL 1
REMARK VINA RESULT:      -6.1      0.000      0.000
REMARK  Name = 75536949
REMARK  5 active torsions:
REMARK  status: ('A' for Active; 'I' for Inactive)
REMARK    1  A    between atoms: O_5  and  C_9
REMARK    2  A    between atoms: O_6  and  C_19
REMARK    3  A    between atoms: O_6  and  C_20
REMARK    4  A    between atoms: N_7  and  C_11
REMARK    5  A    between atoms: C_11  and  C_14
REMARK                            x       y       z     vdW  Elec       q    Type
REMARK                         _______ _______ _______ _____ _____    ______ ____
ROOT
ATOM     14  C   UNL     1      16.136   7.446  19.682  0.00  0.00    -0.033 A 
ATOM     15  C   UNL     1      16.793   6.271  19.315  0.00  0.00    +0.008 A 
ATOM     16  C   UNL     1      16.639   8.231  20.719  0.00  0.00    +0.008 A 
ATOM     17  C   UNL     1      17.952   5.882  19.986  0.00  0.00    +0.046 A 
ATOM     18  C   UNL     1      17.798   7.843  21.390  0.00  0.00    +0.046 A 
ATOM     19  C   UNL     1      18.455   6.667  21.024  0.00  0.00    +0.130 A 
ENDROOT
BRANCH  19   6
ATOM      6  O   UNL     1      19.586   6.288  21.678  0.00  0.00    -0.406 OA
BRANCH   6  20
ATOM      1  F   UNL     1      20.931   5.184  20.194  0.00  0.00    -0.133 F 
ATOM      2  F   UNL     1      20.837   7.366  20.139  0.00  0.00    -0.133 F 
ATOM      3  F   UNL     1      21.868   6.383  21.796  0.00  0.00    -0.133 F 
ATOM     20  C   UNL     1      20.814   6.290  20.958  0.00  0.00    +0.575 C 
ENDBRANCH   6  20
ENDBRANCH  19   6
BRANCH  14  11
ATOM     11  C   UNL     1      14.886   7.867  18.958  0.00  0.00    +0.119 C 
BRANCH  11   7
ATOM      4  O   UNL     1      11.048   8.967  21.110  0.00  0.00    -0.376 OA
ATOM      7  N   UNL     1      13.757   8.040  19.874  0.00  0.00    -0.293 NA
ATOM      8  C   UNL     1      13.231   6.731  20.278  0.00  0.00    +0.118 C 
ATOM      9  C   UNL     1      11.831   6.685  20.909  0.00  0.00    +0.154 C 
ATOM     10  C   UNL     1      12.753   8.950  19.321  0.00  0.00    +0.113 C 
ATOM     12  C   UNL     1      11.526   7.845  21.846  0.00  0.00    +0.192 C 
ATOM     13  C   UNL     1      12.062   9.713  20.451  0.00  0.00    +0.175 C 
BRANCH   9   5
ATOM      5  O   UNL     1      11.721   5.473  21.658  0.00  0.00    -0.388 OA
ATOM     21  H   UNL     1      12.275   4.806  21.217  0.00  0.00    +0.210 HD
ENDBRANCH   9   5
ENDBRANCH  11   7
ENDBRANCH  14  11
TORSDOF 5
ENDMDL
MODEL 2
REMARK VINA RESULT:      -5.9      3.668      5.258
REMARK  Name = 75536949
REMARK  5 active torsions:
REMARK  status: ('A' for Active; 'I' for Inactive)
REMARK    1  A    between atoms: O_5  and  C_9
REMARK    2  A    between atoms: O_6  and  C_19
REMARK    3  A    between atoms: O_6  and  C_20
REMARK    4  A    between atoms: N_7  and  C_11
REMARK    5  A    between atoms: C_11  and  C_14
REMARK                            x       y       z     vdW  Elec       q    Type
REMARK                         _______ _______ _______ _____ _____    ______ ____
ROOT
ATOM     14  C   UNL     1      12.061   8.709  21.492  0.00  0.00    -0.033 A 
ATOM     15  C   UNL     1      13.341   8.884  22.017  0.00  0.00    +0.008 A 
ATOM     16  C   UNL     1      11.818   7.691  20.571  0.00  0.00    +0.008 A 
ATOM     17  C   UNL     1      14.379   8.042  21.619  0.00  0.00    +0.046 A 
ATOM     18  C   UNL     1      12.855   6.847  20.174  0.00  0.00    +0.046 A 
ATOM     19  C   UNL     1      14.136   7.022  20.698  0.00  0.00    +0.130 A 
ENDROOT
BRANCH  19   6
ATOM      6  O   UNL     1      15.148   6.199  20.311  0.00  0.00    -0.406 OA
BRANCH   6  20
ATOM      1  F   UNL     1      16.562   5.690  18.587  0.00  0.00    -0.133 F 
ATOM      2  F   UNL     1      15.472   7.583  18.556  0.00  0.00    -0.133 F 
ATOM      3  F   UNL     1      17.114   7.319  19.974  0.00  0.00    -0.133 F 
ATOM     20  C   UNL     1      16.089   6.689  19.362  0.00  0.00    +0.575 C 
ENDBRANCH   6  20
ENDBRANCH  19   6
BRANCH  14  11
ATOM     11  C   UNL     1      10.940   9.618  21.920  0.00  0.00    +0.119 C 
BRANCH  11   7
ATOM      4  O   UNL     1      12.241  13.773  23.191  0.00  0.00    -0.376 OA
ATOM      7  N   UNL     1      11.438  10.819  22.592  0.00  0.00    -0.293 NA
ATOM      8  C   UNL     1      10.792  10.971  23.901  0.00  0.00    +0.118 C 
ATOM      9  C   UNL     1      10.874  12.343  24.587  0.00  0.00    +0.154 C 
ATOM     10  C   UNL     1      11.337  11.997  21.729  0.00  0.00    +0.113 C 
ATOM     12  C   UNL     1      12.212  13.051  24.418  0.00  0.00    +0.192 C 
ATOM     13  C   UNL     1      12.474  12.972  22.041  0.00  0.00    +0.175 C 
BRANCH   9   5
ATOM      5  O   UNL     1      10.649  12.154  25.985  0.00  0.00    -0.388 OA
ATOM     21  H   UNL     1      10.612  11.196  26.148  0.00  0.00    +0.210 HD
ENDBRANCH   9   5
ENDBRANCH  11   7
ENDBRANCH  14  11
TORSDOF 5
ENDMDL
MODEL 3
REMARK VINA RESULT:      -5.8     16.269     17.840
REMARK  Name = 75536949
REMARK  5 active torsions:
REMARK  status: ('A' for Active; 'I' for Inactive)
REMARK    1  A    between atoms: O_5  and  C_9
REMARK    2  A    between atoms: O_6  and  C_19
REMARK    3  A    between atoms: O_6  and  C_20
REMARK    4  A    between atoms: N_7  and  C_11
REMARK    5  A    between atoms: C_11  and  C_14
REMARK                            x       y       z     vdW  Elec       q    Type
REMARK                         _______ _______ _______ _____ _____    ______ ____
ROOT
ATOM     14  C   UNL     1      10.829   6.448   4.215  0.00  0.00    -0.033 A 
ATOM     15  C   UNL     1      11.613   6.650   5.351  0.00  0.00    +0.008 A 
ATOM     16  C   UNL     1       9.487   6.093   4.347  0.00  0.00    +0.008 A 
ATOM     17  C   UNL     1      11.054   6.495   6.619  0.00  0.00    +0.046 A 
ATOM     18  C   UNL     1       8.927   5.940   5.616  0.00  0.00    +0.046 A 
ATOM     19  C   UNL     1       9.712   6.140   6.753  0.00  0.00    +0.130 A 
ENDROOT
BRANCH  19   6
ATOM      6  O   UNL     1       9.167   5.991   7.991  0.00  0.00    -0.406 OA
BRANCH   6  20
ATOM      1  F   UNL     1      10.668   5.388   9.607  0.00  0.00    -0.133 F 
ATOM      2  F   UNL     1       8.662   4.522   9.629  0.00  0.00    -0.133 F 
ATOM      3  F   UNL     1      10.079   3.896   8.088  0.00  0.00    -0.133 F 
ATOM     20  C   UNL     1       9.661   4.948   8.823  0.00  0.00    +0.575 C 
ENDBRANCH   6  20
ENDBRANCH  19   6
BRANCH  14  11
ATOM     11  C   UNL     1      11.431   6.615   2.845  0.00  0.00    +0.119 C 
BRANCH  11   7
ATOM      4  O   UNL     1      13.594   2.913   1.367  0.00  0.00    -0.376 OA
ATOM      7  N   UNL     1      12.366   5.535   2.525  0.00  0.00    -0.293 NA
ATOM      8  C   UNL     1      13.605   6.090   1.968  0.00  0.00    +0.118 C 
ATOM      9  C   UNL     1      14.543   5.134   1.215  0.00  0.00    +0.154 C 
ATOM     10  C   UNL     1      11.736   4.509   1.693  0.00  0.00    +0.113 C 
ATOM     12  C   UNL     1      14.651   3.746   1.830  0.00  0.00    +0.192 C 
ATOM     13  C   UNL     1      12.344   3.141   2.002  0.00  0.00    +0.175 C 
BRANCH   9   5
ATOM      5  O   UNL     1      15.849   5.714   1.202  0.00  0.00    -0.388 OA
ATOM     21  H   UNL     1      16.295   5.411   0.393  0.00  0.00    +0.210 HD
ENDBRANCH   9   5
ENDBRANCH  11   7
ENDBRANCH  14  11
TORSDOF 5
ENDMDL
MODEL 4
REMARK VINA RESULT:      -5.7     27.023     28.350
REMARK  Name = 75536949
REMARK  5 active torsions:
REMARK  status: ('A' for Active; 'I' for Inactive)
REMARK    1  A    between atoms: O_5  and  C_9
REMARK    2  A    between atoms: O_6  and  C_19
REMARK    3  A    between atoms: O_6  and  C_20
REMARK    4  A    between atoms: N_7  and  C_11
REMARK    5  A    between atoms: C_11  and  C_14
REMARK                            x       y       z     vdW  Elec       q    Type
REMARK                         _______ _______ _______ _____ _____    ______ ____
ROOT
ATOM     14  C   UNL     1      -3.564 -10.714  15.013  0.00  0.00    -0.033 A 
ATOM     15  C   UNL     1      -4.773 -10.641  14.322  0.00  0.00    +0.008 A 
ATOM     16  C   UNL     1      -2.359 -10.730  14.311  0.00  0.00    +0.008 A 
ATOM     17  C   UNL     1      -4.777 -10.586  12.929  0.00  0.00    +0.046 A 
ATOM     18  C   UNL     1      -2.363 -10.674  12.917  0.00  0.00    +0.046 A 
ATOM     19  C   UNL     1      -3.573 -10.603  12.226  0.00  0.00    +0.130 A 
ENDROOT
BRANCH  19   6
ATOM      6  O   UNL     1      -3.577 -10.548  10.866  0.00  0.00    -0.406 OA
BRANCH   6  20
ATOM      1  F   UNL     1      -2.103  -8.889  10.315  0.00  0.00    -0.133 F 
ATOM      2  F   UNL     1      -3.721  -9.389   8.934  0.00  0.00    -0.133 F 
ATOM      3  F   UNL     1      -4.190  -8.346  10.796  0.00  0.00    -0.133 F 
ATOM     20  C   UNL     1      -3.392  -9.283  10.242  0.00  0.00    +0.575 C 
ENDBRANCH   6  20
ENDBRANCH  19   6
BRANCH  14  11
ATOM     11  C   UNL     1      -3.557 -10.772  16.517  0.00  0.00    +0.119 C 
BRANCH  11   7
ATOM      4  O   UNL     1      -7.042 -13.202  18.106  0.00  0.00    -0.376 OA
ATOM      7  N   UNL     1      -4.822 -11.284  17.049  0.00  0.00    -0.293 NA
ATOM      8  C   UNL     1      -5.184 -10.561  18.273  0.00  0.00    +0.118 C 
ATOM      9  C   UNL     1      -6.246 -11.189  19.189  0.00  0.00    +0.154 C 
ATOM     10  C   UNL     1      -4.792 -12.740  17.194  0.00  0.00    +0.113 C 
ATOM     12  C   UNL     1      -7.392 -11.866  18.450  0.00  0.00    +0.192 C 
ATOM     13  C   UNL     1      -6.192 -13.315  16.973  0.00  0.00    +0.175 C 
BRANCH   9   5
ATOM      5  O   UNL     1      -6.798 -10.153  20.004  0.00  0.00    -0.388 OA
ATOM     21  H   UNL     1      -6.063  -9.739  20.488  0.00  0.00    +0.210 HD
ENDBRANCH   9   5
ENDBRANCH  11   7
ENDBRANCH  14  11
TORSDOF 5
ENDMDL
MODEL 5
REMARK VINA RESULT:      -5.6      1.798      2.961
REMARK  Name = 75536949
REMARK  5 active torsions:
REMARK  status: ('A' for Active; 'I' for Inactive)
REMARK    1  A    between atoms: O_5  and  C_9
REMARK    2  A    between atoms: O_6  and  C_19
REMARK    3  A    between atoms: O_6  and  C_20
REMARK    4  A    between atoms: N_7  and  C_11
REMARK    5  A    between atoms: C_11  and  C_14
REMARK                            x       y       z     vdW  Elec       q    Type
REMARK                         _______ _______ _______ _____ _____    ______ ____
ROOT
ATOM     14  C   UNL     1      17.107   7.741  21.198  0.00  0.00    -0.033 A 
ATOM     15  C   UNL     1      18.250   8.367  21.697  0.00  0.00    +0.008 A 
ATOM     16  C   UNL     1      17.227   6.589  20.421  0.00  0.00    +0.008 A 
ATOM     17  C   UNL     1      19.511   7.841  21.417  0.00  0.00    +0.046 A 
ATOM     18  C   UNL     1      18.488   6.062  20.142  0.00  0.00    +0.046 A 
ATOM     19  C   UNL     1      19.631   6.689  20.640  0.00  0.00    +0.130 A 
ENDROOT
BRANCH  19   6
ATOM      6  O   UNL     1      20.861   6.176  20.368  0.00  0.00    -0.406 OA
BRANCH   6  20
ATOM      1  F   UNL     1      22.593   4.813  20.980  0.00  0.00    -0.133 F 
ATOM      2  F   UNL     1      20.894   5.064  22.332  0.00  0.00    -0.133 F 
ATOM      3  F   UNL     1      20.638   3.904  20.498  0.00  0.00    -0.133 F 
ATOM     20  C   UNL     1      21.254   4.980  21.031  0.00  0.00    +0.575 C 
ENDBRANCH   6  20
ENDBRANCH  19   6
BRANCH  14  11
ATOM     11  C   UNL     1      15.746   8.306  21.499  0.00  0.00    +0.119 C 
BRANCH  11   7
ATOM      4  O   UNL     1      12.103   7.173  19.047  0.00  0.00    -0.376 OA
ATOM      7  N   UNL     1      14.766   7.948  20.472  0.00  0.00    -0.293 NA
ATOM      8  C   UNL     1      14.797   8.929  19.382  0.00  0.00    +0.118 C 
ATOM      9  C   UNL     1      13.605   8.963  18.413  0.00  0.00    +0.154 C 
ATOM     10  C   UNL     1      13.440   7.729  21.050  0.00  0.00    +0.113 C 
ATOM     12  C   UNL     1      13.042   7.592  18.062  0.00  0.00    +0.192 C 
ATOM     13  C   UNL     1      12.686   6.672  20.242  0.00  0.00    +0.175 C 
BRANCH   9   5
ATOM      5  O   UNL     1      14.034   9.586  17.202  0.00  0.00    -0.388 OA
ATOM     21  H   UNL     1      13.250   9.979  16.781  0.00  0.00    +0.210 HD
ENDBRANCH   9   5
ENDBRANCH  11   7
ENDBRANCH  14  11
TORSDOF 5
ENDMDL
MODEL 6
REMARK VINA RESULT:      -5.6     27.778     29.277
REMARK  Name = 75536949
REMARK  5 active torsions:
REMARK  status: ('A' for Active; 'I' for Inactive)
REMARK    1  A    between atoms: O_5  and  C_9
REMARK    2  A    between atoms: O_6  and  C_19
REMARK    3  A    between atoms: O_6  and  C_20
REMARK    4  A    between atoms: N_7  and  C_11
REMARK    5  A    between atoms: C_11  and  C_14
REMARK                            x       y       z     vdW  Elec       q    Type
REMARK                         _______ _______ _______ _____ _____    ______ ____
ROOT
ATOM     14  C   UNL     1     -12.116   8.076  19.903  0.00  0.00    -0.033 A 
ATOM     15  C   UNL     1     -13.503   8.062  19.753  0.00  0.00    +0.008 A 
ATOM     16  C   UNL     1     -11.492   7.116  20.699  0.00  0.00    +0.008 A 
ATOM     17  C   UNL     1     -14.265   7.090  20.400  0.00  0.00    +0.046 A 
ATOM     18  C   UNL     1     -12.253   6.143  21.346  0.00  0.00    +0.046 A 
ATOM     19  C   UNL     1     -13.641   6.130  21.196  0.00  0.00    +0.130 A 
ENDROOT
BRANCH  19   6
ATOM      6  O   UNL     1     -14.384   5.180  21.827  0.00  0.00    -0.406 OA
BRANCH   6  20
ATOM      1  F   UNL     1     -15.656   4.617  23.643  0.00  0.00    -0.133 F 
ATOM      2  F   UNL     1     -13.483   4.729  23.847  0.00  0.00    -0.133 F 
ATOM      3  F   UNL     1     -14.631   6.575  23.623  0.00  0.00    -0.133 F 
ATOM     20  C   UNL     1     -14.555   5.284  23.236  0.00  0.00    +0.575 C 
ENDBRANCH   6  20
ENDBRANCH  19   6
BRANCH  14  11
ATOM     11  C   UNL     1     -11.293   9.125  19.205  0.00  0.00    +0.119 C 
BRANCH  11   7
ATOM      4  O   UNL     1     -11.956  10.169  14.842  0.00  0.00    -0.376 OA
ATOM      7  N   UNL     1     -11.562   9.161  17.767  0.00  0.00    -0.293 NA
ATOM      8  C   UNL     1     -10.723   8.178  17.071  0.00  0.00    +0.118 C 
ATOM      9  C   UNL     1     -10.563   8.320  15.550  0.00  0.00    +0.154 C 
ATOM     10  C   UNL     1     -11.461  10.522  17.237  0.00  0.00    +0.113 C 
ATOM     12  C   UNL     1     -11.830   8.751  14.822  0.00  0.00    +0.192 C 
ATOM     13  C   UNL     1     -12.433  10.701  16.070  0.00  0.00    +0.175 C 
BRANCH   9   5
ATOM      5  O   UNL     1     -10.163   7.053  15.025  0.00  0.00    -0.388 OA
ATOM     21  H   UNL     1      -9.308   7.178  14.578  0.00  0.00    +0.210 HD
ENDBRANCH   9   5
ENDBRANCH  11   7
ENDBRANCH  14  11
TORSDOF 5
ENDMDL
MODEL 7
REMARK VINA RESULT:      -5.5     26.656     28.209
REMARK  Name = 75536949
REMARK  5 active torsions:
REMARK  status: ('A' for Active; 'I' for Inactive)
REMARK    1  A    between atoms: O_5  and  C_9
REMARK    2  A    between atoms: O_6  and  C_19
REMARK    3  A    between atoms: O_6  and  C_20
REMARK    4  A    between atoms: N_7  and  C_11
REMARK    5  A    between atoms: C_11  and  C_14
REMARK                            x       y       z     vdW  Elec       q    Type
REMARK                         _______ _______ _______ _____ _____    ______ ____
ROOT
ATOM     14  C   UNL     1      -2.690 -10.797  13.880  0.00  0.00    -0.033 A 
ATOM     15  C   UNL     1      -1.854 -10.798  14.997  0.00  0.00    +0.008 A 
ATOM     16  C   UNL     1      -4.072 -10.709  14.044  0.00  0.00    +0.008 A 
ATOM     17  C   UNL     1      -2.400 -10.713  16.277  0.00  0.00    +0.046 A 
ATOM     18  C   UNL     1      -4.619 -10.623  15.324  0.00  0.00    +0.046 A 
ATOM     19  C   UNL     1      -3.783 -10.625  16.442  0.00  0.00    +0.130 A 
ENDROOT
BRANCH  19   6
ATOM      6  O   UNL     1      -4.316 -10.541  17.691  0.00  0.00    -0.406 OA
BRANCH   6  20
ATOM      1  F   UNL     1      -3.113 -11.795  19.179  0.00  0.00    -0.133 F 
ATOM      2  F   UNL     1      -5.276 -11.610  19.433  0.00  0.00    -0.133 F 
ATOM      3  F   UNL     1      -4.493 -12.819  17.790  0.00  0.00    -0.133 F 
ATOM     20  C   UNL     1      -4.286 -11.701  18.516  0.00  0.00    +0.575 C 
ENDBRANCH   6  20
ENDBRANCH  19   6
BRANCH  14  11
ATOM     11  C   UNL     1      -2.101 -10.889  12.498  0.00  0.00    +0.119 C 
BRANCH  11   7
ATOM      4  O   UNL     1      -4.633  -9.493   9.003  0.00  0.00    -0.376 OA
ATOM      7  N   UNL     1      -3.108 -10.662  11.460  0.00  0.00    -0.293 NA
ATOM      8  C   UNL     1      -3.393 -11.915  10.751  0.00  0.00    +0.118 C 
ATOM      9  C   UNL     1      -4.111 -11.824   9.396  0.00  0.00    +0.154 C 
ATOM     10  C   UNL     1      -2.738  -9.546  10.589  0.00  0.00    +0.113 C 
ATOM     12  C   UNL     1      -5.197 -10.758   9.330  0.00  0.00    +0.192 C 
ATOM     13  C   UNL     1      -3.995  -8.834  10.089  0.00  0.00    +0.175 C 
BRANCH   9   5
ATOM      5  O   UNL     1      -4.720 -13.090   9.131  0.00  0.00    -0.388 OA
ATOM     21  H   UNL     1      -5.622 -12.919   8.810  0.00  0.00    +0.210 HD
ENDBRANCH   9   5
ENDBRANCH  11   7
ENDBRANCH  14  11
TORSDOF 5
ENDMDL
MODEL 8
REMARK VINA RESULT:      -5.4     31.195     32.887
REMARK  Name = 75536949
REMARK  5 active torsions:
REMARK  status: ('A' for Active; 'I' for Inactive)
REMARK    1  A    between atoms: O_5  and  C_9
REMARK    2  A    between atoms: O_6  and  C_19
REMARK    3  A    between atoms: O_6  and  C_20
REMARK    4  A    between atoms: N_7  and  C_11
REMARK    5  A    between atoms: C_11  and  C_14
REMARK                            x       y       z     vdW  Elec       q    Type
REMARK                         _______ _______ _______ _____ _____    ______ ____
ROOT
ATOM     14  C   UNL     1     -16.833   2.960  26.930  0.00  0.00    -0.033 A 
ATOM     15  C   UNL     1     -16.879   4.326  26.651  0.00  0.00    +0.008 A 
ATOM     16  C   UNL     1     -16.455   2.057  25.936  0.00  0.00    +0.008 A 
ATOM     17  C   UNL     1     -16.548   4.789  25.378  0.00  0.00    +0.046 A 
ATOM     18  C   UNL     1     -16.123   2.520  24.663  0.00  0.00    +0.046 A 
ATOM     19  C   UNL     1     -16.170   3.887  24.383  0.00  0.00    +0.130 A 
ENDROOT
BRANCH  19   6
ATOM      6  O   UNL     1     -15.846   4.338  23.141  0.00  0.00    -0.406 OA
BRANCH   6  20
ATOM      1  F   UNL     1     -14.745   6.342  23.205  0.00  0.00    -0.133 F 
ATOM      2  F   UNL     1     -13.717   4.530  23.867  0.00  0.00    -0.133 F 
ATOM      3  F   UNL     1     -14.107   4.819  21.736  0.00  0.00    -0.133 F 
ATOM     20  C   UNL     1     -14.608   5.019  22.973  0.00  0.00    +0.575 C 
ENDBRANCH   6  20
ENDBRANCH  19   6
BRANCH  14  11
ATOM     11  C   UNL     1     -17.189   2.459  28.304  0.00  0.00    +0.119 C 
BRANCH  11   7
ATOM      4  O   UNL     1     -13.689   1.996  31.150  0.00  0.00    -0.376 OA
ATOM      7  N   UNL     1     -16.004   2.055  29.062  0.00  0.00    -0.293 NA
ATOM      8  C   UNL     1     -16.151   0.671  29.527  0.00  0.00    +0.118 C 
ATOM      9  C   UNL     1     -15.219   0.188  30.649  0.00  0.00    +0.154 C 
ATOM     10  C   UNL     1     -15.689   3.017  30.119  0.00  0.00    +0.113 C 
ATOM     12  C   UNL     1     -13.792   0.710  30.548  0.00  0.00    +0.192 C 
ATOM     13  C   UNL     1     -14.178   3.063  30.349  0.00  0.00    +0.175 C 
BRANCH   9   5
ATOM      5  O   UNL     1     -15.170  -1.239  30.603  0.00  0.00    -0.388 OA
ATOM     21  H   UNL     1     -15.854  -1.574  31.208  0.00  0.00    +0.210 HD
ENDBRANCH   9   5
ENDBRANCH  11   7
ENDBRANCH  14  11
TORSDOF 5
ENDMDL
MODEL 9
REMARK VINA RESULT:      -5.3     31.921     32.995
REMARK  Name = 75536949
REMARK  5 active torsions:
REMARK  status: ('A' for Active; 'I' for Inactive)
REMARK    1  A    between atoms: O_5  and  C_9
REMARK    2  A    between atoms: O_6  and  C_19
REMARK    3  A    between atoms: O_6  and  C_20
REMARK    4  A    between atoms: N_7  and  C_11
REMARK    5  A    between atoms: C_11  and  C_14
REMARK                            x       y       z     vdW  Elec       q    Type
REMARK                         _______ _______ _______ _____ _____    ______ ____
ROOT
ATOM     14  C   UNL     1     -14.607   3.812  33.260  0.00  0.00    -0.033 A 
ATOM     15  C   UNL     1     -14.983   2.501  33.551  0.00  0.00    +0.008 A 
ATOM     16  C   UNL     1     -13.873   4.087  32.106  0.00  0.00    +0.008 A 
ATOM     17  C   UNL     1     -14.624   1.465  32.689  0.00  0.00    +0.046 A 
ATOM     18  C   UNL     1     -13.515   3.051  31.243  0.00  0.00    +0.046 A 
ATOM     19  C   UNL     1     -13.890   1.739  31.535  0.00  0.00    +0.130 A 
ENDROOT
BRANCH  19   6
ATOM      6  O   UNL     1     -13.541   0.728  30.694  0.00  0.00    -0.406 OA
BRANCH   6  20
ATOM      1  F   UNL     1     -15.258  -0.781  30.774  0.00  0.00    -0.133 F 
ATOM      2  F   UNL     1     -15.443   0.988  29.505  0.00  0.00    -0.133 F 
ATOM      3  F   UNL     1     -14.073  -0.610  28.917  0.00  0.00    -0.133 F 
ATOM     20  C   UNL     1     -14.573   0.064  29.974  0.00  0.00    +0.575 C 
ENDBRANCH   6  20
ENDBRANCH  19   6
BRANCH  14  11
ATOM     11  C   UNL     1     -14.994   4.931  34.189  0.00  0.00    +0.119 C 
BRANCH  11   7
ATOM      4  O   UNL     1     -13.580   9.076  33.014  0.00  0.00    -0.376 OA
ATOM      7  N   UNL     1     -14.262   6.163  33.894  0.00  0.00    -0.293 NA
ATOM      8  C   UNL     1     -13.477   6.577  35.063  0.00  0.00    +0.118 C 
ATOM      9  C   UNL     1     -12.957   8.022  35.103  0.00  0.00    +0.154 C 
ATOM     10  C   UNL     1     -15.149   7.200  33.364  0.00  0.00    +0.113 C 
ATOM     12  C   UNL     1     -12.483   8.556  33.758  0.00  0.00    +0.192 C 
ATOM     13  C   UNL     1     -14.385   8.090  32.384  0.00  0.00    +0.175 C 
BRANCH   9   5
ATOM      5  O   UNL     1     -11.855   8.072  36.010  0.00  0.00    -0.388 OA
ATOM     21  H   UNL     1     -11.141   8.571  35.576  0.00  0.00    +0.210 HD
ENDBRANCH   9   5
ENDBRANCH  11   7
ENDBRANCH  14  11
TORSDOF 5
ENDMDL
MODEL 10
REMARK VINA RESULT:      -5.3     31.073     32.519
REMARK  Name = 75536949
REMARK  5 active torsions:
REMARK  status: ('A' for Active; 'I' for Inactive)
REMARK    1  A    between atoms: O_5  and  C_9
REMARK    2  A    between atoms: O_6  and  C_19
REMARK    3  A    between atoms: O_6  and  C_20
REMARK    4  A    between atoms: N_7  and  C_11
REMARK    5  A    between atoms: C_11  and  C_14
REMARK                            x       y       z     vdW  Elec       q    Type
REMARK                         _______ _______ _______ _____ _____    ______ ____
ROOT
ATOM     14  C   UNL     1     -14.517   4.841  32.289  0.00  0.00    -0.033 A 
ATOM     15  C   UNL     1     -15.149   4.686  31.055  0.00  0.00    +0.008 A 
ATOM     16  C   UNL     1     -13.602   3.884  32.729  0.00  0.00    +0.008 A 
ATOM     17  C   UNL     1     -14.866   3.574  30.262  0.00  0.00    +0.046 A 
ATOM     18  C   UNL     1     -13.318   2.773  31.936  0.00  0.00    +0.046 A 
ATOM     19  C   UNL     1     -13.951   2.617  30.701  0.00  0.00    +0.130 A 
ENDROOT
BRANCH  19   6
ATOM      6  O   UNL     1     -13.674   1.533  29.927  0.00  0.00    -0.406 OA
BRANCH   6  20
ATOM      1  F   UNL     1     -15.346   0.342  28.918  0.00  0.00    -0.133 F 
ATOM      2  F   UNL     1     -13.801  -0.718  30.043  0.00  0.00    -0.133 F 
ATOM      3  F   UNL     1     -15.296   0.453  31.124  0.00  0.00    -0.133 F 
ATOM     20  C   UNL     1     -14.546   0.411  30.004  0.00  0.00    +0.575 C 
ENDBRANCH   6  20
ENDBRANCH  19   6
BRANCH  14  11
ATOM     11  C   UNL     1     -14.821   6.040  33.145  0.00  0.00    +0.119 C 
BRANCH  11   7
ATOM      4  O   UNL     1     -14.126  10.310  31.786  0.00  0.00    -0.376 OA
ATOM      7  N   UNL     1     -14.408   7.289  32.503  0.00  0.00    -0.293 NA
ATOM      8  C   UNL     1     -12.943   7.381  32.477  0.00  0.00    +0.118 C 
ATOM      9  C   UNL     1     -12.317   8.759  32.209  0.00  0.00    +0.154 C 
ATOM     10  C   UNL     1     -15.075   8.446  33.101  0.00  0.00    +0.113 C 
ATOM     12  C   UNL     1     -13.057   9.595  31.174  0.00  0.00    +0.192 C 
ATOM     13  C   UNL     1     -15.285   9.531  32.043  0.00  0.00    +0.175 C 
BRANCH   9   5
ATOM      5  O   UNL     1     -10.983   8.555  31.739  0.00  0.00    -0.388 OA
ATOM     21  H   UNL     1     -11.027   8.448  30.773  0.00  0.00    +0.210 HD
ENDBRANCH   9   5
ENDBRANCH  11   7
ENDBRANCH  14  11
TORSDOF 5
ENDMDL
